MODEL 1
REMARK VINA RESULT:      -8.2      0.000      0.000
REMARK  Name = 
REMARK  6 active torsions:
REMARK  status: ('A' for Active; 'I' for Inactive)
REMARK    1  A    between atoms: C_1  and  N_2
REMARK    2  A    between atoms: N_2  and  C_3
REMARK    3  A    between atoms: N_2  and  S_8
REMARK    4  A    between atoms: S_8  and  C_11
REMARK    5  A    between atoms: C_15  and  C_16
REMARK    6  A    between atoms: N_18  and  C_19
REMARK                            x       y       z     vdW  Elec       q    Type
REMARK                         _______ _______ _______ _____ _____    ______ ____
ROOT
ATOM      1  C   UNL     1       6.585   6.042  17.225  0.00  0.00    +0.000 A 
ATOM      2  C   UNL     1       7.112   5.115  18.124  0.00  0.00    +0.000 A 
ATOM      3  C   UNL     1       8.023   5.543  19.092  0.00  0.00    +0.000 A 
ATOM      4  C   UNL     1       8.414   6.883  19.140  0.00  0.00    +0.000 A 
ATOM      5  C   UNL     1       7.914   7.814  18.217  0.00  0.00    +0.000 A 
ATOM      6  C   UNL     1       6.988   7.388  17.258  0.00  0.00    +0.000 A 
ENDROOT
BRANCH   5   7
ATOM      7  C   UNL     1       8.406   9.222  18.320  0.00  0.00    +0.000 C 
ATOM      8  O   UNL     1       7.979  10.029  17.501  0.00  0.00    +0.000 OA
ATOM      9  N   UNL     1       9.311   9.503  19.334  0.00  0.00    +0.000 N 
ATOM     10  H   UNL     1       9.683   8.740  19.882  0.00  0.00    +0.000 HD
BRANCH   9  11
ATOM     11  C   UNL     1       9.787  10.787  19.683  0.00  0.00    +0.000 A 
ATOM     12  C   UNL     1      10.676  11.516  18.884  0.00  0.00    +0.000 A 
ATOM     13  C   UNL     1      11.111  12.785  19.274  0.00  0.00    +0.000 A 
ATOM     14  C   UNL     1      10.660  13.325  20.470  0.00  0.00    +0.000 A 
ATOM     15  F   UNL     1      11.086  14.535  20.851  0.00  0.00    +0.000 F 
ATOM     16  C   UNL     1       9.768  12.626  21.273  0.00  0.00    +0.000 A 
ATOM     17  C   UNL     1       9.319  11.362  20.874  0.00  0.00    +0.000 A 
ENDBRANCH   9  11
ENDBRANCH   5   7
BRANCH   1  18
ATOM     18  S   UNL     1       5.467   5.510  15.933  0.00  0.00    +0.000 S 
ATOM     19  O   UNL     1       6.043   4.330  15.324  0.00  0.00    +0.000 OA
ATOM     20  O   UNL     1       5.155   6.680  15.142  0.00  0.00    +0.000 OA
BRANCH  18  22
ATOM     21  C   UNL     1       3.956   3.602  17.084  0.00  0.00    +0.000 C 
ATOM     22  N   UNL     1       4.018   5.060  16.767  0.00  0.00    +0.000 NA
BRANCH  22  23
ATOM     23  C   UNL     1       3.755   5.865  18.022  0.00  0.00    +0.000 C 
ATOM     24  C   UNL     1       2.908   7.120  17.835  0.00  0.00    +0.000 C 
ATOM     25  C   UNL     1       2.406   7.440  19.241  0.00  0.00    +0.000 C 
ATOM     26  C   UNL     1       2.281   6.098  19.951  0.00  0.00    +0.000 C 
ATOM     27  C   UNL     1       2.893   5.068  19.010  0.00  0.00    +0.000 C 
ENDBRANCH  22  23
ENDBRANCH  18  22
ENDBRANCH   1  18
TORSDOF 5
ENDMDL
MODEL 2
REMARK VINA RESULT:      -7.9      5.950      8.972
REMARK  Name = 
REMARK  6 active torsions:
REMARK  status: ('A' for Active; 'I' for Inactive)
REMARK    1  A    between atoms: C_1  and  N_2
REMARK    2  A    between atoms: N_2  and  C_3
REMARK    3  A    between atoms: N_2  and  S_8
REMARK    4  A    between atoms: S_8  and  C_11
REMARK    5  A    between atoms: C_15  and  C_16
REMARK    6  A    between atoms: N_18  and  C_19
REMARK                            x       y       z     vdW  Elec       q    Type
REMARK                         _______ _______ _______ _____ _____    ______ ____
ROOT
ATOM      1  C   UNL     1       0.182  10.620  20.137  0.00  0.00    +0.000 A 
ATOM      2  C   UNL     1       0.102  10.046  21.406  0.00  0.00    +0.000 A 
ATOM      3  C   UNL     1       0.773   8.848  21.659  0.00  0.00    +0.000 A 
ATOM      4  C   UNL     1       1.497   8.224  20.640  0.00  0.00    +0.000 A 
ATOM      5  C   UNL     1       1.553   8.778  19.352  0.00  0.00    +0.000 A 
ATOM      6  C   UNL     1       0.896   9.988  19.104  0.00  0.00    +0.000 A 
ENDROOT
BRANCH   5   7
ATOM      7  C   UNL     1       2.328   8.033  18.312  0.00  0.00    +0.000 C 
ATOM      8  O   UNL     1       2.487   8.582  17.227  0.00  0.00    +0.000 OA
ATOM      9  N   UNL     1       2.800   6.775  18.657  0.00  0.00    +0.000 N 
ATOM     10  H   UNL     1       2.516   6.370  19.538  0.00  0.00    +0.000 HD
BRANCH   9  11
ATOM     11  C   UNL     1       3.661   5.972  17.873  0.00  0.00    +0.000 A 
ATOM     12  C   UNL     1       4.876   6.435  17.356  0.00  0.00    +0.000 A 
ATOM     13  C   UNL     1       5.693   5.598  16.591  0.00  0.00    +0.000 A 
ATOM     14  C   UNL     1       5.289   4.294  16.339  0.00  0.00    +0.000 A 
ATOM     15  F   UNL     1       6.065   3.495  15.596  0.00  0.00    +0.000 F 
ATOM     16  C   UNL     1       4.094   3.808  16.854  0.00  0.00    +0.000 A 
ATOM     17  C   UNL     1       3.285   4.643  17.633  0.00  0.00    +0.000 A 
ENDBRANCH   9  11
ENDBRANCH   5   7
BRANCH   1  18
ATOM     18  S   UNL     1      -0.721  12.120  19.768  0.00  0.00    +0.000 S 
ATOM     19  O   UNL     1      -0.056  12.759  18.652  0.00  0.00    +0.000 OA
ATOM     20  O   UNL     1      -0.905  12.816  21.022  0.00  0.00    +0.000 OA
BRANCH  18  22
ATOM     21  C   UNL     1      -3.394  12.428  19.767  0.00  0.00    +0.000 C 
ATOM     22  N   UNL     1      -2.281  11.575  19.255  0.00  0.00    +0.000 NA
BRANCH  22  23
ATOM     23  C   UNL     1      -2.414  11.411  17.756  0.00  0.00    +0.000 C 
ATOM     24  C   UNL     1      -2.061  10.030  17.210  0.00  0.00    +0.000 C 
ATOM     25  C   UNL     1      -2.726   9.995  15.836  0.00  0.00    +0.000 C 
ATOM     26  C   UNL     1      -3.967  10.870  15.954  0.00  0.00    +0.000 C 
ATOM     27  C   UNL     1      -3.881  11.537  17.322  0.00  0.00    +0.000 C 
ENDBRANCH  22  23
ENDBRANCH  18  22
ENDBRANCH   1  18
TORSDOF 5
ENDMDL
MODEL 3
REMARK VINA RESULT:      -7.8      6.105      9.129
REMARK  Name = 
REMARK  6 active torsions:
REMARK  status: ('A' for Active; 'I' for Inactive)
REMARK    1  A    between atoms: C_1  and  N_2
REMARK    2  A    between atoms: N_2  and  C_3
REMARK    3  A    between atoms: N_2  and  S_8
REMARK    4  A    between atoms: S_8  and  C_11
REMARK    5  A    between atoms: C_15  and  C_16
REMARK    6  A    between atoms: N_18  and  C_19
REMARK                            x       y       z     vdW  Elec       q    Type
REMARK                         _______ _______ _______ _____ _____    ______ ____
ROOT
ATOM      1  C   UNL     1      -0.181  10.812  19.939  0.00  0.00    +0.000 A 
ATOM      2  C   UNL     1      -0.183  10.374  21.264  0.00  0.00    +0.000 A 
ATOM      3  C   UNL     1       0.586   9.264  21.619  0.00  0.00    +0.000 A 
ATOM      4  C   UNL     1       1.329   8.589  20.648  0.00  0.00    +0.000 A 
ATOM      5  C   UNL     1       1.308   9.002  19.307  0.00  0.00    +0.000 A 
ATOM      6  C   UNL     1       0.552  10.126  18.955  0.00  0.00    +0.000 A 
ENDROOT
BRANCH   5   7
ATOM      7  C   UNL     1       2.110   8.208  18.327  0.00  0.00    +0.000 C 
ATOM      8  O   UNL     1       2.399   8.750  17.265  0.00  0.00    +0.000 OA
ATOM      9  N   UNL     1       2.460   6.917  18.695  0.00  0.00    +0.000 N 
ATOM     10  H   UNL     1       2.074   6.529  19.544  0.00  0.00    +0.000 HD
BRANCH   9  11
ATOM     11  C   UNL     1       3.322   6.058  17.975  0.00  0.00    +0.000 A 
ATOM     12  C   UNL     1       2.997   4.731  17.669  0.00  0.00    +0.000 A 
ATOM     13  C   UNL     1       3.884   3.926  16.949  0.00  0.00    +0.000 A 
ATOM     14  C   UNL     1       5.102   4.448  16.540  0.00  0.00    +0.000 A 
ATOM     15  F   UNL     1       5.958   3.674  15.861  0.00  0.00    +0.000 F 
ATOM     16  C   UNL     1       5.440   5.766  16.819  0.00  0.00    +0.000 A 
ATOM     17  C   UNL     1       4.545   6.577  17.526  0.00  0.00    +0.000 A 
ENDBRANCH   9  11
ENDBRANCH   5   7
BRANCH   1  18
ATOM     18  S   UNL     1      -1.207  12.191  19.444  0.00  0.00    +0.000 S 
ATOM     19  O   UNL     1      -0.513  12.884  18.378  0.00  0.00    +0.000 OA
ATOM     20  O   UNL     1      -1.591  12.882  20.655  0.00  0.00    +0.000 OA
BRANCH  18  22
ATOM     21  C   UNL     1      -3.887  12.176  19.199  0.00  0.00    +0.000 C 
ATOM     22  N   UNL     1      -2.638  11.462  18.800  0.00  0.00    +0.000 NA
BRANCH  22  23
ATOM     23  C   UNL     1      -2.615  11.280  17.297  0.00  0.00    +0.000 C 
ATOM     24  C   UNL     1      -2.204   9.894  16.807  0.00  0.00    +0.000 C 
ATOM     25  C   UNL     1      -2.723   9.841  15.372  0.00  0.00    +0.000 C 
ATOM     26  C   UNL     1      -3.971  10.714  15.350  0.00  0.00    +0.000 C 
ATOM     27  C   UNL     1      -4.028  11.397  16.711  0.00  0.00    +0.000 C 
ENDBRANCH  22  23
ENDBRANCH  18  22
ENDBRANCH   1  18
TORSDOF 5
ENDMDL
MODEL 4
REMARK VINA RESULT:      -7.6      4.963      7.137
REMARK  Name = 
REMARK  6 active torsions:
REMARK  status: ('A' for Active; 'I' for Inactive)
REMARK    1  A    between atoms: C_1  and  N_2
REMARK    2  A    between atoms: N_2  and  C_3
REMARK    3  A    between atoms: N_2  and  S_8
REMARK    4  A    between atoms: S_8  and  C_11
REMARK    5  A    between atoms: C_15  and  C_16
REMARK    6  A    between atoms: N_18  and  C_19
REMARK                            x       y       z     vdW  Elec       q    Type
REMARK                         _______ _______ _______ _____ _____    ______ ____
ROOT
ATOM      1  C   UNL     1       3.563   5.182  19.085  0.00  0.00    +0.000 A 
ATOM      2  C   UNL     1       2.882   4.748  20.224  0.00  0.00    +0.000 A 
ATOM      3  C   UNL     1       1.895   5.563  20.782  0.00  0.00    +0.000 A 
ATOM      4  C   UNL     1       1.613   6.808  20.215  0.00  0.00    +0.000 A 
ATOM      5  C   UNL     1       2.318   7.265  19.091  0.00  0.00    +0.000 A 
ATOM      6  C   UNL     1       3.294   6.441  18.521  0.00  0.00    +0.000 A 
ENDROOT
BRANCH   5   7
ATOM      7  C   UNL     1       1.972   8.621  18.563  0.00  0.00    +0.000 C 
ATOM      8  O   UNL     1       2.296   8.874  17.407  0.00  0.00    +0.000 OA
ATOM      9  N   UNL     1       1.316   9.487  19.426  0.00  0.00    +0.000 N 
ATOM     10  H   UNL     1       1.198   9.218  20.393  0.00  0.00    +0.000 HD
BRANCH   9  11
ATOM     11  C   UNL     1       0.786  10.751  19.082  0.00  0.00    +0.000 A 
ATOM     12  C   UNL     1      -0.571  10.964  18.813  0.00  0.00    +0.000 A 
ATOM     13  C   UNL     1      -1.044  12.236  18.483  0.00  0.00    +0.000 A 
ATOM     14  C   UNL     1      -0.155  13.299  18.416  0.00  0.00    +0.000 A 
ATOM     15  F   UNL     1      -0.605  14.517  18.088  0.00  0.00    +0.000 F 
ATOM     16  C   UNL     1       1.193  13.116  18.693  0.00  0.00    +0.000 A 
ATOM     17  C   UNL     1       1.664  11.844  19.039  0.00  0.00    +0.000 A 
ENDBRANCH   9  11
ENDBRANCH   5   7
BRANCH   1  18
ATOM     18  S   UNL     1       4.877   4.188  18.388  0.00  0.00    +0.000 S 
ATOM     19  O   UNL     1       4.264   3.016  17.799  0.00  0.00    +0.000 OA
ATOM     20  O   UNL     1       5.893   4.064  19.408  0.00  0.00    +0.000 OA
BRANCH  18  22
ATOM     21  C   UNL     1       6.655   6.045  17.593  0.00  0.00    +0.000 C 
ATOM     22  N   UNL     1       5.542   5.168  17.125  0.00  0.00    +0.000 NA
BRANCH  22  23
ATOM     23  C   UNL     1       5.987   4.385  15.908  0.00  0.00    +0.000 C 
ATOM     24  C   UNL     1       5.013   4.381  14.734  0.00  0.00    +0.000 C 
ATOM     25  C   UNL     1       5.875   3.976  13.540  0.00  0.00    +0.000 C 
ATOM     26  C   UNL     1       7.270   4.508  13.837  0.00  0.00    +0.000 C 
ATOM     27  C   UNL     1       7.224   5.031  15.268  0.00  0.00    +0.000 C 
ENDBRANCH  22  23
ENDBRANCH  18  22
ENDBRANCH   1  18
TORSDOF 5
ENDMDL
MODEL 5
REMARK VINA RESULT:      -7.4      4.576      6.891
REMARK  Name = 
REMARK  6 active torsions:
REMARK  status: ('A' for Active; 'I' for Inactive)
REMARK    1  A    between atoms: C_1  and  N_2
REMARK    2  A    between atoms: N_2  and  C_3
REMARK    3  A    between atoms: N_2  and  S_8
REMARK    4  A    between atoms: S_8  and  C_11
REMARK    5  A    between atoms: C_15  and  C_16
REMARK    6  A    between atoms: N_18  and  C_19
REMARK                            x       y       z     vdW  Elec       q    Type
REMARK                         _______ _______ _______ _____ _____    ______ ____
ROOT
ATOM      1  C   UNL     1       2.979   4.713  18.592  0.00  0.00    +0.000 A 
ATOM      2  C   UNL     1       2.881   4.477  19.964  0.00  0.00    +0.000 A 
ATOM      3  C   UNL     1       2.459   5.507  20.807  0.00  0.00    +0.000 A 
ATOM      4  C   UNL     1       2.163   6.766  20.278  0.00  0.00    +0.000 A 
ATOM      5  C   UNL     1       2.293   7.020  18.904  0.00  0.00    +0.000 A 
ATOM      6  C   UNL     1       2.697   5.982  18.058  0.00  0.00    +0.000 A 
ENDROOT
BRANCH   5   7
ATOM      7  C   UNL     1       1.982   8.401  18.425  0.00  0.00    +0.000 C 
ATOM      8  O   UNL     1       2.377   8.712  17.306  0.00  0.00    +0.000 OA
ATOM      9  N   UNL     1       1.274   9.226  19.288  0.00  0.00    +0.000 N 
ATOM     10  H   UNL     1       1.096   8.909  20.230  0.00  0.00    +0.000 HD
BRANCH   9  11
ATOM     11  C   UNL     1       0.767  10.508  18.975  0.00  0.00    +0.000 A 
ATOM     12  C   UNL     1      -0.572  10.739  18.637  0.00  0.00    +0.000 A 
ATOM     13  C   UNL     1      -1.023  12.028  18.342  0.00  0.00    +0.000 A 
ATOM     14  C   UNL     1      -0.130  13.090  18.381  0.00  0.00    +0.000 A 
ATOM     15  F   UNL     1      -0.558  14.323  18.087  0.00  0.00    +0.000 F 
ATOM     16  C   UNL     1       1.199  12.887  18.728  0.00  0.00    +0.000 A 
ATOM     17  C   UNL     1       1.647  11.598  19.039  0.00  0.00    +0.000 A 
ENDBRANCH   9  11
ENDBRANCH   5   7
BRANCH   1  18
ATOM     18  S   UNL     1       3.578   3.431  17.497  0.00  0.00    +0.000 S 
ATOM     19  O   UNL     1       2.613   3.293  16.427  0.00  0.00    +0.000 OA
ATOM     20  O   UNL     1       3.933   2.303  18.330  0.00  0.00    +0.000 OA
BRANCH  18  22
ATOM     21  C   UNL     1       4.909   4.544  15.440  0.00  0.00    +0.000 C 
ATOM     22  N   UNL     1       5.051   4.065  16.847  0.00  0.00    +0.000 NA
BRANCH  22  23
ATOM     23  C   UNL     1       5.680   5.151  17.693  0.00  0.00    +0.000 C 
ATOM     24  C   UNL     1       7.006   4.787  18.355  0.00  0.00    +0.000 C 
ATOM     25  C   UNL     1       7.628   6.137  18.704  0.00  0.00    +0.000 C 
ATOM     26  C   UNL     1       7.136   7.108  17.639  0.00  0.00    +0.000 C 
ATOM     27  C   UNL     1       6.099   6.345  16.824  0.00  0.00    +0.000 C 
ENDBRANCH  22  23
ENDBRANCH  18  22
ENDBRANCH   1  18
TORSDOF 5
ENDMDL
MODEL 6
REMARK VINA RESULT:      -7.4      5.718      7.071
REMARK  Name = 
REMARK  6 active torsions:
REMARK  status: ('A' for Active; 'I' for Inactive)
REMARK    1  A    between atoms: C_1  and  N_2
REMARK    2  A    between atoms: N_2  and  C_3
REMARK    3  A    between atoms: N_2  and  S_8
REMARK    4  A    between atoms: S_8  and  C_11
REMARK    5  A    between atoms: C_15  and  C_16
REMARK    6  A    between atoms: N_18  and  C_19
REMARK                            x       y       z     vdW  Elec       q    Type
REMARK                         _______ _______ _______ _____ _____    ______ ____
ROOT
ATOM      1  C   UNL     1       3.529   4.724  19.705  0.00  0.00    +0.000 A 
ATOM      2  C   UNL     1       2.612   4.226  20.631  0.00  0.00    +0.000 A 
ATOM      3  C   UNL     1       1.517   5.011  20.999  0.00  0.00    +0.000 A 
ATOM      4  C   UNL     1       1.360   6.290  20.459  0.00  0.00    +0.000 A 
ATOM      5  C   UNL     1       2.298   6.810  19.554  0.00  0.00    +0.000 A 
ATOM      6  C   UNL     1       3.385   6.017  19.171  0.00  0.00    +0.000 A 
ENDROOT
BRANCH   5   7
ATOM      7  C   UNL     1       2.070   8.197  19.044  0.00  0.00    +0.000 C 
ATOM      8  O   UNL     1       2.682   8.535  18.037  0.00  0.00    +0.000 OA
ATOM      9  N   UNL     1       1.185   8.995  19.757  0.00  0.00    +0.000 N 
ATOM     10  H   UNL     1       0.822   8.657  20.636  0.00  0.00    +0.000 HD
BRANCH   9  11
ATOM     11  C   UNL     1       0.733  10.277  19.368  0.00  0.00    +0.000 A 
ATOM     12  C   UNL     1       1.457  11.450  19.614  0.00  0.00    +0.000 A 
ATOM     13  C   UNL     1       0.967  12.692  19.204  0.00  0.00    +0.000 A 
ATOM     14  C   UNL     1      -0.255  12.762  18.549  0.00  0.00    +0.000 A 
ATOM     15  F   UNL     1      -0.731  13.953  18.167  0.00  0.00    +0.000 F 
ATOM     16  C   UNL     1      -0.984  11.611  18.281  0.00  0.00    +0.000 A 
ATOM     17  C   UNL     1      -0.485  10.365  18.678  0.00  0.00    +0.000 A 
ENDBRANCH   9  11
ENDBRANCH   5   7
BRANCH   1  18
ATOM     18  S   UNL     1       4.975   3.767  19.265  0.00  0.00    +0.000 S 
ATOM     19  O   UNL     1       4.912   2.525  20.005  0.00  0.00    +0.000 OA
ATOM     20  O   UNL     1       6.114   4.651  19.388  0.00  0.00    +0.000 OA
BRANCH  18  22
ATOM     21  C   UNL     1       3.355   3.504  17.132  0.00  0.00    +0.000 C 
ATOM     22  N   UNL     1       4.777   3.427  17.580  0.00  0.00    +0.000 NA
BRANCH  22  23
ATOM     23  C   UNL     1       5.642   4.277  16.673  0.00  0.00    +0.000 C 
ATOM     24  C   UNL     1       5.990   3.657  15.323  0.00  0.00    +0.000 C 
ATOM     25  C   UNL     1       6.412   4.850  14.467  0.00  0.00    +0.000 C 
ATOM     26  C   UNL     1       5.608   6.035  14.984  0.00  0.00    +0.000 C 
ATOM     27  C   UNL     1       4.895   5.544  16.237  0.00  0.00    +0.000 C 
ENDBRANCH  22  23
ENDBRANCH  18  22
ENDBRANCH   1  18
TORSDOF 5
ENDMDL
MODEL 7
REMARK VINA RESULT:      -7.4      1.085      1.856
REMARK  Name = 
REMARK  6 active torsions:
REMARK  status: ('A' for Active; 'I' for Inactive)
REMARK    1  A    between atoms: C_1  and  N_2
REMARK    2  A    between atoms: N_2  and  C_3
REMARK    3  A    between atoms: N_2  and  S_8
REMARK    4  A    between atoms: S_8  and  C_11
REMARK    5  A    between atoms: C_15  and  C_16
REMARK    6  A    between atoms: N_18  and  C_19
REMARK                            x       y       z     vdW  Elec       q    Type
REMARK                         _______ _______ _______ _____ _____    ______ ____
ROOT
ATOM      1  C   UNL     1       6.281   6.231  17.642  0.00  0.00    +0.000 A 
ATOM      2  C   UNL     1       6.959   5.261  18.382  0.00  0.00    +0.000 A 
ATOM      3  C   UNL     1       8.090   5.626  19.114  0.00  0.00    +0.000 A 
ATOM      4  C   UNL     1       8.547   6.946  19.085  0.00  0.00    +0.000 A 
ATOM      5  C   UNL     1       7.891   7.919  18.316  0.00  0.00    +0.000 A 
ATOM      6  C   UNL     1       6.746   7.557  17.597  0.00  0.00    +0.000 A 
ENDROOT
BRANCH   5   7
ATOM      7  C   UNL     1       8.460   9.301  18.318  0.00  0.00    +0.000 C 
ATOM      8  O   UNL     1       8.063  10.075  17.453  0.00  0.00    +0.000 OA
ATOM      9  N   UNL     1       9.398   9.597  19.297  0.00  0.00    +0.000 N 
ATOM     10  H   UNL     1       9.738   8.853  19.890  0.00  0.00    +0.000 HD
BRANCH   9  11
ATOM     11  C   UNL     1       9.950  10.873  19.553  0.00  0.00    +0.000 A 
ATOM     12  C   UNL     1      10.892  11.480  18.714  0.00  0.00    +0.000 A 
ATOM     13  C   UNL     1      11.402  12.747  19.011  0.00  0.00    +0.000 A 
ATOM     14  C   UNL     1      10.973  13.406  20.154  0.00  0.00    +0.000 A 
ATOM     15  F   UNL     1      11.470  14.614  20.445  0.00  0.00    +0.000 F 
ATOM     16  C   UNL     1      10.028  12.830  20.993  0.00  0.00    +0.000 A 
ATOM     17  C   UNL     1       9.506  11.568  20.687  0.00  0.00    +0.000 A 
ENDBRANCH   9  11
ENDBRANCH   5   7
BRANCH   1  18
ATOM     18  S   UNL     1       4.868   5.779  16.643  0.00  0.00    +0.000 S 
ATOM     19  O   UNL     1       5.204   4.553  15.952  0.00  0.00    +0.000 OA
ATOM     20  O   UNL     1       4.477   6.964  15.912  0.00  0.00    +0.000 OA
BRANCH  18  22
ATOM     21  C   UNL     1       2.535   6.486  17.786  0.00  0.00    +0.000 C 
ATOM     22  N   UNL     1       3.611   5.451  17.788  0.00  0.00    +0.000 NA
BRANCH  22  23
ATOM     23  C   UNL     1       2.994   4.076  17.648  0.00  0.00    +0.000 C 
ATOM     24  C   UNL     1       3.625   2.980  18.502  0.00  0.00    +0.000 C 
ATOM     25  C   UNL     1       2.559   1.888  18.548  0.00  0.00    +0.000 C 
ATOM     26  C   UNL     1       1.222   2.610  18.460  0.00  0.00    +0.000 C 
ATOM     27  C   UNL     1       1.552   4.070  18.173  0.00  0.00    +0.000 C 
ENDBRANCH  22  23
ENDBRANCH  18  22
ENDBRANCH   1  18
TORSDOF 5
ENDMDL
MODEL 8
REMARK VINA RESULT:      -7.3      5.778      7.201
REMARK  Name = 
REMARK  6 active torsions:
REMARK  status: ('A' for Active; 'I' for Inactive)
REMARK    1  A    between atoms: C_1  and  N_2
REMARK    2  A    between atoms: N_2  and  C_3
REMARK    3  A    between atoms: N_2  and  S_8
REMARK    4  A    between atoms: S_8  and  C_11
REMARK    5  A    between atoms: C_15  and  C_16
REMARK    6  A    between atoms: N_18  and  C_19
REMARK                            x       y       z     vdW  Elec       q    Type
REMARK                         _______ _______ _______ _____ _____    ______ ____
ROOT
ATOM      1  C   UNL     1       4.171   5.594  18.020  0.00  0.00    +0.000 A 
ATOM      2  C   UNL     1       4.396   6.450  16.941  0.00  0.00    +0.000 A 
ATOM      3  C   UNL     1       3.773   7.700  16.918  0.00  0.00    +0.000 A 
ATOM      4  C   UNL     1       2.917   8.074  17.956  0.00  0.00    +0.000 A 
ATOM      5  C   UNL     1       2.658   7.203  19.027  0.00  0.00    +0.000 A 
ATOM      6  C   UNL     1       3.297   5.959  19.059  0.00  0.00    +0.000 A 
ENDROOT
BRANCH   5   7
ATOM      7  C   UNL     1       1.708   7.670  20.082  0.00  0.00    +0.000 C 
ATOM      8  O   UNL     1       1.406   6.870  20.962  0.00  0.00    +0.000 OA
ATOM      9  N   UNL     1       1.239   8.972  19.980  0.00  0.00    +0.000 N 
ATOM     10  H   UNL     1       1.463   9.509  19.154  0.00  0.00    +0.000 HD
BRANCH   9  11
ATOM     11  C   UNL     1       0.448   9.642  20.941  0.00  0.00    +0.000 A 
ATOM     12  C   UNL     1       0.363   9.238  22.278  0.00  0.00    +0.000 A 
ATOM     13  C   UNL     1      -0.429   9.941  23.189  0.00  0.00    +0.000 A 
ATOM     14  C   UNL     1      -1.145  11.049  22.759  0.00  0.00    +0.000 A 
ATOM     15  F   UNL     1      -1.914  11.716  23.628  0.00  0.00    +0.000 F 
ATOM     16  C   UNL     1      -1.066  11.478  21.441  0.00  0.00    +0.000 A 
ATOM     17  C   UNL     1      -0.258  10.783  20.533  0.00  0.00    +0.000 A 
ENDBRANCH   9  11
ENDBRANCH   5   7
BRANCH   1  18
ATOM     18  S   UNL     1       4.904   3.962  18.043  0.00  0.00    +0.000 S 
ATOM     19  O   UNL     1       5.785   3.903  19.190  0.00  0.00    +0.000 OA
ATOM     20  O   UNL     1       5.400   3.708  16.709  0.00  0.00    +0.000 OA
BRANCH  18  22
ATOM     21  C   UNL     1       3.998   1.483  18.569  0.00  0.00    +0.000 C 
ATOM     22  N   UNL     1       3.571   2.889  18.303  0.00  0.00    +0.000 NA
BRANCH  22  23
ATOM     23  C   UNL     1       2.616   3.344  19.385  0.00  0.00    +0.000 C 
ATOM     24  C   UNL     1       1.157   2.941  19.189  0.00  0.00    +0.000 C 
ATOM     25  C   UNL     1       0.545   3.078  20.581  0.00  0.00    +0.000 C 
ATOM     26  C   UNL     1       1.671   2.771  21.559  0.00  0.00    +0.000 C 
ATOM     27  C   UNL     1       2.937   2.658  20.720  0.00  0.00    +0.000 C 
ENDBRANCH  22  23
ENDBRANCH  18  22
ENDBRANCH   1  18
TORSDOF 5
ENDMDL
MODEL 9
REMARK VINA RESULT:      -7.3      4.377      7.235
REMARK  Name = 
REMARK  6 active torsions:
REMARK  status: ('A' for Active; 'I' for Inactive)
REMARK    1  A    between atoms: C_1  and  N_2
REMARK    2  A    between atoms: N_2  and  C_3
REMARK    3  A    between atoms: N_2  and  S_8
REMARK    4  A    between atoms: S_8  and  C_11
REMARK    5  A    between atoms: C_15  and  C_16
REMARK    6  A    between atoms: N_18  and  C_19
REMARK                            x       y       z     vdW  Elec       q    Type
REMARK                         _______ _______ _______ _____ _____    ______ ____
ROOT
ATOM      1  C   UNL     1       5.232   4.622  19.161  0.00  0.00    +0.000 A 
ATOM      2  C   UNL     1       4.943   3.257  19.173  0.00  0.00    +0.000 A 
ATOM      3  C   UNL     1       3.662   2.832  19.528  0.00  0.00    +0.000 A 
ATOM      4  C   UNL     1       2.690   3.768  19.889  0.00  0.00    +0.000 A 
ATOM      5  C   UNL     1       2.983   5.141  19.913  0.00  0.00    +0.000 A 
ATOM      6  C   UNL     1       4.262   5.567  19.539  0.00  0.00    +0.000 A 
ENDROOT
BRANCH   5   7
ATOM      7  C   UNL     1       1.894   6.073  20.337  0.00  0.00    +0.000 C 
ATOM      8  O   UNL     1       0.841   5.573  20.717  0.00  0.00    +0.000 OA
ATOM      9  N   UNL     1       2.161   7.433  20.261  0.00  0.00    +0.000 N 
ATOM     10  H   UNL     1       3.020   7.739  19.827  0.00  0.00    +0.000 HD
BRANCH   9  11
ATOM     11  C   UNL     1       1.323   8.467  20.738  0.00  0.00    +0.000 A 
ATOM     12  C   UNL     1       1.072   8.681  22.098  0.00  0.00    +0.000 A 
ATOM     13  C   UNL     1       0.240   9.722  22.516  0.00  0.00    +0.000 A 
ATOM     14  C   UNL     1      -0.349  10.549  21.569  0.00  0.00    +0.000 A 
ATOM     15  F   UNL     1      -1.156  11.539  21.968  0.00  0.00    +0.000 F 
ATOM     16  C   UNL     1      -0.103  10.365  20.215  0.00  0.00    +0.000 A 
ATOM     17  C   UNL     1       0.744   9.331  19.798  0.00  0.00    +0.000 A 
ENDBRANCH   9  11
ENDBRANCH   5   7
BRANCH   1  18
ATOM     18  S   UNL     1       6.883   5.191  18.772  0.00  0.00    +0.000 S 
ATOM     19  O   UNL     1       7.559   4.113  18.082  0.00  0.00    +0.000 OA
ATOM     20  O   UNL     1       7.427   5.755  19.988  0.00  0.00    +0.000 OA
BRANCH  18  22
ATOM     21  C   UNL     1       7.710   7.544  17.759  0.00  0.00    +0.000 C 
ATOM     22  N   UNL     1       6.645   6.502  17.667  0.00  0.00    +0.000 NA
BRANCH  22  23
ATOM     23  C   UNL     1       6.479   6.070  16.226  0.00  0.00    +0.000 C 
ATOM     24  C   UNL     1       7.353   4.899  15.784  0.00  0.00    +0.000 C 
ATOM     25  C   UNL     1       6.663   4.379  14.525  0.00  0.00    +0.000 C 
ATOM     26  C   UNL     1       5.179   4.659  14.720  0.00  0.00    +0.000 C 
ATOM     27  C   UNL     1       5.074   5.501  15.985  0.00  0.00    +0.000 C 
ENDBRANCH  22  23
ENDBRANCH  18  22
ENDBRANCH   1  18
TORSDOF 5
ENDMDL
