MODEL 1
REMARK VINA RESULT:      -7.1      0.000      0.000
REMARK  Name = 
REMARK  5 active torsions:
REMARK  status: ('A' for Active; 'I' for Inactive)
REMARK    1  A    between atoms: C_5  and  C_6
REMARK    2  A    between atoms: N_8  and  C_9
REMARK    3  A    between atoms: C_9  and  C_10
REMARK    4  A    between atoms: C_10  and  O_11
REMARK    5  A    between atoms: O_11  and  C_12
REMARK                            x       y       z     vdW  Elec       q    Type
REMARK                         _______ _______ _______ _____ _____    ______ ____
ROOT
ATOM      1  C   UNL     1       5.418   5.070  19.107  0.00  0.00    +0.000 C 
ATOM      2  O   UNL     1       5.490   3.847  19.205  0.00  0.00    +0.000 OA
ATOM      3  N   UNL     1       4.304   5.770  19.507  0.00  0.00    +0.000 N 
ATOM      4  H   UNL     1       4.224   6.752  19.273  0.00  0.00    +0.000 HD
ENDROOT
BRANCH   1   9
ATOM      5  O   UNL     1       6.793   4.145  14.873  0.00  0.00    +0.000 OA
ATOM      6  C   UNL     1       6.798   4.763  15.934  0.00  0.00    +0.000 C 
ATOM      7  C   UNL     1       5.873   5.938  16.173  0.00  0.00    +0.000 C 
ATOM      8  C   UNL     1       6.227   6.788  17.387  0.00  0.00    +0.000 C 
ATOM      9  C   UNL     1       6.576   5.926  18.600  0.00  0.00    +0.000 C 
ATOM     10  C   UNL     1       7.765   5.042  18.227  0.00  0.00    +0.000 C 
ATOM     11  N   UNL     1       7.596   4.359  16.961  0.00  0.00    +0.000 N 
ATOM     12  H   UNL     1       8.151   3.535  16.766  0.00  0.00    +0.000 HD
ENDBRANCH   1   9
BRANCH   3  13
ATOM     13  C   UNL     1       3.115   5.054  19.946  0.00  0.00    +0.000 C 
BRANCH  13  14
ATOM     14  C   UNL     1       1.963   5.995  20.274  0.00  0.00    +0.000 C 
BRANCH  14  15
ATOM     15  O   UNL     1       2.364   7.345  20.025  0.00  0.00    +0.000 OA
BRANCH  15  16
ATOM     16  C   UNL     1       1.460   8.317  20.375  0.00  0.00    +0.000 A 
ATOM     17  C   UNL     1       0.927   8.424  21.667  0.00  0.00    +0.000 A 
ATOM     18  C   UNL     1       0.041   9.449  21.986  0.00  0.00    +0.000 A 
ATOM     19  C   UNL     1      -0.322  10.383  21.023  0.00  0.00    +0.000 A 
ATOM     20  C   UNL     1       0.210  10.300  19.731  0.00  0.00    +0.000 A 
ATOM     21 CL   UNL     1      -0.289  11.507  18.598  0.00  0.00    +0.000 Cl
ATOM     22  C   UNL     1       1.104   9.269  19.401  0.00  0.00    +0.000 A 
ATOM     23 CL   UNL     1       1.765   9.148  17.800  0.00  0.00    +0.000 Cl
ENDBRANCH  15  16
ENDBRANCH  14  15
ENDBRANCH  13  14
ENDBRANCH   3  13
TORSDOF 5
ENDMDL
MODEL 2
REMARK VINA RESULT:      -7.1      2.606      4.492
REMARK  Name = 
REMARK  5 active torsions:
REMARK  status: ('A' for Active; 'I' for Inactive)
REMARK    1  A    between atoms: C_5  and  C_6
REMARK    2  A    between atoms: N_8  and  C_9
REMARK    3  A    between atoms: C_9  and  C_10
REMARK    4  A    between atoms: C_10  and  O_11
REMARK    5  A    between atoms: O_11  and  C_12
REMARK                            x       y       z     vdW  Elec       q    Type
REMARK                         _______ _______ _______ _____ _____    ______ ____
ROOT
ATOM      1  C   UNL     1       2.555   3.568  17.594  0.00  0.00    +0.000 C 
ATOM      2  O   UNL     1       1.639   4.297  17.217  0.00  0.00    +0.000 OA
ATOM      3  N   UNL     1       3.871   3.963  17.541  0.00  0.00    +0.000 N 
ATOM      4  H   UNL     1       4.600   3.283  17.718  0.00  0.00    +0.000 HD
ENDROOT
BRANCH   1   9
ATOM      5  O   UNL     1       2.325   3.515  22.135  0.00  0.00    +0.000 OA
ATOM      6  C   UNL     1       2.272   3.019  21.013  0.00  0.00    +0.000 C 
ATOM      7  C   UNL     1       0.990   3.017  20.205  0.00  0.00    +0.000 C 
ATOM      8  C   UNL     1       1.004   2.088  18.997  0.00  0.00    +0.000 C 
ATOM      9  C   UNL     1       2.312   2.195  18.215  0.00  0.00    +0.000 C 
ATOM     10  C   UNL     1       3.458   1.829  19.156  0.00  0.00    +0.000 C 
ATOM     11  N   UNL     1       3.395   2.516  20.429  0.00  0.00    +0.000 N 
ATOM     12  H   UNL     1       4.235   2.595  20.990  0.00  0.00    +0.000 HD
ENDBRANCH   1   9
BRANCH   3  13
ATOM     13  C   UNL     1       4.226   5.225  16.910  0.00  0.00    +0.000 C 
BRANCH  13  14
ATOM     14  C   UNL     1       4.354   6.358  17.919  0.00  0.00    +0.000 C 
BRANCH  14  15
ATOM     15  O   UNL     1       3.267   7.271  17.751  0.00  0.00    +0.000 OA
BRANCH  15  16
ATOM     16  C   UNL     1       2.477   7.480  18.854  0.00  0.00    +0.000 A 
ATOM     17  C   UNL     1       2.341   6.532  19.877  0.00  0.00    +0.000 A 
ATOM     18  C   UNL     1       1.558   6.802  20.995  0.00  0.00    +0.000 A 
ATOM     19  C   UNL     1       0.903   8.022  21.110  0.00  0.00    +0.000 A 
ATOM     20  C   UNL     1       1.038   8.988  20.105  0.00  0.00    +0.000 A 
ATOM     21 CL   UNL     1       0.197  10.482  20.333  0.00  0.00    +0.000 Cl
ATOM     22  C   UNL     1       1.826   8.723  18.974  0.00  0.00    +0.000 A 
ATOM     23 CL   UNL     1       1.996   9.906  17.715  0.00  0.00    +0.000 Cl
ENDBRANCH  15  16
ENDBRANCH  14  15
ENDBRANCH  13  14
ENDBRANCH   3  13
TORSDOF 5
ENDMDL
MODEL 3
REMARK VINA RESULT:      -7.1      5.370      7.376
REMARK  Name = 
REMARK  5 active torsions:
REMARK  status: ('A' for Active; 'I' for Inactive)
REMARK    1  A    between atoms: C_5  and  C_6
REMARK    2  A    between atoms: N_8  and  C_9
REMARK    3  A    between atoms: C_9  and  C_10
REMARK    4  A    between atoms: C_10  and  O_11
REMARK    5  A    between atoms: O_11  and  C_12
REMARK                            x       y       z     vdW  Elec       q    Type
REMARK                         _______ _______ _______ _____ _____    ______ ____
ROOT
ATOM      1  C   UNL     1       6.721   6.262  16.977  0.00  0.00    +0.000 C 
ATOM      2  O   UNL     1       7.593   5.420  17.180  0.00  0.00    +0.000 OA
ATOM      3  N   UNL     1       6.921   7.598  17.235  0.00  0.00    +0.000 N 
ATOM      4  H   UNL     1       6.135   8.234  17.198  0.00  0.00    +0.000 HD
ENDROOT
BRANCH   1   9
ATOM      5  O   UNL     1       4.407   2.987  19.122  0.00  0.00    +0.000 OA
ATOM      6  C   UNL     1       4.574   3.854  18.269  0.00  0.00    +0.000 C 
ATOM      7  C   UNL     1       4.222   5.305  18.530  0.00  0.00    +0.000 C 
ATOM      8  C   UNL     1       4.179   6.180  17.284  0.00  0.00    +0.000 C 
ATOM      9  C   UNL     1       5.368   5.915  16.362  0.00  0.00    +0.000 C 
ATOM     10  C   UNL     1       5.332   4.442  15.955  0.00  0.00    +0.000 C 
ATOM     11  N   UNL     1       5.155   3.543  17.076  0.00  0.00    +0.000 N 
ATOM     12  H   UNL     1       5.422   2.571  16.978  0.00  0.00    +0.000 HD
ENDBRANCH   1   9
BRANCH   3  13
ATOM     13  C   UNL     1       8.148   8.036  17.883  0.00  0.00    +0.000 C 
BRANCH  13  14
ATOM     14  C   UNL     1       8.210   9.550  18.036  0.00  0.00    +0.000 C 
BRANCH  14  15
ATOM     15  O   UNL     1       9.073   9.885  19.125  0.00  0.00    +0.000 OA
BRANCH  15  16
ATOM     16  C   UNL     1       9.777  11.058  18.999  0.00  0.00    +0.000 A 
ATOM     17  C   UNL     1      10.462  11.407  17.828  0.00  0.00    +0.000 A 
ATOM     18  C   UNL     1      11.131  12.623  17.733  0.00  0.00    +0.000 A 
ATOM     19  C   UNL     1      11.125  13.509  18.804  0.00  0.00    +0.000 A 
ATOM     20  C   UNL     1      10.435  13.183  19.978  0.00  0.00    +0.000 A 
ATOM     21 CL   UNL     1      10.471  14.346  21.258  0.00  0.00    +0.000 Cl
ATOM     22  C   UNL     1       9.757  11.958  20.082  0.00  0.00    +0.000 A 
ATOM     23 CL   UNL     1       8.905  11.536  21.534  0.00  0.00    +0.000 Cl
ENDBRANCH  15  16
ENDBRANCH  14  15
ENDBRANCH  13  14
ENDBRANCH   3  13
TORSDOF 5
ENDMDL
MODEL 4
REMARK VINA RESULT:      -7.0      1.292      1.796
REMARK  Name = 
REMARK  5 active torsions:
REMARK  status: ('A' for Active; 'I' for Inactive)
REMARK    1  A    between atoms: C_5  and  C_6
REMARK    2  A    between atoms: N_8  and  C_9
REMARK    3  A    between atoms: C_9  and  C_10
REMARK    4  A    between atoms: C_10  and  O_11
REMARK    5  A    between atoms: O_11  and  C_12
REMARK                            x       y       z     vdW  Elec       q    Type
REMARK                         _______ _______ _______ _____ _____    ______ ____
ROOT
ATOM      1  C   UNL     1       5.392   4.985  18.975  0.00  0.00    +0.000 C 
ATOM      2  O   UNL     1       5.603   3.827  19.331  0.00  0.00    +0.000 OA
ATOM      3  N   UNL     1       4.182   5.604  19.182  0.00  0.00    +0.000 N 
ATOM      4  H   UNL     1       4.000   6.498  18.743  0.00  0.00    +0.000 HD
ENDROOT
BRANCH   1   9
ATOM      5  O   UNL     1       6.466   3.903  14.691  0.00  0.00    +0.000 OA
ATOM      6  C   UNL     1       6.529   4.574  15.718  0.00  0.00    +0.000 C 
ATOM      7  C   UNL     1       5.575   5.722  15.977  0.00  0.00    +0.000 C 
ATOM      8  C   UNL     1       5.988   6.645  17.117  0.00  0.00    +0.000 C 
ATOM      9  C   UNL     1       6.468   5.859  18.337  0.00  0.00    +0.000 C 
ATOM     10  C   UNL     1       7.661   5.005  17.910  0.00  0.00    +0.000 C 
ATOM     11  N   UNL     1       7.422   4.253  16.695  0.00  0.00    +0.000 N 
ATOM     12  H   UNL     1       7.995   3.443  16.494  0.00  0.00    +0.000 HD
ENDBRANCH   1   9
BRANCH   3  13
ATOM     13  C   UNL     1       3.062   4.848  19.724  0.00  0.00    +0.000 C 
BRANCH  13  14
ATOM     14  C   UNL     1       1.955   5.753  20.247  0.00  0.00    +0.000 C 
BRANCH  14  15
ATOM     15  O   UNL     1       2.471   7.069  20.454  0.00  0.00    +0.000 OA
BRANCH  15  16
ATOM     16  C   UNL     1       1.858   8.076  19.750  0.00  0.00    +0.000 A 
ATOM     17  C   UNL     1       1.970   8.202  18.359  0.00  0.00    +0.000 A 
ATOM     18  C   UNL     1       1.301   9.218  17.683  0.00  0.00    +0.000 A 
ATOM     19  C   UNL     1       0.509  10.120  18.385  0.00  0.00    +0.000 A 
ATOM     20  C   UNL     1       0.376  10.003  19.773  0.00  0.00    +0.000 A 
ATOM     21 CL   UNL     1      -0.635  11.161  20.566  0.00  0.00    +0.000 Cl
ATOM     22  C   UNL     1       1.048   8.981  20.462  0.00  0.00    +0.000 A 
ATOM     23 CL   UNL     1       0.899   8.827  22.186  0.00  0.00    +0.000 Cl
ENDBRANCH  15  16
ENDBRANCH  14  15
ENDBRANCH  13  14
ENDBRANCH   3  13
TORSDOF 5
ENDMDL
MODEL 5
REMARK VINA RESULT:      -6.9      2.675      3.631
REMARK  Name = 
REMARK  5 active torsions:
REMARK  status: ('A' for Active; 'I' for Inactive)
REMARK    1  A    between atoms: C_5  and  C_6
REMARK    2  A    between atoms: N_8  and  C_9
REMARK    3  A    between atoms: C_9  and  C_10
REMARK    4  A    between atoms: C_10  and  O_11
REMARK    5  A    between atoms: O_11  and  C_12
REMARK                            x       y       z     vdW  Elec       q    Type
REMARK                         _______ _______ _______ _____ _____    ______ ____
ROOT
ATOM      1  C   UNL     1       6.118   4.752  19.041  0.00  0.00    +0.000 C 
ATOM      2  O   UNL     1       5.516   5.500  19.808  0.00  0.00    +0.000 OA
ATOM      3  N   UNL     1       5.685   3.474  18.777  0.00  0.00    +0.000 N 
ATOM      4  H   UNL     1       6.286   2.843  18.261  0.00  0.00    +0.000 HD
ENDROOT
BRANCH   1   9
ATOM      5  O   UNL     1       5.274   6.803  15.071  0.00  0.00    +0.000 OA
ATOM      6  C   UNL     1       5.990   6.385  15.977  0.00  0.00    +0.000 C 
ATOM      7  C   UNL     1       6.305   7.228  17.195  0.00  0.00    +0.000 C 
ATOM      8  C   UNL     1       7.451   6.703  18.050  0.00  0.00    +0.000 C 
ATOM      9  C   UNL     1       7.356   5.193  18.263  0.00  0.00    +0.000 C 
ATOM     10  C   UNL     1       7.388   4.519  16.892  0.00  0.00    +0.000 C 
ATOM     11  N   UNL     1       6.468   5.110  15.942  0.00  0.00    +0.000 N 
ATOM     12  H   UNL     1       6.181   4.572  15.133  0.00  0.00    +0.000 HD
ENDBRANCH   1   9
BRANCH   3  13
ATOM     13  C   UNL     1       4.554   2.924  19.509  0.00  0.00    +0.000 C 
BRANCH  13  14
ATOM     14  C   UNL     1       3.444   2.446  18.582  0.00  0.00    +0.000 C 
BRANCH  14  15
ATOM     15  O   UNL     1       2.246   3.175  18.857  0.00  0.00    +0.000 OA
BRANCH  15  16
ATOM     16  C   UNL     1       2.345   4.543  18.803  0.00  0.00    +0.000 A 
ATOM     17  C   UNL     1       2.724   5.228  17.641  0.00  0.00    +0.000 A 
ATOM     18  C   UNL     1       2.776   6.619  17.622  0.00  0.00    +0.000 A 
ATOM     19  C   UNL     1       2.447   7.345  18.761  0.00  0.00    +0.000 A 
ATOM     20  C   UNL     1       2.054   6.679  19.927  0.00  0.00    +0.000 A 
ATOM     21 CL   UNL     1       1.654   7.659  21.295  0.00  0.00    +0.000 Cl
ATOM     22  C   UNL     1       2.000   5.276  19.954  0.00  0.00    +0.000 A 
ATOM     23 CL   UNL     1       1.522   4.434  21.396  0.00  0.00    +0.000 Cl
ENDBRANCH  15  16
ENDBRANCH  14  15
ENDBRANCH  13  14
ENDBRANCH   3  13
TORSDOF 5
ENDMDL
MODEL 6
REMARK VINA RESULT:      -6.9      5.567      7.261
REMARK  Name = 
REMARK  5 active torsions:
REMARK  status: ('A' for Active; 'I' for Inactive)
REMARK    1  A    between atoms: C_5  and  C_6
REMARK    2  A    between atoms: N_8  and  C_9
REMARK    3  A    between atoms: C_9  and  C_10
REMARK    4  A    between atoms: C_10  and  O_11
REMARK    5  A    between atoms: O_11  and  C_12
REMARK                            x       y       z     vdW  Elec       q    Type
REMARK                         _______ _______ _______ _____ _____    ______ ____
ROOT
ATOM      1  C   UNL     1       6.726   6.471  17.038  0.00  0.00    +0.000 C 
ATOM      2  O   UNL     1       7.690   5.708  17.028  0.00  0.00    +0.000 OA
ATOM      3  N   UNL     1       6.850   7.800  17.368  0.00  0.00    +0.000 N 
ATOM      4  H   UNL     1       6.016   8.356  17.511  0.00  0.00    +0.000 HD
ENDROOT
BRANCH   1   9
ATOM      5  O   UNL     1       4.908   3.162  19.574  0.00  0.00    +0.000 OA
ATOM      6  C   UNL     1       4.911   4.005  18.681  0.00  0.00    +0.000 C 
ATOM      7  C   UNL     1       4.517   5.444  18.945  0.00  0.00    +0.000 C 
ATOM      8  C   UNL     1       4.257   6.270  17.692  0.00  0.00    +0.000 C 
ATOM      9  C   UNL     1       5.324   6.032  16.624  0.00  0.00    +0.000 C 
ATOM     10  C   UNL     1       5.315   4.547  16.269  0.00  0.00    +0.000 C 
ATOM     11  N   UNL     1       5.342   3.681  17.430  0.00  0.00    +0.000 N 
ATOM     12  H   UNL     1       5.647   2.721  17.324  0.00  0.00    +0.000 HD
ENDBRANCH   1   9
BRANCH   3  13
ATOM     13  C   UNL     1       8.126   8.315  17.842  0.00  0.00    +0.000 C 
BRANCH  13  14
ATOM     14  C   UNL     1       8.130   9.834  17.954  0.00  0.00    +0.000 C 
BRANCH  14  15
ATOM     15  O   UNL     1       9.474  10.299  18.090  0.00  0.00    +0.000 OA
BRANCH  15  16
ATOM     16  C   UNL     1       9.698  11.214  19.089  0.00  0.00    +0.000 A 
ATOM     17  C   UNL     1       9.306  10.995  20.417  0.00  0.00    +0.000 A 
ATOM     18  C   UNL     1       9.587  11.936  21.403  0.00  0.00    +0.000 A 
ATOM     19  C   UNL     1      10.265  13.106  21.080  0.00  0.00    +0.000 A 
ATOM     20  C   UNL     1      10.676  13.336  19.762  0.00  0.00    +0.000 A 
ATOM     21 CL   UNL     1      11.522  14.811  19.450  0.00  0.00    +0.000 Cl
ATOM     22  C   UNL     1      10.396  12.392  18.761  0.00  0.00    +0.000 A 
ATOM     23 CL   UNL     1      10.892  12.667  17.120  0.00  0.00    +0.000 Cl
ENDBRANCH  15  16
ENDBRANCH  14  15
ENDBRANCH  13  14
ENDBRANCH   3  13
TORSDOF 5
ENDMDL
MODEL 7
REMARK VINA RESULT:      -6.9      6.136      7.906
REMARK  Name = 
REMARK  5 active torsions:
REMARK  status: ('A' for Active; 'I' for Inactive)
REMARK    1  A    between atoms: C_5  and  C_6
REMARK    2  A    between atoms: N_8  and  C_9
REMARK    3  A    between atoms: C_9  and  C_10
REMARK    4  A    between atoms: C_10  and  O_11
REMARK    5  A    between atoms: O_11  and  C_12
REMARK                            x       y       z     vdW  Elec       q    Type
REMARK                         _______ _______ _______ _____ _____    ______ ____
ROOT
ATOM      1  C   UNL     1       7.647   7.079  17.823  0.00  0.00    +0.000 C 
ATOM      2  O   UNL     1       8.113   6.567  18.839  0.00  0.00    +0.000 OA
ATOM      3  N   UNL     1       7.841   8.407  17.520  0.00  0.00    +0.000 N 
ATOM      4  H   UNL     1       7.320   8.823  16.759  0.00  0.00    +0.000 HD
ENDROOT
BRANCH   1   9
ATOM      5  O   UNL     1       5.136   3.665  19.471  0.00  0.00    +0.000 OA
ATOM      6  C   UNL     1       5.570   4.402  18.589  0.00  0.00    +0.000 C 
ATOM      7  C   UNL     1       4.902   5.720  18.255  0.00  0.00    +0.000 C 
ATOM      8  C   UNL     1       5.356   6.346  16.943  0.00  0.00    +0.000 C 
ATOM      9  C   UNL     1       6.874   6.280  16.777  0.00  0.00    +0.000 C 
ATOM     10  C   UNL     1       7.291   4.811  16.817  0.00  0.00    +0.000 C 
ATOM     11  N   UNL     1       6.718   4.083  17.929  0.00  0.00    +0.000 N 
ATOM     12  H   UNL     1       7.154   3.220  18.232  0.00  0.00    +0.000 HD
ENDBRANCH   1   9
BRANCH   3  13
ATOM     13  C   UNL     1       8.507   9.280  18.475  0.00  0.00    +0.000 C 
BRANCH  13  14
ATOM     14  C   UNL     1       8.929  10.603  17.850  0.00  0.00    +0.000 C 
BRANCH  14  15
ATOM     15  O   UNL     1      10.210  10.984  18.356  0.00  0.00    +0.000 OA
BRANCH  15  16
ATOM     16  C   UNL     1      10.465  12.332  18.402  0.00  0.00    +0.000 A 
ATOM     17  C   UNL     1      10.677  13.101  17.250  0.00  0.00    +0.000 A 
ATOM     18  C   UNL     1      10.896  14.472  17.343  0.00  0.00    +0.000 A 
ATOM     19  C   UNL     1      10.903  15.096  18.585  0.00  0.00    +0.000 A 
ATOM     20  C   UNL     1      10.680  14.346  19.746  0.00  0.00    +0.000 A 
ATOM     21 CL   UNL     1      10.695  15.203  21.248  0.00  0.00    +0.000 Cl
ATOM     22  C   UNL     1      10.458  12.963  19.661  0.00  0.00    +0.000 A 
ATOM     23 CL   UNL     1      10.189  12.018  21.093  0.00  0.00    +0.000 Cl
ENDBRANCH  15  16
ENDBRANCH  14  15
ENDBRANCH  13  14
ENDBRANCH   3  13
TORSDOF 5
ENDMDL
MODEL 8
REMARK VINA RESULT:      -6.8      5.969      7.841
REMARK  Name = 
REMARK  5 active torsions:
REMARK  status: ('A' for Active; 'I' for Inactive)
REMARK    1  A    between atoms: C_5  and  C_6
REMARK    2  A    between atoms: N_8  and  C_9
REMARK    3  A    between atoms: C_9  and  C_10
REMARK    4  A    between atoms: C_10  and  O_11
REMARK    5  A    between atoms: O_11  and  C_12
REMARK                            x       y       z     vdW  Elec       q    Type
REMARK                         _______ _______ _______ _____ _____    ______ ____
ROOT
ATOM      1  C   UNL     1       7.715   7.038  17.864  0.00  0.00    +0.000 C 
ATOM      2  O   UNL     1       8.158   6.613  18.929  0.00  0.00    +0.000 OA
ATOM      3  N   UNL     1       7.822   8.361  17.503  0.00  0.00    +0.000 N 
ATOM      4  H   UNL     1       7.316   8.697  16.694  0.00  0.00    +0.000 HD
ENDROOT
BRANCH   1   9
ATOM      5  O   UNL     1       4.618   4.128  19.483  0.00  0.00    +0.000 OA
ATOM      6  C   UNL     1       5.276   4.676  18.603  0.00  0.00    +0.000 C 
ATOM      7  C   UNL     1       4.816   5.962  17.949  0.00  0.00    +0.000 C 
ATOM      8  C   UNL     1       5.562   6.327  16.671  0.00  0.00    +0.000 C 
ATOM      9  C   UNL     1       7.070   6.130  16.819  0.00  0.00    +0.000 C 
ATOM     10  C   UNL     1       7.325   4.663  17.161  0.00  0.00    +0.000 C 
ATOM     11  N   UNL     1       6.489   4.173  18.237  0.00  0.00    +0.000 N 
ATOM     12  H   UNL     1       6.773   3.344  18.746  0.00  0.00    +0.000 HD
ENDBRANCH   1   9
BRANCH   3  13
ATOM     13  C   UNL     1       8.361   9.329  18.447  0.00  0.00    +0.000 C 
BRANCH  13  14
ATOM     14  C   UNL     1       9.202  10.397  17.760  0.00  0.00    +0.000 C 
BRANCH  14  15
ATOM     15  O   UNL     1       9.280  11.554  18.596  0.00  0.00    +0.000 OA
BRANCH  15  16
ATOM     16  C   UNL     1      10.001  12.611  18.098  0.00  0.00    +0.000 A 
ATOM     17  C   UNL     1      11.194  12.443  17.382  0.00  0.00    +0.000 A 
ATOM     18  C   UNL     1      11.871  13.542  16.865  0.00  0.00    +0.000 A 
ATOM     19  C   UNL     1      11.367  14.824  17.050  0.00  0.00    +0.000 A 
ATOM     20  C   UNL     1      10.169  15.011  17.751  0.00  0.00    +0.000 A 
ATOM     21 CL   UNL     1       9.608  16.637  17.927  0.00  0.00    +0.000 Cl
ATOM     22  C   UNL     1       9.480  13.907  18.277  0.00  0.00    +0.000 A 
ATOM     23 CL   UNL     1       7.998  14.123  19.156  0.00  0.00    +0.000 Cl
ENDBRANCH  15  16
ENDBRANCH  14  15
ENDBRANCH  13  14
ENDBRANCH   3  13
TORSDOF 5
ENDMDL
MODEL 9
REMARK VINA RESULT:      -6.8      1.275      1.611
REMARK  Name = 
REMARK  5 active torsions:
REMARK  status: ('A' for Active; 'I' for Inactive)
REMARK    1  A    between atoms: C_5  and  C_6
REMARK    2  A    between atoms: N_8  and  C_9
REMARK    3  A    between atoms: C_9  and  C_10
REMARK    4  A    between atoms: C_10  and  O_11
REMARK    5  A    between atoms: O_11  and  C_12
REMARK                            x       y       z     vdW  Elec       q    Type
REMARK                         _______ _______ _______ _____ _____    ______ ____
ROOT
ATOM      1  C   UNL     1       3.978   5.414  17.561  0.00  0.00    +0.000 C 
ATOM      2  O   UNL     1       3.220   4.502  17.235  0.00  0.00    +0.000 OA
ATOM      3  N   UNL     1       4.107   5.825  18.867  0.00  0.00    +0.000 N 
ATOM      4  H   UNL     1       4.623   6.671  19.073  0.00  0.00    +0.000 HD
ENDROOT
BRANCH   1   9
ATOM      5  O   UNL     1       8.329   4.094  17.650  0.00  0.00    +0.000 OA
ATOM      6  C   UNL     1       7.369   4.732  17.228  0.00  0.00    +0.000 C 
ATOM      7  C   UNL     1       6.444   4.169  16.168  0.00  0.00    +0.000 C 
ATOM      8  C   UNL     1       5.518   5.193  15.525  0.00  0.00    +0.000 C 
ATOM      9  C   UNL     1       4.891   6.123  16.564  0.00  0.00    +0.000 C 
ATOM     10  C   UNL     1       6.021   6.842  17.298  0.00  0.00    +0.000 C 
ATOM     11  N   UNL     1       7.064   5.950  17.758  0.00  0.00    +0.000 N 
ATOM     12  H   UNL     1       7.682   6.252  18.502  0.00  0.00    +0.000 HD
ENDBRANCH   1   9
BRANCH   3  13
ATOM     13  C   UNL     1       3.240   5.265  19.893  0.00  0.00    +0.000 C 
BRANCH  13  14
ATOM     14  C   UNL     1       2.023   6.142  20.161  0.00  0.00    +0.000 C 
BRANCH  14  15
ATOM     15  O   UNL     1       2.364   7.512  19.942  0.00  0.00    +0.000 OA
BRANCH  15  16
ATOM     16  C   UNL     1       1.423   8.437  20.324  0.00  0.00    +0.000 A 
ATOM     17  C   UNL     1       0.890   8.483  21.619  0.00  0.00    +0.000 A 
ATOM     18  C   UNL     1      -0.035   9.461  21.970  0.00  0.00    +0.000 A 
ATOM     19  C   UNL     1      -0.437  10.409  21.037  0.00  0.00    +0.000 A 
ATOM     20  C   UNL     1       0.095  10.388  19.742  0.00  0.00    +0.000 A 
ATOM     21 CL   UNL     1      -0.453  11.609  18.648  0.00  0.00    +0.000 Cl
ATOM     22  C   UNL     1       1.028   9.404  19.380  0.00  0.00    +0.000 A 
ATOM     23 CL   UNL     1       1.690   9.358  17.775  0.00  0.00    +0.000 Cl
ENDBRANCH  15  16
ENDBRANCH  14  15
ENDBRANCH  13  14
ENDBRANCH   3  13
TORSDOF 5
ENDMDL
