MODEL 1
REMARK VINA RESULT:      -7.2      0.000      0.000
REMARK  Name = 
REMARK  3 active torsions:
REMARK  status: ('A' for Active; 'I' for Inactive)
REMARK    1  A    between atoms: C_1  and  S_2
REMARK    2  A    between atoms: S_2  and  C_3
REMARK    3  A    between atoms: C_8  and  C_10
REMARK                            x       y       z     vdW  Elec       q    Type
REMARK                         _______ _______ _______ _____ _____    ______ ____
ROOT
ATOM      1  C   UNL     1       6.959   5.543  17.180  0.00  0.00    +0.000 C 
ATOM      2  N   UNL     1       7.459   5.494  15.983  0.00  0.00    +0.000 NA
ATOM      3  C   UNL     1       6.500   4.735  15.176  0.00  0.00    +0.000 C 
ATOM      4  C   UNL     1       5.526   4.136  16.167  0.00  0.00    +0.000 C 
ATOM      5  N   UNL     1       5.755   4.850  17.399  0.00  0.00    +0.000 N 
ATOM      6  C   UNL     1       4.967   4.784  18.570  0.00  0.00    +0.000 C 
ATOM      7  O   UNL     1       5.254   5.388  19.602  0.00  0.00    +0.000 OA
ENDROOT
BRANCH   6   8
ATOM      8  C   UNL     1       3.701   3.981  18.632  0.00  0.00    +0.000 A 
ATOM      9  C   UNL     1       3.696   2.661  19.088  0.00  0.00    +0.000 A 
ATOM     10  F   UNL     1       4.809   2.077  19.546  0.00  0.00    +0.000 F 
ATOM     11  C   UNL     1       2.531   1.892  19.154  0.00  0.00    +0.000 A 
ATOM     12  C   UNL     1       1.302   2.470  18.875  0.00  0.00    +0.000 A 
ATOM     13  C   UNL     1       1.256   3.812  18.510  0.00  0.00    +0.000 A 
ATOM     14  C   UNL     1       2.439   4.561  18.365  0.00  0.00    +0.000 A 
ATOM     15 CL   UNL     1       2.217   6.200  17.853  0.00  0.00    +0.000 Cl
ENDBRANCH   6   8
BRANCH   1  17
ATOM     16  C   UNL     1       7.830   8.074  17.705  0.00  0.00    +0.000 C 
ATOM     17  S   UNL     1       7.769   6.422  18.434  0.00  0.00    +0.000 S 
ENDBRANCH   1  17
TORSDOF 2
ENDMDL
MODEL 2
REMARK VINA RESULT:      -7.1      1.890      2.462
REMARK  Name = 
REMARK  3 active torsions:
REMARK  status: ('A' for Active; 'I' for Inactive)
REMARK    1  A    between atoms: C_1  and  S_2
REMARK    2  A    between atoms: S_2  and  C_3
REMARK    3  A    between atoms: C_8  and  C_10
REMARK                            x       y       z     vdW  Elec       q    Type
REMARK                         _______ _______ _______ _____ _____    ______ ____
ROOT
ATOM      1  C   UNL     1       6.684   4.668  17.207  0.00  0.00    +0.000 C 
ATOM      2  N   UNL     1       7.730   5.343  17.577  0.00  0.00    +0.000 NA
ATOM      3  C   UNL     1       7.522   5.662  18.993  0.00  0.00    +0.000 C 
ATOM      4  C   UNL     1       6.081   5.298  19.280  0.00  0.00    +0.000 C 
ATOM      5  N   UNL     1       5.667   4.489  18.161  0.00  0.00    +0.000 N 
ATOM      6  C   UNL     1       4.464   3.755  18.052  0.00  0.00    +0.000 C 
ATOM      7  O   UNL     1       4.159   3.123  17.042  0.00  0.00    +0.000 OA
ENDROOT
BRANCH   6   8
ATOM      8  C   UNL     1       3.477   3.676  19.178  0.00  0.00    +0.000 A 
ATOM      9  C   UNL     1       3.607   2.730  20.198  0.00  0.00    +0.000 A 
ATOM     10  F   UNL     1       4.652   1.897  20.246  0.00  0.00    +0.000 F 
ATOM     11  C   UNL     1       2.700   2.635  21.257  0.00  0.00    +0.000 A 
ATOM     12  C   UNL     1       1.689   3.575  21.391  0.00  0.00    +0.000 A 
ATOM     13  C   UNL     1       1.586   4.592  20.445  0.00  0.00    +0.000 A 
ATOM     14  C   UNL     1       2.450   4.636  19.336  0.00  0.00    +0.000 A 
ATOM     15 CL   UNL     1       2.157   5.930  18.223  0.00  0.00    +0.000 Cl
ENDBRANCH   6   8
BRANCH   1  17
ATOM     16  C   UNL     1       5.620   5.343  14.788  0.00  0.00    +0.000 C 
ATOM     17  S   UNL     1       6.573   4.038  15.597  0.00  0.00    +0.000 S 
ENDBRANCH   1  17
TORSDOF 2
ENDMDL
MODEL 3
REMARK VINA RESULT:      -7.1      2.606      3.242
REMARK  Name = 
REMARK  3 active torsions:
REMARK  status: ('A' for Active; 'I' for Inactive)
REMARK    1  A    between atoms: C_1  and  S_2
REMARK    2  A    between atoms: S_2  and  C_3
REMARK    3  A    between atoms: C_8  and  C_10
REMARK                            x       y       z     vdW  Elec       q    Type
REMARK                         _______ _______ _______ _____ _____    ______ ____
ROOT
ATOM      1  C   UNL     1       6.393   4.517  17.016  0.00  0.00    +0.000 C 
ATOM      2  N   UNL     1       7.471   5.177  17.313  0.00  0.00    +0.000 NA
ATOM      3  C   UNL     1       7.351   5.528  18.730  0.00  0.00    +0.000 C 
ATOM      4  C   UNL     1       5.921   5.201  19.106  0.00  0.00    +0.000 C 
ATOM      5  N   UNL     1       5.428   4.378  18.029  0.00  0.00    +0.000 N 
ATOM      6  C   UNL     1       4.207   3.668  18.004  0.00  0.00    +0.000 C 
ATOM      7  O   UNL     1       3.832   3.023  17.026  0.00  0.00    +0.000 OA
ENDROOT
BRANCH   6   8
ATOM      8  C   UNL     1       3.283   3.632  19.185  0.00  0.00    +0.000 A 
ATOM      9  C   UNL     1       2.091   4.361  19.202  0.00  0.00    +0.000 A 
ATOM     10  F   UNL     1       1.695   5.073  18.141  0.00  0.00    +0.000 F 
ATOM     11  C   UNL     1       1.215   4.346  20.290  0.00  0.00    +0.000 A 
ATOM     12  C   UNL     1       1.451   3.495  21.359  0.00  0.00    +0.000 A 
ATOM     13  C   UNL     1       2.580   2.680  21.334  0.00  0.00    +0.000 A 
ATOM     14  C   UNL     1       3.503   2.758  20.275  0.00  0.00    +0.000 A 
ATOM     15 CL   UNL     1       4.881   1.719  20.419  0.00  0.00    +0.000 Cl
ENDBRANCH   6   8
BRANCH   1  17
ATOM     16  C   UNL     1       7.124   5.038  14.441  0.00  0.00    +0.000 C 
ATOM     17  S   UNL     1       6.178   3.858  15.429  0.00  0.00    +0.000 S 
ENDBRANCH   1  17
TORSDOF 2
ENDMDL
MODEL 4
REMARK VINA RESULT:      -7.0      1.778      2.117
REMARK  Name = 
REMARK  3 active torsions:
REMARK  status: ('A' for Active; 'I' for Inactive)
REMARK    1  A    between atoms: C_1  and  S_2
REMARK    2  A    between atoms: S_2  and  C_3
REMARK    3  A    between atoms: C_8  and  C_10
REMARK                            x       y       z     vdW  Elec       q    Type
REMARK                         _______ _______ _______ _____ _____    ______ ____
ROOT
ATOM      1  C   UNL     1       6.845   5.420  17.236  0.00  0.00    +0.000 C 
ATOM      2  N   UNL     1       7.336   5.327  16.038  0.00  0.00    +0.000 NA
ATOM      3  C   UNL     1       6.341   4.595  15.250  0.00  0.00    +0.000 C 
ATOM      4  C   UNL     1       5.347   4.057  16.257  0.00  0.00    +0.000 C 
ATOM      5  N   UNL     1       5.613   4.783  17.474  0.00  0.00    +0.000 N 
ATOM      6  C   UNL     1       4.830   4.773  18.650  0.00  0.00    +0.000 C 
ATOM      7  O   UNL     1       5.149   5.385  19.668  0.00  0.00    +0.000 OA
ENDROOT
BRANCH   6   8
ATOM      8  C   UNL     1       3.532   4.027  18.733  0.00  0.00    +0.000 A 
ATOM      9  C   UNL     1       2.366   4.522  18.142  0.00  0.00    +0.000 A 
ATOM     10  F   UNL     1       2.374   5.651  17.425  0.00  0.00    +0.000 F 
ATOM     11  C   UNL     1       1.144   3.846  18.207  0.00  0.00    +0.000 A 
ATOM     12  C   UNL     1       1.080   2.581  18.771  0.00  0.00    +0.000 A 
ATOM     13  C   UNL     1       2.243   2.013  19.284  0.00  0.00    +0.000 A 
ATOM     14  C   UNL     1       3.454   2.730  19.291  0.00  0.00    +0.000 A 
ATOM     15 CL   UNL     1       4.795   1.906  20.013  0.00  0.00    +0.000 Cl
ENDBRANCH   6   8
BRANCH   1  17
ATOM     16  C   UNL     1       7.811   7.925  17.715  0.00  0.00    +0.000 C 
ATOM     17  S   UNL     1       7.699   6.287  18.469  0.00  0.00    +0.000 S 
ENDBRANCH   1  17
TORSDOF 2
ENDMDL
MODEL 5
REMARK VINA RESULT:      -6.8      2.499      3.181
REMARK  Name = 
REMARK  3 active torsions:
REMARK  status: ('A' for Active; 'I' for Inactive)
REMARK    1  A    between atoms: C_1  and  S_2
REMARK    2  A    between atoms: S_2  and  C_3
REMARK    3  A    between atoms: C_8  and  C_10
REMARK                            x       y       z     vdW  Elec       q    Type
REMARK                         _______ _______ _______ _____ _____    ______ ____
ROOT
ATOM      1  C   UNL     1       6.227   5.375  16.854  0.00  0.00    +0.000 C 
ATOM      2  N   UNL     1       7.446   5.714  17.146  0.00  0.00    +0.000 NA
ATOM      3  C   UNL     1       7.594   5.483  18.585  0.00  0.00    +0.000 C 
ATOM      4  C   UNL     1       6.194   5.224  19.098  0.00  0.00    +0.000 C 
ATOM      5  N   UNL     1       5.402   4.972  17.919  0.00  0.00    +0.000 N 
ATOM      6  C   UNL     1       4.071   4.498  17.884  0.00  0.00    +0.000 C 
ATOM      7  O   UNL     1       3.444   4.353  16.837  0.00  0.00    +0.000 OA
ENDROOT
BRANCH   6   8
ATOM      8  C   UNL     1       3.331   4.116  19.131  0.00  0.00    +0.000 A 
ATOM      9  C   UNL     1       2.769   5.081  19.971  0.00  0.00    +0.000 A 
ATOM     10  F   UNL     1       2.816   6.382  19.666  0.00  0.00    +0.000 F 
ATOM     11  C   UNL     1       2.075   4.750  21.139  0.00  0.00    +0.000 A 
ATOM     12  C   UNL     1       1.818   3.422  21.439  0.00  0.00    +0.000 A 
ATOM     13  C   UNL     1       2.278   2.433  20.574  0.00  0.00    +0.000 A 
ATOM     14  C   UNL     1       3.047   2.766  19.443  0.00  0.00    +0.000 A 
ATOM     15 CL   UNL     1       3.589   1.420  18.498  0.00  0.00    +0.000 Cl
ENDBRANCH   6   8
BRANCH   1  17
ATOM     16  C   UNL     1       6.383   3.917  14.555  0.00  0.00    +0.000 C 
ATOM     17  S   UNL     1       5.668   5.439  15.216  0.00  0.00    +0.000 S 
ENDBRANCH   1  17
TORSDOF 2
ENDMDL
MODEL 6
REMARK VINA RESULT:      -6.8      2.067      2.579
REMARK  Name = 
REMARK  3 active torsions:
REMARK  status: ('A' for Active; 'I' for Inactive)
REMARK    1  A    between atoms: C_1  and  S_2
REMARK    2  A    between atoms: S_2  and  C_3
REMARK    3  A    between atoms: C_8  and  C_10
REMARK                            x       y       z     vdW  Elec       q    Type
REMARK                         _______ _______ _______ _____ _____    ______ ____
ROOT
ATOM      1  C   UNL     1       6.581   4.338  16.523  0.00  0.00    +0.000 C 
ATOM      2  N   UNL     1       7.814   4.631  16.804  0.00  0.00    +0.000 NA
ATOM      3  C   UNL     1       7.839   4.932  18.238  0.00  0.00    +0.000 C 
ATOM      4  C   UNL     1       6.388   5.027  18.656  0.00  0.00    +0.000 C 
ATOM      5  N   UNL     1       5.644   4.443  17.567  0.00  0.00    +0.000 N 
ATOM      6  C   UNL     1       4.266   4.132  17.560  0.00  0.00    +0.000 C 
ATOM      7  O   UNL     1       3.691   3.677  16.573  0.00  0.00    +0.000 OA
ENDROOT
BRANCH   6   8
ATOM      8  C   UNL     1       3.404   4.315  18.773  0.00  0.00    +0.000 A 
ATOM      9  C   UNL     1       3.263   3.305  19.729  0.00  0.00    +0.000 A 
ATOM     10  F   UNL     1       3.941   2.155  19.632  0.00  0.00    +0.000 F 
ATOM     11  C   UNL     1       2.465   3.450  20.867  0.00  0.00    +0.000 A 
ATOM     12  C   UNL     1       1.872   4.671  21.145  0.00  0.00    +0.000 A 
ATOM     13  C   UNL     1       2.068   5.732  20.266  0.00  0.00    +0.000 A 
ATOM     14  C   UNL     1       2.804   5.559  19.079  0.00  0.00    +0.000 A 
ATOM     15 CL   UNL     1       2.911   6.959  18.066  0.00  0.00    +0.000 Cl
ENDBRANCH   6   8
BRANCH   1  17
ATOM     16  C   UNL     1       7.171   4.958  13.934  0.00  0.00    +0.000 C 
ATOM     17  S   UNL     1       6.138   3.852  14.920  0.00  0.00    +0.000 S 
ENDBRANCH   1  17
TORSDOF 2
ENDMDL
MODEL 7
REMARK VINA RESULT:      -6.7      1.250      1.262
REMARK  Name = 
REMARK  3 active torsions:
REMARK  status: ('A' for Active; 'I' for Inactive)
REMARK    1  A    between atoms: C_1  and  S_2
REMARK    2  A    between atoms: S_2  and  C_3
REMARK    3  A    between atoms: C_8  and  C_10
REMARK                            x       y       z     vdW  Elec       q    Type
REMARK                         _______ _______ _______ _____ _____    ______ ____
ROOT
ATOM      1  C   UNL     1       6.617   4.683  16.952  0.00  0.00    +0.000 C 
ATOM      2  N   UNL     1       6.811   5.040  15.719  0.00  0.00    +0.000 NA
ATOM      3  C   UNL     1       5.499   4.976  15.069  0.00  0.00    +0.000 C 
ATOM      4  C   UNL     1       4.596   4.266  16.055  0.00  0.00    +0.000 C 
ATOM      5  N   UNL     1       5.315   4.287  17.306  0.00  0.00    +0.000 N 
ATOM      6  C   UNL     1       4.812   3.913  18.572  0.00  0.00    +0.000 C 
ATOM      7  O   UNL     1       5.503   3.912  19.589  0.00  0.00    +0.000 OA
ENDROOT
BRANCH   6   8
ATOM      8  C   UNL     1       3.382   3.507  18.771  0.00  0.00    +0.000 A 
ATOM      9  C   UNL     1       2.952   2.201  18.519  0.00  0.00    +0.000 A 
ATOM     10  F   UNL     1       3.810   1.244  18.149  0.00  0.00    +0.000 F 
ATOM     11  C   UNL     1       1.625   1.798  18.696  0.00  0.00    +0.000 A 
ATOM     12  C   UNL     1       0.704   2.672  19.251  0.00  0.00    +0.000 A 
ATOM     13  C   UNL     1       1.118   3.953  19.606  0.00  0.00    +0.000 A 
ATOM     14  C   UNL     1       2.434   4.382  19.351  0.00  0.00    +0.000 A 
ATOM     15 CL   UNL     1       2.777   6.018  19.801  0.00  0.00    +0.000 Cl
ENDBRANCH   6   8
BRANCH   1  17
ATOM     16  C   UNL     1       7.843   6.393  18.687  0.00  0.00    +0.000 C 
ATOM     17  S   UNL     1       7.928   4.692  18.085  0.00  0.00    +0.000 S 
ENDBRANCH   1  17
TORSDOF 2
ENDMDL
MODEL 8
REMARK VINA RESULT:      -6.7      2.675      3.287
REMARK  Name = 
REMARK  3 active torsions:
REMARK  status: ('A' for Active; 'I' for Inactive)
REMARK    1  A    between atoms: C_1  and  S_2
REMARK    2  A    between atoms: S_2  and  C_3
REMARK    3  A    between atoms: C_8  and  C_10
REMARK                            x       y       z     vdW  Elec       q    Type
REMARK                         _______ _______ _______ _____ _____    ______ ____
ROOT
ATOM      1  C   UNL     1       5.304   5.103  16.288  0.00  0.00    +0.000 C 
ATOM      2  N   UNL     1       5.725   6.324  16.156  0.00  0.00    +0.000 NA
ATOM      3  C   UNL     1       5.189   7.060  17.304  0.00  0.00    +0.000 C 
ATOM      4  C   UNL     1       4.182   6.129  17.945  0.00  0.00    +0.000 C 
ATOM      5  N   UNL     1       4.450   4.833  17.372  0.00  0.00    +0.000 N 
ATOM      6  C   UNL     1       3.899   3.600  17.786  0.00  0.00    +0.000 C 
ATOM      7  O   UNL     1       4.140   2.538  17.215  0.00  0.00    +0.000 OA
ENDROOT
BRANCH   6   8
ATOM      8  C   UNL     1       2.991   3.494  18.974  0.00  0.00    +0.000 A 
ATOM      9  C   UNL     1       1.680   3.975  18.937  0.00  0.00    +0.000 A 
ATOM     10  F   UNL     1       1.161   4.496  17.819  0.00  0.00    +0.000 F 
ATOM     11  C   UNL     1       0.814   3.890  20.031  0.00  0.00    +0.000 A 
ATOM     12  C   UNL     1       1.203   3.202  21.170  0.00  0.00    +0.000 A 
ATOM     13  C   UNL     1       2.469   2.624  21.209  0.00  0.00    +0.000 A 
ATOM     14  C   UNL     1       3.368   2.782  20.137  0.00  0.00    +0.000 A 
ATOM     15 CL   UNL     1       4.920   2.049  20.362  0.00  0.00    +0.000 Cl
ENDBRANCH   6   8
BRANCH   1  17
ATOM     16  C   UNL     1       6.979   4.798  14.157  0.00  0.00    +0.000 C 
ATOM     17  S   UNL     1       5.781   3.883  15.153  0.00  0.00    +0.000 S 
ENDBRANCH   1  17
TORSDOF 2
ENDMDL
MODEL 9
REMARK VINA RESULT:      -6.6      2.216      2.469
REMARK  Name = 
REMARK  3 active torsions:
REMARK  status: ('A' for Active; 'I' for Inactive)
REMARK    1  A    between atoms: C_1  and  S_2
REMARK    2  A    between atoms: S_2  and  C_3
REMARK    3  A    between atoms: C_8  and  C_10
REMARK                            x       y       z     vdW  Elec       q    Type
REMARK                         _______ _______ _______ _____ _____    ______ ____
ROOT
ATOM      1  C   UNL     1       6.243   5.478  17.359  0.00  0.00    +0.000 C 
ATOM      2  N   UNL     1       6.236   6.370  16.416  0.00  0.00    +0.000 NA
ATOM      3  C   UNL     1       4.835   6.762  16.242  0.00  0.00    +0.000 C 
ATOM      4  C   UNL     1       4.034   5.755  17.040  0.00  0.00    +0.000 C 
ATOM      5  N   UNL     1       4.997   5.092  17.884  0.00  0.00    +0.000 N 
ATOM      6  C   UNL     1       4.715   4.200  18.943  0.00  0.00    +0.000 C 
ATOM      7  O   UNL     1       5.596   3.634  19.589  0.00  0.00    +0.000 OA
ENDROOT
BRANCH   6   8
ATOM      8  C   UNL     1       3.312   3.893  19.372  0.00  0.00    +0.000 A 
ATOM      9  C   UNL     1       2.531   4.836  20.045  0.00  0.00    +0.000 A 
ATOM     10  F   UNL     1       2.982   6.073  20.280  0.00  0.00    +0.000 F 
ATOM     11  C   UNL     1       1.221   4.574  20.456  0.00  0.00    +0.000 A 
ATOM     12  C   UNL     1       0.606   3.386  20.094  0.00  0.00    +0.000 A 
ATOM     13  C   UNL     1       1.320   2.460  19.339  0.00  0.00    +0.000 A 
ATOM     14  C   UNL     1       2.665   2.692  18.997  0.00  0.00    +0.000 A 
ATOM     15 CL   UNL     1       3.429   1.421  18.103  0.00  0.00    +0.000 Cl
ENDBRANCH   6   8
BRANCH   1  17
ATOM     16  C   UNL     1       8.073   5.856  19.345  0.00  0.00    +0.000 C 
ATOM     17  S   UNL     1       7.738   4.803  17.917  0.00  0.00    +0.000 S 
ENDBRANCH   1  17
TORSDOF 2
ENDMDL
