MODEL 1
REMARK VINA RESULT:      -7.0      0.000      0.000
REMARK  Name = 
REMARK  10 active torsions:
REMARK  status: ('A' for Active; 'I' for Inactive)
REMARK    1  A    between atoms: C_1  and  O_2
REMARK    2  A    between atoms: O_2  and  C_3
REMARK    3  A    between atoms: C_6  and  N_7
REMARK    4  A    between atoms: C_11  and  C_12
REMARK    5  A    between atoms: C_12  and  C_13
REMARK    6  A    between atoms: C_12  and  N_17
REMARK    7  A    between atoms: C_13  and  C_14
REMARK    8  A    between atoms: C_14  and  S_15
REMARK    9  A    between atoms: S_15  and  C_16
REMARK   10  A    between atoms: N_27  and  C_28
REMARK                            x       y       z     vdW  Elec       q    Type
REMARK                         _______ _______ _______ _____ _____    ______ ____
ROOT
ATOM      1  C   UNL     1      -1.771  11.965  18.807  0.00  0.00    +0.000 C 
ENDROOT
BRANCH   1   2
ATOM      2  N   UNL     1      -2.352  12.165  20.158  0.00  0.00    +0.000 NA
ATOM      3  C   UNL     1      -1.422  11.802  21.239  0.00  0.00    +0.000 C 
ATOM      4  C   UNL     1      -0.688  12.924  21.978  0.00  0.00    +0.000 C 
ATOM      5  C   UNL     1      -1.437  14.256  22.146  0.00  0.00    +0.000 C 
ATOM      6  C   UNL     1      -2.391  14.625  21.006  0.00  0.00    +0.000 C 
ATOM      7  C   UNL     1      -3.076  13.446  20.313  0.00  0.00    +0.000 C 
ATOM      8  C   UNL     1      -0.355  15.343  22.196  0.00  0.00    +0.000 C 
ATOM      9  O   UNL     1       0.388  15.723  21.300  0.00  0.00    +0.000 OA
ATOM     10  N   UNL     1      -0.304  15.828  23.483  0.00  0.00    +0.000 N 
ATOM     11  C   UNL     1      -1.208  15.158  24.376  0.00  0.00    +0.000 C 
ATOM     12  N   UNL     1      -2.054  14.369  23.504  0.00  0.00    +0.000 N 
ATOM     13  H   UNL     1       0.402  16.492  23.750  0.00  0.00    +0.000 HD
BRANCH  12  14
ATOM     14  C   UNL     1      -3.362  14.028  23.774  0.00  0.00    +0.000 A 
ATOM     15  C   UNL     1      -4.466  14.846  23.551  0.00  0.00    +0.000 A 
ATOM     16  C   UNL     1      -5.785  14.363  23.708  0.00  0.00    +0.000 A 
ATOM     17  C   UNL     1      -6.031  13.040  24.073  0.00  0.00    +0.000 A 
ATOM     18  C   UNL     1      -4.961  12.223  24.342  0.00  0.00    +0.000 A 
ATOM     19  C   UNL     1      -3.676  12.749  24.245  0.00  0.00    +0.000 A 
ENDBRANCH  12  14
ENDBRANCH   1   2
BRANCH   1  24
ATOM     20  N   UNL     1       0.860  11.708  18.811  0.00  0.00    +0.000 N 
ATOM     21  N   UNL     1       1.864  12.628  18.694  0.00  0.00    +0.000 NA
ATOM     22  N   UNL     1       1.308  13.810  18.541  0.00  0.00    +0.000 NA
ATOM     23  N   UNL     1      -0.038  13.715  18.595  0.00  0.00    +0.000 NA
ATOM     24  C   UNL     1      -0.345  12.438  18.760  0.00  0.00    +0.000 A 
BRANCH  20  28
ATOM     25  C   UNL     1       2.043   7.622  19.444  0.00  0.00    +0.000 A 
ATOM     26  C   UNL     1       1.484   8.384  20.455  0.00  0.00    +0.000 A 
ATOM     27  C   UNL     1       1.104   9.717  20.204  0.00  0.00    +0.000 A 
ATOM     28  C   UNL     1       1.256  10.328  18.933  0.00  0.00    +0.000 A 
ATOM     29  C   UNL     1       1.801   9.549  17.913  0.00  0.00    +0.000 A 
ATOM     30  C   UNL     1       2.197   8.213  18.179  0.00  0.00    +0.000 A 
BRANCH  25  32
ATOM     31  C   UNL     1       1.878   5.508  20.559  0.00  0.00    +0.000 C 
ATOM     32  O   UNL     1       2.483   6.333  19.563  0.00  0.00    +0.000 OA
ENDBRANCH  25  32
ENDBRANCH  20  28
ENDBRANCH   1  24
BRANCH   1  33
ATOM     33  C   UNL     1      -1.976  10.463  18.480  0.00  0.00    +0.000 C 
BRANCH  33  34
ATOM     34  C   UNL     1      -2.020   9.930  17.066  0.00  0.00    +0.000 C 
BRANCH  34  35
ATOM     35  S   UNL     1      -3.402  10.871  16.288  0.00  0.00    +0.000 S 
ATOM     36  C   UNL     1      -3.238  10.296  14.603  0.00  0.00    +0.000 C 
ENDBRANCH  34  35
ENDBRANCH  33  34
ENDBRANCH   1  33
TORSDOF 8
ENDMDL
MODEL 2
REMARK VINA RESULT:      -6.9      0.662      1.036
REMARK  Name = 
REMARK  10 active torsions:
REMARK  status: ('A' for Active; 'I' for Inactive)
REMARK    1  A    between atoms: C_1  and  O_2
REMARK    2  A    between atoms: O_2  and  C_3
REMARK    3  A    between atoms: C_6  and  N_7
REMARK    4  A    between atoms: C_11  and  C_12
REMARK    5  A    between atoms: C_12  and  C_13
REMARK    6  A    between atoms: C_12  and  N_17
REMARK    7  A    between atoms: C_13  and  C_14
REMARK    8  A    between atoms: C_14  and  S_15
REMARK    9  A    between atoms: S_15  and  C_16
REMARK   10  A    between atoms: N_27  and  C_28
REMARK                            x       y       z     vdW  Elec       q    Type
REMARK                         _______ _______ _______ _____ _____    ______ ____
ROOT
ATOM      1  C   UNL     1      -1.571  11.754  18.613  0.00  0.00    +0.000 C 
ENDROOT
BRANCH   1   2
ATOM      2  N   UNL     1      -2.200  11.913  19.947  0.00  0.00    +0.000 NA
ATOM      3  C   UNL     1      -1.289  11.578  21.053  0.00  0.00    +0.000 C 
ATOM      4  C   UNL     1      -0.626  12.722  21.825  0.00  0.00    +0.000 C 
ATOM      5  C   UNL     1      -1.437  14.019  21.983  0.00  0.00    +0.000 C 
ATOM      6  C   UNL     1      -2.372  14.359  20.818  0.00  0.00    +0.000 C 
ATOM      7  C   UNL     1      -2.984  13.159  20.094  0.00  0.00    +0.000 C 
ATOM      8  C   UNL     1      -0.405  15.151  22.077  0.00  0.00    +0.000 C 
ATOM      9  O   UNL     1       0.347  15.573  21.207  0.00  0.00    +0.000 OA
ATOM     10  N   UNL     1      -0.414  15.623  23.370  0.00  0.00    +0.000 N 
ATOM     11  C   UNL     1      -1.314  14.905  24.228  0.00  0.00    +0.000 C 
ATOM     12  N   UNL     1      -2.100  14.090  23.323  0.00  0.00    +0.000 N 
ATOM     13  H   UNL     1       0.254  16.314  23.665  0.00  0.00    +0.000 HD
BRANCH  12  14
ATOM     14  C   UNL     1      -3.399  13.689  23.550  0.00  0.00    +0.000 A 
ATOM     15  C   UNL     1      -3.775  12.477  24.122  0.00  0.00    +0.000 A 
ATOM     16  C   UNL     1      -5.121  12.209  24.462  0.00  0.00    +0.000 A 
ATOM     17  C   UNL     1      -6.121  13.160  24.257  0.00  0.00    +0.000 A 
ATOM     18  C   UNL     1      -5.785  14.347  23.654  0.00  0.00    +0.000 A 
ATOM     19  C   UNL     1      -4.463  14.551  23.268  0.00  0.00    +0.000 A 
ENDBRANCH  12  14
ENDBRANCH   1   2
BRANCH   1  24
ATOM     20  N   UNL     1       1.050  11.440  18.753  0.00  0.00    +0.000 N 
ATOM     21  N   UNL     1       2.078  12.338  18.688  0.00  0.00    +0.000 NA
ATOM     22  N   UNL     1       1.556  13.531  18.507  0.00  0.00    +0.000 NA
ATOM     23  N   UNL     1       0.207  13.466  18.491  0.00  0.00    +0.000 NA
ATOM     24  C   UNL     1      -0.135  12.196  18.640  0.00  0.00    +0.000 A 
BRANCH  20  28
ATOM     25  C   UNL     1       2.119   7.332  19.445  0.00  0.00    +0.000 A 
ATOM     26  C   UNL     1       1.559   8.117  20.438  0.00  0.00    +0.000 A 
ATOM     27  C   UNL     1       1.217   9.457  20.168  0.00  0.00    +0.000 A 
ATOM     28  C   UNL     1       1.410  10.051  18.895  0.00  0.00    +0.000 A 
ATOM     29  C   UNL     1       1.955   9.251  17.893  0.00  0.00    +0.000 A 
ATOM     30  C   UNL     1       2.313   7.908  18.177  0.00  0.00    +0.000 A 
BRANCH  25  32
ATOM     31  C   UNL     1       1.939   5.257  20.628  0.00  0.00    +0.000 C 
ATOM     32  O   UNL     1       2.525   6.034  19.583  0.00  0.00    +0.000 OA
ENDBRANCH  25  32
ENDBRANCH  20  28
ENDBRANCH   1  24
BRANCH   1  33
ATOM     33  C   UNL     1      -1.795  10.270  18.218  0.00  0.00    +0.000 C 
BRANCH  33  34
ATOM     34  C   UNL     1      -3.097   9.763  17.642  0.00  0.00    +0.000 C 
BRANCH  34  35
ATOM     35  S   UNL     1      -3.480  10.969  16.302  0.00  0.00    +0.000 S 
ATOM     36  C   UNL     1      -4.953  11.715  16.989  0.00  0.00    +0.000 C 
ENDBRANCH  34  35
ENDBRANCH  33  34
ENDBRANCH   1  33
TORSDOF 8
ENDMDL
MODEL 3
REMARK VINA RESULT:      -6.9      2.778      4.968
REMARK  Name = 
REMARK  10 active torsions:
REMARK  status: ('A' for Active; 'I' for Inactive)
REMARK    1  A    between atoms: C_1  and  O_2
REMARK    2  A    between atoms: O_2  and  C_3
REMARK    3  A    between atoms: C_6  and  N_7
REMARK    4  A    between atoms: C_11  and  C_12
REMARK    5  A    between atoms: C_12  and  C_13
REMARK    6  A    between atoms: C_12  and  N_17
REMARK    7  A    between atoms: C_13  and  C_14
REMARK    8  A    between atoms: C_14  and  S_15
REMARK    9  A    between atoms: S_15  and  C_16
REMARK   10  A    between atoms: N_27  and  C_28
REMARK                            x       y       z     vdW  Elec       q    Type
REMARK                         _______ _______ _______ _____ _____    ______ ____
ROOT
ATOM      1  C   UNL     1      -0.206  10.474  18.501  0.00  0.00    +0.000 C 
ENDROOT
BRANCH   1   2
ATOM      2  N   UNL     1       0.358  11.845  18.485  0.00  0.00    +0.000 NA
ATOM      3  C   UNL     1      -0.676  12.890  18.550  0.00  0.00    +0.000 C 
ATOM      4  C   UNL     1      -0.927  13.588  19.889  0.00  0.00    +0.000 C 
ATOM      5  C   UNL     1       0.285  13.776  20.816  0.00  0.00    +0.000 C 
ATOM      6  C   UNL     1       1.347  12.674  20.745  0.00  0.00    +0.000 C 
ATOM      7  C   UNL     1       1.528  12.021  19.374  0.00  0.00    +0.000 C 
ATOM      8  C   UNL     1      -0.273  13.771  22.245  0.00  0.00    +0.000 C 
ATOM      9  O   UNL     1      -0.770  12.841  22.868  0.00  0.00    +0.000 OA
ATOM     10  N   UNL     1      -0.171  15.051  22.742  0.00  0.00    +0.000 N 
ATOM     11  C   UNL     1       0.357  15.987  21.789  0.00  0.00    +0.000 C 
ATOM     12  N   UNL     1       0.849  15.158  20.706  0.00  0.00    +0.000 N 
ATOM     13  H   UNL     1      -0.562  15.283  23.638  0.00  0.00    +0.000 HD
BRANCH  12  14
ATOM     14  C   UNL     1       1.901  15.486  19.878  0.00  0.00    +0.000 A 
ATOM     15  C   UNL     1       1.805  15.689  18.504  0.00  0.00    +0.000 A 
ATOM     16  C   UNL     1       2.901  16.174  17.754  0.00  0.00    +0.000 A 
ATOM     17  C   UNL     1       4.114  16.489  18.366  0.00  0.00    +0.000 A 
ATOM     18  C   UNL     1       4.249  16.256  19.713  0.00  0.00    +0.000 A 
ATOM     19  C   UNL     1       3.173  15.712  20.410  0.00  0.00    +0.000 A 
ENDBRANCH  12  14
ENDBRANCH   1   2
BRANCH   1  24
ATOM     20  N   UNL     1       1.063   8.744  20.046  0.00  0.00    +0.000 N 
ATOM     21  N   UNL     1       0.986   8.497  21.388  0.00  0.00    +0.000 NA
ATOM     22  N   UNL     1       0.111   9.335  21.900  0.00  0.00    +0.000 NA
ATOM     23  N   UNL     1      -0.433  10.106  20.935  0.00  0.00    +0.000 NA
ATOM     24  C   UNL     1       0.130   9.769  19.785  0.00  0.00    +0.000 A 
BRANCH  20  28
ATOM     25  C   UNL     1       3.946   6.270  18.031  0.00  0.00    +0.000 A 
ATOM     26  C   UNL     1       3.341   5.871  19.210  0.00  0.00    +0.000 A 
ATOM     27  C   UNL     1       2.396   6.709  19.835  0.00  0.00    +0.000 A 
ATOM     28  C   UNL     1       2.015   7.964  19.296  0.00  0.00    +0.000 A 
ATOM     29  C   UNL     1       2.612   8.351  18.098  0.00  0.00    +0.000 A 
ATOM     30  C   UNL     1       3.576   7.510  17.484  0.00  0.00    +0.000 A 
BRANCH  25  32
ATOM     31  C   UNL     1       5.254   6.027  16.038  0.00  0.00    +0.000 C 
ATOM     32  O   UNL     1       4.898   5.569  17.343  0.00  0.00    +0.000 OA
ENDBRANCH  25  32
ENDBRANCH  20  28
ENDBRANCH   1  24
BRANCH   1  33
ATOM     33  C   UNL     1      -1.723  10.641  18.220  0.00  0.00    +0.000 C 
BRANCH  33  34
ATOM     34  C   UNL     1      -2.448   9.861  17.147  0.00  0.00    +0.000 C 
BRANCH  34  35
ATOM     35  S   UNL     1      -2.879  11.142  15.893  0.00  0.00    +0.000 S 
ATOM     36  C   UNL     1      -3.319  10.079  14.524  0.00  0.00    +0.000 C 
ENDBRANCH  34  35
ENDBRANCH  33  34
ENDBRANCH   1  33
TORSDOF 8
ENDMDL
MODEL 4
REMARK VINA RESULT:      -6.9      0.495      1.238
REMARK  Name = 
REMARK  10 active torsions:
REMARK  status: ('A' for Active; 'I' for Inactive)
REMARK    1  A    between atoms: C_1  and  O_2
REMARK    2  A    between atoms: O_2  and  C_3
REMARK    3  A    between atoms: C_6  and  N_7
REMARK    4  A    between atoms: C_11  and  C_12
REMARK    5  A    between atoms: C_12  and  C_13
REMARK    6  A    between atoms: C_12  and  N_17
REMARK    7  A    between atoms: C_13  and  C_14
REMARK    8  A    between atoms: C_14  and  S_15
REMARK    9  A    between atoms: S_15  and  C_16
REMARK   10  A    between atoms: N_27  and  C_28
REMARK                            x       y       z     vdW  Elec       q    Type
REMARK                         _______ _______ _______ _____ _____    ______ ____
ROOT
ATOM      1  C   UNL     1      -1.650  11.742  18.664  0.00  0.00    +0.000 C 
ENDROOT
BRANCH   1   2
ATOM      2  N   UNL     1      -2.290  11.943  19.987  0.00  0.00    +0.000 NA
ATOM      3  C   UNL     1      -1.405  11.593  21.110  0.00  0.00    +0.000 C 
ATOM      4  C   UNL     1      -0.712  12.724  21.874  0.00  0.00    +0.000 C 
ATOM      5  C   UNL     1      -1.478  14.051  22.003  0.00  0.00    +0.000 C 
ATOM      6  C   UNL     1      -2.385  14.406  20.821  0.00  0.00    +0.000 C 
ATOM      7  C   UNL     1      -3.030  13.218  20.106  0.00  0.00    +0.000 C 
ATOM      8  C   UNL     1      -0.408  15.146  22.095  0.00  0.00    +0.000 C 
ATOM      9  O   UNL     1       0.369  15.529  21.229  0.00  0.00    +0.000 OA
ATOM     10  N   UNL     1      -0.417  15.638  23.381  0.00  0.00    +0.000 N 
ATOM     11  C   UNL     1      -1.353  14.964  24.237  0.00  0.00    +0.000 C 
ATOM     12  N   UNL     1      -2.155  14.164  23.333  0.00  0.00    +0.000 N 
ATOM     13  H   UNL     1       0.272  16.309  23.675  0.00  0.00    +0.000 HD
BRANCH  12  14
ATOM     14  C   UNL     1      -3.470  13.813  23.548  0.00  0.00    +0.000 A 
ATOM     15  C   UNL     1      -3.899  12.597  24.075  0.00  0.00    +0.000 A 
ATOM     16  C   UNL     1      -5.255  12.377  24.408  0.00  0.00    +0.000 A 
ATOM     17  C   UNL     1      -6.212  13.378  24.243  0.00  0.00    +0.000 A 
ATOM     18  C   UNL     1      -5.824  14.571  23.685  0.00  0.00    +0.000 A 
ATOM     19  C   UNL     1      -4.495  14.731  23.303  0.00  0.00    +0.000 A 
ENDBRANCH  12  14
ENDBRANCH   1   2
BRANCH   1  24
ATOM     20  N   UNL     1       0.979  11.524  18.839  0.00  0.00    +0.000 N 
ATOM     21  N   UNL     1       1.978  12.449  18.729  0.00  0.00    +0.000 NA
ATOM     22  N   UNL     1       1.419  13.613  18.474  0.00  0.00    +0.000 NA
ATOM     23  N   UNL     1       0.074  13.502  18.454  0.00  0.00    +0.000 NA
ATOM     24  C   UNL     1      -0.229  12.232  18.675  0.00  0.00    +0.000 A 
BRANCH  20  28
ATOM     25  C   UNL     1       2.199   7.420  19.242  0.00  0.00    +0.000 A 
ATOM     26  C   UNL     1       2.399   8.127  18.070  0.00  0.00    +0.000 A 
ATOM     27  C   UNL     1       1.990   9.472  17.981  0.00  0.00    +0.000 A 
ATOM     28  C   UNL     1       1.382  10.158  19.064  0.00  0.00    +0.000 A 
ATOM     29  C   UNL     1       1.202   9.447  20.248  0.00  0.00    +0.000 A 
ATOM     30  C   UNL     1       1.600   8.087  20.324  0.00  0.00    +0.000 A 
BRANCH  25  32
ATOM     31  C   UNL     1       3.838   5.677  19.117  0.00  0.00    +0.000 C 
ATOM     32  O   UNL     1       2.518   6.106  19.449  0.00  0.00    +0.000 OA
ENDBRANCH  25  32
ENDBRANCH  20  28
ENDBRANCH   1  24
BRANCH   1  33
ATOM     33  C   UNL     1      -1.823  10.235  18.338  0.00  0.00    +0.000 C 
BRANCH  33  34
ATOM     34  C   UNL     1      -2.016   9.718  16.931  0.00  0.00    +0.000 C 
BRANCH  34  35
ATOM     35  S   UNL     1      -3.044  11.019  16.125  0.00  0.00    +0.000 S 
ATOM     36  C   UNL     1      -3.295  10.250  14.530  0.00  0.00    +0.000 C 
ENDBRANCH  34  35
ENDBRANCH  33  34
ENDBRANCH   1  33
TORSDOF 8
ENDMDL
MODEL 5
REMARK VINA RESULT:      -6.8      2.869      5.187
REMARK  Name = 
REMARK  10 active torsions:
REMARK  status: ('A' for Active; 'I' for Inactive)
REMARK    1  A    between atoms: C_1  and  O_2
REMARK    2  A    between atoms: O_2  and  C_3
REMARK    3  A    between atoms: C_6  and  N_7
REMARK    4  A    between atoms: C_11  and  C_12
REMARK    5  A    between atoms: C_12  and  C_13
REMARK    6  A    between atoms: C_12  and  N_17
REMARK    7  A    between atoms: C_13  and  C_14
REMARK    8  A    between atoms: C_14  and  S_15
REMARK    9  A    between atoms: S_15  and  C_16
REMARK   10  A    between atoms: N_27  and  C_28
REMARK                            x       y       z     vdW  Elec       q    Type
REMARK                         _______ _______ _______ _____ _____    ______ ____
ROOT
ATOM      1  C   UNL     1      -0.212  10.558  18.637  0.00  0.00    +0.000 C 
ENDROOT
BRANCH   1   2
ATOM      2  N   UNL     1       0.525  11.842  18.547  0.00  0.00    +0.000 NA
ATOM      3  C   UNL     1      -0.367  13.011  18.491  0.00  0.00    +0.000 C 
ATOM      4  C   UNL     1      -0.570  13.837  19.764  0.00  0.00    +0.000 C 
ATOM      5  C   UNL     1       0.624  13.941  20.726  0.00  0.00    +0.000 C 
ATOM      6  C   UNL     1       1.536  12.711  20.781  0.00  0.00    +0.000 C 
ATOM      7  C   UNL     1       1.677  11.936  19.470  0.00  0.00    +0.000 C 
ATOM      8  C   UNL     1       0.022  14.117  22.126  0.00  0.00    +0.000 C 
ATOM      9  O   UNL     1      -0.612  13.308  22.793  0.00  0.00    +0.000 OA
ATOM     10  N   UNL     1       0.272  15.408  22.533  0.00  0.00    +0.000 N 
ATOM     11  C   UNL     1       0.949  16.193  21.539  0.00  0.00    +0.000 C 
ATOM     12  N   UNL     1       1.365  15.228  20.542  0.00  0.00    +0.000 N 
ATOM     13  H   UNL     1      -0.115  15.756  23.393  0.00  0.00    +0.000 HD
BRANCH  12  14
ATOM     14  C   UNL     1       2.478  15.355  19.738  0.00  0.00    +0.000 A 
ATOM     15  C   UNL     1       3.796  15.221  20.168  0.00  0.00    +0.000 A 
ATOM     16  C   UNL     1       4.871  15.211  19.251  0.00  0.00    +0.000 A 
ATOM     17  C   UNL     1       4.652  15.313  17.878  0.00  0.00    +0.000 A 
ATOM     18  C   UNL     1       3.366  15.490  17.430  0.00  0.00    +0.000 A 
ATOM     19  C   UNL     1       2.336  15.565  18.364  0.00  0.00    +0.000 A 
ENDBRANCH  12  14
ENDBRANCH   1   2
BRANCH   1  24
ATOM     20  N   UNL     1       0.915   8.821  20.279  0.00  0.00    +0.000 N 
ATOM     21  N   UNL     1       0.784   8.623  21.625  0.00  0.00    +0.000 NA
ATOM     22  N   UNL     1      -0.063   9.522  22.080  0.00  0.00    +0.000 NA
ATOM     23  N   UNL     1      -0.535  10.287  21.072  0.00  0.00    +0.000 NA
ATOM     24  C   UNL     1       0.046   9.882  19.954  0.00  0.00    +0.000 A 
BRANCH  20  28
ATOM     25  C   UNL     1       3.656   6.422  17.991  0.00  0.00    +0.000 A 
ATOM     26  C   UNL     1       3.249   7.674  17.562  0.00  0.00    +0.000 A 
ATOM     27  C   UNL     1       2.355   8.430  18.345  0.00  0.00    +0.000 A 
ATOM     28  C   UNL     1       1.849   7.968  19.587  0.00  0.00    +0.000 A 
ATOM     29  C   UNL     1       2.278   6.717  20.024  0.00  0.00    +0.000 A 
ATOM     30  C   UNL     1       3.165   5.953  19.221  0.00  0.00    +0.000 A 
BRANCH  25  32
ATOM     31  C   UNL     1       4.822   4.331  17.929  0.00  0.00    +0.000 C 
ATOM     32  O   UNL     1       4.490   5.576  17.315  0.00  0.00    +0.000 OA
ENDBRANCH  25  32
ENDBRANCH  20  28
ENDBRANCH   1  24
BRANCH   1  33
ATOM     33  C   UNL     1      -1.698  10.907  18.356  0.00  0.00    +0.000 C 
BRANCH  33  34
ATOM     34  C   UNL     1      -2.648   9.954  17.668  0.00  0.00    +0.000 C 
BRANCH  34  35
ATOM     35  S   UNL     1      -3.127  10.850  16.130  0.00  0.00    +0.000 S 
ATOM     36  C   UNL     1      -4.674  11.564  16.675  0.00  0.00    +0.000 C 
ENDBRANCH  34  35
ENDBRANCH  33  34
ENDBRANCH   1  33
TORSDOF 8
ENDMDL
MODEL 6
REMARK VINA RESULT:      -6.8      2.951      4.828
REMARK  Name = 
REMARK  10 active torsions:
REMARK  status: ('A' for Active; 'I' for Inactive)
REMARK    1  A    between atoms: C_1  and  O_2
REMARK    2  A    between atoms: O_2  and  C_3
REMARK    3  A    between atoms: C_6  and  N_7
REMARK    4  A    between atoms: C_11  and  C_12
REMARK    5  A    between atoms: C_12  and  C_13
REMARK    6  A    between atoms: C_12  and  N_17
REMARK    7  A    between atoms: C_13  and  C_14
REMARK    8  A    between atoms: C_14  and  S_15
REMARK    9  A    between atoms: S_15  and  C_16
REMARK   10  A    between atoms: N_27  and  C_28
REMARK                            x       y       z     vdW  Elec       q    Type
REMARK                         _______ _______ _______ _____ _____    ______ ____
ROOT
ATOM      1  C   UNL     1      -1.294  11.716  19.146  0.00  0.00    +0.000 C 
ENDROOT
BRANCH   1   2
ATOM      2  N   UNL     1      -1.023  13.157  18.919  0.00  0.00    +0.000 NA
ATOM      3  C   UNL     1      -1.233  13.975  20.124  0.00  0.00    +0.000 C 
ATOM      4  C   UNL     1      -0.009  14.422  20.927  0.00  0.00    +0.000 C 
ATOM      5  C   UNL     1       1.281  14.699  20.136  0.00  0.00    +0.000 C 
ATOM      6  C   UNL     1       1.490  13.831  18.891  0.00  0.00    +0.000 C 
ATOM      7  C   UNL     1       0.215  13.419  18.154  0.00  0.00    +0.000 C 
ATOM      8  C   UNL     1       2.437  14.394  21.097  0.00  0.00    +0.000 C 
ATOM      9  O   UNL     1       2.790  13.311  21.547  0.00  0.00    +0.000 OA
ATOM     10  N   UNL     1       3.029  15.589  21.438  0.00  0.00    +0.000 N 
ATOM     11  C   UNL     1       2.376  16.729  20.857  0.00  0.00    +0.000 C 
ATOM     12  N   UNL     1       1.464  16.163  19.884  0.00  0.00    +0.000 N 
ATOM     13  H   UNL     1       3.758  15.618  22.130  0.00  0.00    +0.000 HD
BRANCH  12  14
ATOM     14  C   UNL     1       1.060  16.790  18.724  0.00  0.00    +0.000 A 
ATOM     15  C   UNL     1      -0.254  17.128  18.413  0.00  0.00    +0.000 A 
ATOM     16  C   UNL     1      -0.564  17.908  17.275  0.00  0.00    +0.000 A 
ATOM     17  C   UNL     1       0.439  18.386  16.432  0.00  0.00    +0.000 A 
ATOM     18  C   UNL     1       1.740  18.031  16.691  0.00  0.00    +0.000 A 
ATOM     19  C   UNL     1       2.004  17.204  17.780  0.00  0.00    +0.000 A 
ENDBRANCH  12  14
ENDBRANCH   1   2
BRANCH   1  24
ATOM     20  N   UNL     1       0.246  10.302  20.763  0.00  0.00    +0.000 N 
ATOM     21  N   UNL     1       0.393  10.315  22.121  0.00  0.00    +0.000 NA
ATOM     22  N   UNL     1      -0.406  11.244  22.601  0.00  0.00    +0.000 NA
ATOM     23  N   UNL     1      -1.116  11.822  21.609  0.00  0.00    +0.000 NA
ATOM     24  C   UNL     1      -0.740  11.266  20.468  0.00  0.00    +0.000 A 
BRANCH  20  28
ATOM     25  C   UNL     1       2.657   7.686  18.347  0.00  0.00    +0.000 A 
ATOM     26  C   UNL     1       2.165   8.883  17.857  0.00  0.00    +0.000 A 
ATOM     27  C   UNL     1       1.384   9.714  18.683  0.00  0.00    +0.000 A 
ATOM     28  C   UNL     1       1.082   9.385  20.029  0.00  0.00    +0.000 A 
ATOM     29  C   UNL     1       1.597   8.188  20.524  0.00  0.00    +0.000 A 
ATOM     30  C   UNL     1       2.367   7.348  19.680  0.00  0.00    +0.000 A 
BRANCH  25  32
ATOM     31  C   UNL     1       3.073   5.393  17.789  0.00  0.00    +0.000 C 
ATOM     32  O   UNL     1       3.397   6.776  17.643  0.00  0.00    +0.000 OA
ENDBRANCH  25  32
ENDBRANCH  20  28
ENDBRANCH   1  24
BRANCH   1  33
ATOM     33  C   UNL     1      -2.828  11.548  18.984  0.00  0.00    +0.000 C 
BRANCH  33  34
ATOM     34  C   UNL     1      -3.516  11.549  17.638  0.00  0.00    +0.000 C 
BRANCH  34  35
ATOM     35  S   UNL     1      -2.491  10.400  16.624  0.00  0.00    +0.000 S 
ATOM     36  C   UNL     1      -3.321  10.576  15.050  0.00  0.00    +0.000 C 
ENDBRANCH  34  35
ENDBRANCH  33  34
ENDBRANCH   1  33
TORSDOF 8
ENDMDL
MODEL 7
REMARK VINA RESULT:      -6.8      3.328      5.064
REMARK  Name = 
REMARK  10 active torsions:
REMARK  status: ('A' for Active; 'I' for Inactive)
REMARK    1  A    between atoms: C_1  and  O_2
REMARK    2  A    between atoms: O_2  and  C_3
REMARK    3  A    between atoms: C_6  and  N_7
REMARK    4  A    between atoms: C_11  and  C_12
REMARK    5  A    between atoms: C_12  and  C_13
REMARK    6  A    between atoms: C_12  and  N_17
REMARK    7  A    between atoms: C_13  and  C_14
REMARK    8  A    between atoms: C_14  and  S_15
REMARK    9  A    between atoms: S_15  and  C_16
REMARK   10  A    between atoms: N_27  and  C_28
REMARK                            x       y       z     vdW  Elec       q    Type
REMARK                         _______ _______ _______ _____ _____    ______ ____
ROOT
ATOM      1  C   UNL     1      -0.868  12.331  22.447  0.00  0.00    +0.000 C 
ENDROOT
BRANCH   1   2
ATOM      2  N   UNL     1      -2.327  12.359  22.184  0.00  0.00    +0.000 NA
ATOM      3  C   UNL     1      -3.130  12.072  23.384  0.00  0.00    +0.000 C 
ATOM      4  C   UNL     1      -3.784  13.243  24.122  0.00  0.00    +0.000 C 
ATOM      5  C   UNL     1      -4.243  14.437  23.269  0.00  0.00    +0.000 C 
ATOM      6  C   UNL     1      -3.390  14.730  22.031  0.00  0.00    +0.000 C 
ATOM      7  C   UNL     1      -2.764  13.507  21.359  0.00  0.00    +0.000 C 
ATOM      8  C   UNL     1      -4.148  15.667  24.182  0.00  0.00    +0.000 C 
ATOM      9  O   UNL     1      -3.146  16.207  24.634  0.00  0.00    +0.000 OA
ATOM     10  N   UNL     1      -5.430  16.074  24.475  0.00  0.00    +0.000 N 
ATOM     11  C   UNL     1      -6.438  15.224  23.905  0.00  0.00    +0.000 C 
ATOM     12  N   UNL     1      -5.711  14.374  22.984  0.00  0.00    +0.000 N 
ATOM     13  H   UNL     1      -5.590  16.818  25.132  0.00  0.00    +0.000 HD
BRANCH  12  14
ATOM     14  C   UNL     1      -6.238  13.827  21.834  0.00  0.00    +0.000 A 
ATOM     15  C   UNL     1      -6.369  12.463  21.582  0.00  0.00    +0.000 A 
ATOM     16  C   UNL     1      -7.062  11.988  20.446  0.00  0.00    +0.000 A 
ATOM     17  C   UNL     1      -7.660  12.867  19.544  0.00  0.00    +0.000 A 
ATOM     18  C   UNL     1      -7.509  14.217  19.744  0.00  0.00    +0.000 A 
ATOM     19  C   UNL     1      -6.762  14.652  20.835  0.00  0.00    +0.000 A 
ENDBRANCH  12  14
ENDBRANCH   1   2
BRANCH   1  24
ATOM     20  N   UNL     1      -0.335  10.470  20.647  0.00  0.00    +0.000 N 
ATOM     21  N   UNL     1       0.444   9.348  20.701  0.00  0.00    +0.000 NA
ATOM     22  N   UNL     1       0.987   9.296  21.898  0.00  0.00    +0.000 NA
ATOM     23  N   UNL     1       0.561  10.325  22.661  0.00  0.00    +0.000 NA
ATOM     24  C   UNL     1      -0.251  11.064  21.922  0.00  0.00    +0.000 A 
BRANCH  20  28
ATOM     25  C   UNL     1      -2.312  11.034  16.870  0.00  0.00    +0.000 A 
ATOM     26  C   UNL     1      -2.452   9.866  17.598  0.00  0.00    +0.000 A 
ATOM     27  C   UNL     1      -1.792   9.724  18.834  0.00  0.00    +0.000 A 
ATOM     28  C   UNL     1      -0.984  10.748  19.390  0.00  0.00    +0.000 A 
ATOM     29  C   UNL     1      -0.863  11.931  18.662  0.00  0.00    +0.000 A 
ATOM     30  C   UNL     1      -1.516  12.059  17.410  0.00  0.00    +0.000 A 
BRANCH  25  32
ATOM     31  C   UNL     1      -3.056  10.188  14.755  0.00  0.00    +0.000 C 
ATOM     32  O   UNL     1      -2.870  11.287  15.647  0.00  0.00    +0.000 OA
ENDBRANCH  25  32
ENDBRANCH  20  28
ENDBRANCH   1  24
BRANCH   1  33
ATOM     33  C   UNL     1      -0.305  13.640  21.831  0.00  0.00    +0.000 C 
BRANCH  33  34
ATOM     34  C   UNL     1       1.098  13.749  21.279  0.00  0.00    +0.000 C 
BRANCH  34  35
ATOM     35  S   UNL     1       1.712  15.347  21.962  0.00  0.00    +0.000 S 
ATOM     36  C   UNL     1       0.179  16.267  21.983  0.00  0.00    +0.000 C 
ENDBRANCH  34  35
ENDBRANCH  33  34
ENDBRANCH   1  33
TORSDOF 8
ENDMDL
MODEL 8
REMARK VINA RESULT:      -6.7      0.757      1.111
REMARK  Name = 
REMARK  10 active torsions:
REMARK  status: ('A' for Active; 'I' for Inactive)
REMARK    1  A    between atoms: C_1  and  O_2
REMARK    2  A    between atoms: O_2  and  C_3
REMARK    3  A    between atoms: C_6  and  N_7
REMARK    4  A    between atoms: C_11  and  C_12
REMARK    5  A    between atoms: C_12  and  C_13
REMARK    6  A    between atoms: C_12  and  N_17
REMARK    7  A    between atoms: C_13  and  C_14
REMARK    8  A    between atoms: C_14  and  S_15
REMARK    9  A    between atoms: S_15  and  C_16
REMARK   10  A    between atoms: N_27  and  C_28
REMARK                            x       y       z     vdW  Elec       q    Type
REMARK                         _______ _______ _______ _____ _____    ______ ____
ROOT
ATOM      1  C   UNL     1      -1.771  11.916  18.798  0.00  0.00    +0.000 C 
ENDROOT
BRANCH   1   2
ATOM      2  N   UNL     1      -2.363  12.123  20.142  0.00  0.00    +0.000 NA
ATOM      3  C   UNL     1      -1.444  11.761  21.233  0.00  0.00    +0.000 C 
ATOM      4  C   UNL     1      -0.712  12.884  21.974  0.00  0.00    +0.000 C 
ATOM      5  C   UNL     1      -1.458  14.219  22.130  0.00  0.00    +0.000 C 
ATOM      6  C   UNL     1      -2.401  14.586  20.980  0.00  0.00    +0.000 C 
ATOM      7  C   UNL     1      -3.084  13.406  20.287  0.00  0.00    +0.000 C 
ATOM      8  C   UNL     1      -0.373  15.302  22.185  0.00  0.00    +0.000 C 
ATOM      9  O   UNL     1       0.379  15.677  21.294  0.00  0.00    +0.000 OA
ATOM     10  N   UNL     1      -0.331  15.793  23.471  0.00  0.00    +0.000 N 
ATOM     11  C   UNL     1      -1.245  15.129  24.359  0.00  0.00    +0.000 C 
ATOM     12  N   UNL     1      -2.087  14.339  23.483  0.00  0.00    +0.000 N 
ATOM     13  H   UNL     1       0.374  16.455  23.742  0.00  0.00    +0.000 HD
BRANCH  12  14
ATOM     14  C   UNL     1      -3.398  14.003  23.743  0.00  0.00    +0.000 A 
ATOM     15  C   UNL     1      -4.498  14.823  23.505  0.00  0.00    +0.000 A 
ATOM     16  C   UNL     1      -5.819  14.344  23.653  0.00  0.00    +0.000 A 
ATOM     17  C   UNL     1      -6.072  13.024  24.023  0.00  0.00    +0.000 A 
ATOM     18  C   UNL     1      -5.007  12.206  24.307  0.00  0.00    +0.000 A 
ATOM     19  C   UNL     1      -3.719  12.728  24.218  0.00  0.00    +0.000 A 
ENDBRANCH  12  14
ENDBRANCH   1   2
BRANCH   1  24
ATOM     20  N   UNL     1       0.863  11.701  18.858  0.00  0.00    +0.000 N 
ATOM     21  N   UNL     1       1.855  12.630  18.716  0.00  0.00    +0.000 NA
ATOM     22  N   UNL     1       1.284  13.795  18.500  0.00  0.00    +0.000 NA
ATOM     23  N   UNL     1      -0.061  13.682  18.535  0.00  0.00    +0.000 NA
ATOM     24  C   UNL     1      -0.351  12.409  18.753  0.00  0.00    +0.000 A 
BRANCH  20  28
ATOM     25  C   UNL     1       2.107   7.595  19.162  0.00  0.00    +0.000 A 
ATOM     26  C   UNL     1       2.264   8.320  17.993  0.00  0.00    +0.000 A 
ATOM     27  C   UNL     1       1.848   9.665  17.937  0.00  0.00    +0.000 A 
ATOM     28  C   UNL     1       1.278  10.334  19.050  0.00  0.00    +0.000 A 
ATOM     29  C   UNL     1       1.142   9.606  20.231  0.00  0.00    +0.000 A 
ATOM     30  C   UNL     1       1.546   8.247  20.274  0.00  0.00    +0.000 A 
BRANCH  25  32
ATOM     31  C   UNL     1       3.276   5.662  18.363  0.00  0.00    +0.000 C 
ATOM     32  O   UNL     1       2.437   6.280  19.339  0.00  0.00    +0.000 OA
ENDBRANCH  25  32
ENDBRANCH  20  28
ENDBRANCH   1  24
BRANCH   1  33
ATOM     33  C   UNL     1      -1.953  10.407  18.487  0.00  0.00    +0.000 C 
BRANCH  33  34
ATOM     34  C   UNL     1      -3.177   9.855  17.792  0.00  0.00    +0.000 C 
BRANCH  34  35
ATOM     35  S   UNL     1      -3.493  11.067  16.439  0.00  0.00    +0.000 S 
ATOM     36  C   UNL     1      -5.033  11.765  17.022  0.00  0.00    +0.000 C 
ENDBRANCH  34  35
ENDBRANCH  33  34
ENDBRANCH   1  33
TORSDOF 8
ENDMDL
MODEL 9
REMARK VINA RESULT:      -6.7      3.256      6.401
REMARK  Name = 
REMARK  10 active torsions:
REMARK  status: ('A' for Active; 'I' for Inactive)
REMARK    1  A    between atoms: C_1  and  O_2
REMARK    2  A    between atoms: O_2  and  C_3
REMARK    3  A    between atoms: C_6  and  N_7
REMARK    4  A    between atoms: C_11  and  C_12
REMARK    5  A    between atoms: C_12  and  C_13
REMARK    6  A    between atoms: C_12  and  N_17
REMARK    7  A    between atoms: C_13  and  C_14
REMARK    8  A    between atoms: C_14  and  S_15
REMARK    9  A    between atoms: S_15  and  C_16
REMARK   10  A    between atoms: N_27  and  C_28
REMARK                            x       y       z     vdW  Elec       q    Type
REMARK                         _______ _______ _______ _____ _____    ______ ____
ROOT
ATOM      1  C   UNL     1      -0.161  11.604  19.953  0.00  0.00    +0.000 C 
ENDROOT
BRANCH   1   2
ATOM      2  N   UNL     1      -0.314  13.078  19.888  0.00  0.00    +0.000 NA
ATOM      3  C   UNL     1       0.492  13.781  20.899  0.00  0.00    +0.000 C 
ATOM      4  C   UNL     1       1.803  14.437  20.461  0.00  0.00    +0.000 C 
ATOM      5  C   UNL     1       1.855  15.010  19.035  0.00  0.00    +0.000 C 
ATOM      6  C   UNL     1       1.020  14.259  17.992  0.00  0.00    +0.000 C 
ATOM      7  C   UNL     1      -0.269  13.624  18.515  0.00  0.00    +0.000 C 
ATOM      8  C   UNL     1       3.321  14.909  18.594  0.00  0.00    +0.000 C 
ATOM      9  O   UNL     1       3.980  13.904  18.355  0.00  0.00    +0.000 OA
ATOM     10  N   UNL     1       3.836  16.185  18.546  0.00  0.00    +0.000 N 
ATOM     11  C   UNL     1       2.896  17.189  18.962  0.00  0.00    +0.000 C 
ATOM     12  N   UNL     1       1.629  16.489  19.031  0.00  0.00    +0.000 N 
ATOM     13  H   UNL     1       4.812  16.335  18.360  0.00  0.00    +0.000 HD
BRANCH  12  14
ATOM     14  C   UNL     1       0.396  17.069  18.820  0.00  0.00    +0.000 A 
ATOM     15  C   UNL     1      -0.656  17.067  19.731  0.00  0.00    +0.000 A 
ATOM     16  C   UNL     1      -1.831  17.817  19.500  0.00  0.00    +0.000 A 
ATOM     17  C   UNL     1      -1.973  18.605  18.358  0.00  0.00    +0.000 A 
ATOM     18  C   UNL     1      -0.969  18.590  17.421  0.00  0.00    +0.000 A 
ATOM     19  C   UNL     1       0.145  17.787  17.647  0.00  0.00    +0.000 A 
ENDBRANCH  12  14
ENDBRANCH   1   2
BRANCH   1  24
ATOM     20  N   UNL     1      -1.150  11.313  22.387  0.00  0.00    +0.000 N 
ATOM     21  N   UNL     1      -0.693  10.632  23.479  0.00  0.00    +0.000 NA
ATOM     22  N   UNL     1       0.433  10.042  23.140  0.00  0.00    +0.000 NA
ATOM     23  N   UNL     1       0.765  10.343  21.866  0.00  0.00    +0.000 NA
ATOM     24  C   UNL     1      -0.186  11.122  21.376  0.00  0.00    +0.000 A 
BRANCH  20  28
ATOM     25  C   UNL     1      -4.943  13.227  23.056  0.00  0.00    +0.000 A 
ATOM     26  C   UNL     1      -4.194  12.709  24.098  0.00  0.00    +0.000 A 
ATOM     27  C   UNL     1      -2.953  12.096  23.836  0.00  0.00    +0.000 A 
ATOM     28  C   UNL     1      -2.414  11.992  22.529  0.00  0.00    +0.000 A 
ATOM     29  C   UNL     1      -3.163  12.533  21.486  0.00  0.00    +0.000 A 
ATOM     30  C   UNL     1      -4.420  13.133  21.755  0.00  0.00    +0.000 A 
BRANCH  25  32
ATOM     31  C   UNL     1      -7.181  13.125  23.905  0.00  0.00    +0.000 C 
ATOM     32  O   UNL     1      -6.172  13.815  23.168  0.00  0.00    +0.000 OA
ENDBRANCH  25  32
ENDBRANCH  20  28
ENDBRANCH   1  24
BRANCH   1  33
ATOM     33  C   UNL     1      -1.278  11.026  19.044  0.00  0.00    +0.000 C 
BRANCH  33  34
ATOM     34  C   UNL     1      -0.996  10.082  17.898  0.00  0.00    +0.000 C 
BRANCH  34  35
ATOM     35  S   UNL     1      -2.646   9.846  17.110  0.00  0.00    +0.000 S 
ATOM     36  C   UNL     1      -3.353  11.460  17.418  0.00  0.00    +0.000 C 
ENDBRANCH  34  35
ENDBRANCH  33  34
ENDBRANCH   1  33
TORSDOF 8
ENDMDL
