MODEL 1
REMARK VINA RESULT:      -8.0      0.000      0.000
REMARK  Name = 
REMARK  5 active torsions:
REMARK  status: ('A' for Active; 'I' for Inactive)
REMARK    1  A    between atoms: C_2  and  C_3
REMARK    2  A    between atoms: C_2  and  C_14
REMARK    3  A    between atoms: C_3  and  C_4
REMARK    4  A    between atoms: C_4  and  C_5
REMARK    5  A    between atoms: C_19  and  N_20
REMARK                            x       y       z     vdW  Elec       q    Type
REMARK                         _______ _______ _______ _____ _____    ______ ____
ROOT
ATOM      1  O   UNL     1       7.391   4.615  18.428  0.00  0.00    +0.000 OA
ATOM      2  C   UNL     1       6.417   5.038  17.812  0.00  0.00    +0.000 C 
ENDROOT
BRANCH   2   3
ATOM      3  C   UNL     1       6.247   4.657  16.385  0.00  0.00    +0.000 A 
ATOM      4  C   UNL     1       5.145   3.870  16.027  0.00  0.00    +0.000 A 
ATOM      5  C   UNL     1       4.941   3.503  14.693  0.00  0.00    +0.000 A 
ATOM      6  C   UNL     1       5.827   3.928  13.699  0.00  0.00    +0.000 A 
ATOM      7 CL   UNL     1       5.517   3.419  12.080  0.00  0.00    +0.000 Cl
ATOM      8  C   UNL     1       6.919   4.713  14.069  0.00  0.00    +0.000 A 
ATOM      9  C   UNL     1       7.146   5.081  15.403  0.00  0.00    +0.000 A 
BRANCH   8  10
ATOM     10  N   UNL     1       7.867   5.185  13.085  0.00  0.00    +0.000 N 
ATOM     11  O   UNL     1       7.708   4.820  11.913  0.00  0.00    +0.000 OA
ATOM     12  O   UNL     1       8.726   5.984  13.481  0.00  0.00    +0.000 OA
ENDBRANCH   8  10
ENDBRANCH   2   3
BRANCH   2  13
ATOM     13  C   UNL     1       5.356   5.912  18.444  0.00  0.00    +0.000 C 
BRANCH  13  14
ATOM     14  C   UNL     1       4.650   5.197  19.594  0.00  0.00    +0.000 C 
BRANCH  14  15
ATOM     15  C   UNL     1       3.282   4.653  19.162  0.00  0.00    +0.000 C 
ATOM     16  C   UNL     1       2.173   5.141  20.107  0.00  0.00    +0.000 C 
ATOM     17  O   UNL     1       1.945   6.322  20.338  0.00  0.00    +0.000 OA
ATOM     18  C   UNL     1       1.367   4.010  20.720  0.00  0.00    +0.000 C 
ATOM     19  C   UNL     1       0.773   3.226  19.545  0.00  0.00    +0.000 C 
ATOM     20  C   UNL     1       1.904   2.728  18.627  0.00  0.00    +0.000 C 
ATOM     21  N   UNL     1       3.237   3.154  19.120  0.00  0.00    +0.000 NA
ATOM     22  C   UNL     1       3.424   2.591  20.479  0.00  0.00    +0.000 C 
ATOM     23  C   UNL     1       2.376   3.133  21.466  0.00  0.00    +0.000 C 
ENDBRANCH  14  15
ENDBRANCH  13  14
ENDBRANCH   2  13
TORSDOF 5
ENDMDL
MODEL 2
REMARK VINA RESULT:      -8.0      2.138      2.809
REMARK  Name = 
REMARK  5 active torsions:
REMARK  status: ('A' for Active; 'I' for Inactive)
REMARK    1  A    between atoms: C_2  and  C_3
REMARK    2  A    between atoms: C_2  and  C_14
REMARK    3  A    between atoms: C_3  and  C_4
REMARK    4  A    between atoms: C_4  and  C_5
REMARK    5  A    between atoms: C_19  and  N_20
REMARK                            x       y       z     vdW  Elec       q    Type
REMARK                         _______ _______ _______ _____ _____    ______ ____
ROOT
ATOM      1  O   UNL     1       5.238   5.077  17.658  0.00  0.00    +0.000 OA
ATOM      2  C   UNL     1       5.073   4.181  16.835  0.00  0.00    +0.000 C 
ENDROOT
BRANCH   2   3
ATOM      3  C   UNL     1       5.687   4.319  15.488  0.00  0.00    +0.000 A 
ATOM      4  C   UNL     1       6.808   5.145  15.343  0.00  0.00    +0.000 A 
ATOM      5  C   UNL     1       7.425   5.290  14.096  0.00  0.00    +0.000 A 
ATOM      6  C   UNL     1       6.937   4.600  12.982  0.00  0.00    +0.000 A 
ATOM      7 CL   UNL     1       7.741   4.843  11.475  0.00  0.00    +0.000 Cl
ATOM      8  C   UNL     1       5.821   3.778  13.141  0.00  0.00    +0.000 A 
ATOM      9  C   UNL     1       5.184   3.631  14.381  0.00  0.00    +0.000 A 
BRANCH   8  10
ATOM     10  N   UNL     1       5.274   3.038  12.026  0.00  0.00    +0.000 N 
ATOM     11  O   UNL     1       5.880   2.024  11.657  0.00  0.00    +0.000 OA
ATOM     12  O   UNL     1       4.192   3.436  11.574  0.00  0.00    +0.000 OA
ENDBRANCH   8  10
ENDBRANCH   2   3
BRANCH   2  13
ATOM     13  C   UNL     1       4.294   2.918  17.133  0.00  0.00    +0.000 C 
BRANCH  13  14
ATOM     14  C   UNL     1       2.858   3.229  17.551  0.00  0.00    +0.000 C 
BRANCH  14  15
ATOM     15  C   UNL     1       2.527   2.621  18.921  0.00  0.00    +0.000 C 
ATOM     16  C   UNL     1       1.029   2.755  19.234  0.00  0.00    +0.000 C 
ATOM     17  O   UNL     1       0.140   2.319  18.512  0.00  0.00    +0.000 OA
ATOM     18  C   UNL     1       0.752   3.469  20.545  0.00  0.00    +0.000 C 
ATOM     19  C   UNL     1       1.463   2.655  21.630  0.00  0.00    +0.000 C 
ATOM     20  C   UNL     1       2.965   2.556  21.306  0.00  0.00    +0.000 C 
ATOM     21  N   UNL     1       3.300   3.253  20.041  0.00  0.00    +0.000 NA
ATOM     22  C   UNL     1       2.923   4.680  20.190  0.00  0.00    +0.000 C 
ATOM     23  C   UNL     1       1.411   4.845  20.419  0.00  0.00    +0.000 C 
ENDBRANCH  14  15
ENDBRANCH  13  14
ENDBRANCH   2  13
TORSDOF 5
ENDMDL
MODEL 3
REMARK VINA RESULT:      -7.8      4.962      8.323
REMARK  Name = 
REMARK  5 active torsions:
REMARK  status: ('A' for Active; 'I' for Inactive)
REMARK    1  A    between atoms: C_2  and  C_3
REMARK    2  A    between atoms: C_2  and  C_14
REMARK    3  A    between atoms: C_3  and  C_4
REMARK    4  A    between atoms: C_4  and  C_5
REMARK    5  A    between atoms: C_19  and  N_20
REMARK                            x       y       z     vdW  Elec       q    Type
REMARK                         _______ _______ _______ _____ _____    ______ ____
ROOT
ATOM      1  O   UNL     1       2.725   8.703  17.335  0.00  0.00    +0.000 OA
ATOM      2  C   UNL     1       2.285   7.993  18.235  0.00  0.00    +0.000 C 
ENDROOT
BRANCH   2   3
ATOM      3  C   UNL     1       1.523   8.628  19.343  0.00  0.00    +0.000 A 
ATOM      4  C   UNL     1       1.582   8.049  20.616  0.00  0.00    +0.000 A 
ATOM      5  C   UNL     1       0.891   8.624  21.689  0.00  0.00    +0.000 A 
ATOM      6  C   UNL     1       0.144   9.791  21.503  0.00  0.00    +0.000 A 
ATOM      7 CL   UNL     1      -0.693  10.430  22.870  0.00  0.00    +0.000 Cl
ATOM      8  C   UNL     1       0.095  10.358  20.230  0.00  0.00    +0.000 A 
ATOM      9  C   UNL     1       0.772   9.789  19.142  0.00  0.00    +0.000 A 
BRANCH   8  10
ATOM     10  N   UNL     1      -0.659  11.566  19.979  0.00  0.00    +0.000 N 
ATOM     11  O   UNL     1      -0.107  12.647  20.218  0.00  0.00    +0.000 OA
ATOM     12  O   UNL     1      -1.778  11.425  19.469  0.00  0.00    +0.000 OA
ENDBRANCH   8  10
ENDBRANCH   2   3
BRANCH   2  13
ATOM     13  C   UNL     1       2.456   6.490  18.262  0.00  0.00    +0.000 C 
BRANCH  13  14
ATOM     14  C   UNL     1       3.842   6.090  18.764  0.00  0.00    +0.000 C 
BRANCH  14  15
ATOM     15  C   UNL     1       4.611   5.284  17.708  0.00  0.00    +0.000 C 
ATOM     16  C   UNL     1       5.797   4.541  18.340  0.00  0.00    +0.000 C 
ATOM     17  O   UNL     1       5.690   3.753  19.271  0.00  0.00    +0.000 OA
ATOM     18  C   UNL     1       7.127   4.866  17.683  0.00  0.00    +0.000 C 
ATOM     19  C   UNL     1       6.975   4.489  16.206  0.00  0.00    +0.000 C 
ATOM     20  C   UNL     1       5.795   5.263  15.590  0.00  0.00    +0.000 C 
ATOM     21  N   UNL     1       5.132   6.137  16.589  0.00  0.00    +0.000 NA
ATOM     22  C   UNL     1       6.140   7.099  17.097  0.00  0.00    +0.000 C 
ATOM     23  C   UNL     1       7.298   6.382  17.812  0.00  0.00    +0.000 C 
ENDBRANCH  14  15
ENDBRANCH  13  14
ENDBRANCH   2  13
TORSDOF 5
ENDMDL
MODEL 4
REMARK VINA RESULT:      -7.8      1.290      1.957
REMARK  Name = 
REMARK  5 active torsions:
REMARK  status: ('A' for Active; 'I' for Inactive)
REMARK    1  A    between atoms: C_2  and  C_3
REMARK    2  A    between atoms: C_2  and  C_14
REMARK    3  A    between atoms: C_3  and  C_4
REMARK    4  A    between atoms: C_4  and  C_5
REMARK    5  A    between atoms: C_19  and  N_20
REMARK                            x       y       z     vdW  Elec       q    Type
REMARK                         _______ _______ _______ _____ _____    ______ ____
ROOT
ATOM      1  O   UNL     1       8.240   4.338  18.283  0.00  0.00    +0.000 OA
ATOM      2  C   UNL     1       7.154   4.785  17.924  0.00  0.00    +0.000 C 
ENDROOT
BRANCH   2   3
ATOM      3  C   UNL     1       6.694   4.527  16.535  0.00  0.00    +0.000 A 
ATOM      4  C   UNL     1       5.471   3.873  16.343  0.00  0.00    +0.000 A 
ATOM      5  C   UNL     1       4.995   3.625  15.051  0.00  0.00    +0.000 A 
ATOM      6  C   UNL     1       5.730   4.040  13.936  0.00  0.00    +0.000 A 
ATOM      7 CL   UNL     1       5.085   3.683  12.376  0.00  0.00    +0.000 Cl
ATOM      8  C   UNL     1       6.945   4.693  14.141  0.00  0.00    +0.000 A 
ATOM      9  C   UNL     1       7.442   4.939  15.429  0.00  0.00    +0.000 A 
BRANCH   8  10
ATOM     10  N   UNL     1       7.746   5.148  13.026  0.00  0.00    +0.000 N 
ATOM     11  O   UNL     1       8.613   6.000  13.253  0.00  0.00    +0.000 OA
ATOM     12  O   UNL     1       7.550   4.589  11.939  0.00  0.00    +0.000 OA
ENDBRANCH   8  10
ENDBRANCH   2   3
BRANCH   2  13
ATOM     13  C   UNL     1       6.239   5.566  18.841  0.00  0.00    +0.000 C 
BRANCH  13  14
ATOM     14  C   UNL     1       4.785   5.494  18.379  0.00  0.00    +0.000 C 
BRANCH  14  15
ATOM     15  C   UNL     1       3.858   5.033  19.512  0.00  0.00    +0.000 C 
ATOM     16  C   UNL     1       3.836   3.501  19.614  0.00  0.00    +0.000 C 
ATOM     17  O   UNL     1       4.838   2.814  19.775  0.00  0.00    +0.000 OA
ATOM     18  C   UNL     1       2.440   2.912  19.515  0.00  0.00    +0.000 C 
ATOM     19  C   UNL     1       1.631   3.544  20.652  0.00  0.00    +0.000 C 
ATOM     20  C   UNL     1       1.648   5.077  20.513  0.00  0.00    +0.000 C 
ATOM     21  N   UNL     1       2.446   5.513  19.341  0.00  0.00    +0.000 NA
ATOM     22  C   UNL     1       1.839   4.916  18.126  0.00  0.00    +0.000 C 
ATOM     23  C   UNL     1       1.884   3.379  18.167  0.00  0.00    +0.000 C 
ENDBRANCH  14  15
ENDBRANCH  13  14
ENDBRANCH   2  13
TORSDOF 5
ENDMDL
MODEL 5
REMARK VINA RESULT:      -7.7      3.192      6.629
REMARK  Name = 
REMARK  5 active torsions:
REMARK  status: ('A' for Active; 'I' for Inactive)
REMARK    1  A    between atoms: C_2  and  C_3
REMARK    2  A    between atoms: C_2  and  C_14
REMARK    3  A    between atoms: C_3  and  C_4
REMARK    4  A    between atoms: C_4  and  C_5
REMARK    5  A    between atoms: C_19  and  N_20
REMARK                            x       y       z     vdW  Elec       q    Type
REMARK                         _______ _______ _______ _____ _____    ______ ____
ROOT
ATOM      1  O   UNL     1       1.387   8.206  17.677  0.00  0.00    +0.000 OA
ATOM      2  C   UNL     1       2.351   7.535  18.037  0.00  0.00    +0.000 C 
ENDROOT
BRANCH   2   3
ATOM      3  C   UNL     1       2.111   6.298  18.826  0.00  0.00    +0.000 A 
ATOM      4  C   UNL     1       2.119   6.381  20.224  0.00  0.00    +0.000 A 
ATOM      5  C   UNL     1       1.882   5.243  21.002  0.00  0.00    +0.000 A 
ATOM      6  C   UNL     1       1.621   4.012  20.393  0.00  0.00    +0.000 A 
ATOM      7 CL   UNL     1       1.356   2.652  21.421  0.00  0.00    +0.000 Cl
ATOM      8  C   UNL     1       1.614   3.944  19.000  0.00  0.00    +0.000 A 
ATOM      9  C   UNL     1       1.860   5.072  18.205  0.00  0.00    +0.000 A 
BRANCH   8  10
ATOM     10  N   UNL     1       1.347   2.699  18.315  0.00  0.00    +0.000 N 
ATOM     11  O   UNL     1       2.289   2.153  17.729  0.00  0.00    +0.000 OA
ATOM     12  O   UNL     1       0.205   2.235  18.434  0.00  0.00    +0.000 OA
ENDBRANCH   8  10
ENDBRANCH   2   3
BRANCH   2  13
ATOM     13  C   UNL     1       3.780   7.890  17.691  0.00  0.00    +0.000 C 
BRANCH  13  14
ATOM     14  C   UNL     1       4.360   6.937  16.647  0.00  0.00    +0.000 C 
BRANCH  14  15
ATOM     15  C   UNL     1       5.785   6.503  17.013  0.00  0.00    +0.000 C 
ATOM     16  C   UNL     1       6.347   5.527  15.969  0.00  0.00    +0.000 C 
ATOM     17  O   UNL     1       6.429   5.781  14.773  0.00  0.00    +0.000 OA
ATOM     18  C   UNL     1       6.813   4.211  16.567  0.00  0.00    +0.000 C 
ATOM     19  C   UNL     1       7.881   4.571  17.604  0.00  0.00    +0.000 C 
ATOM     20  C   UNL     1       7.287   5.530  18.652  0.00  0.00    +0.000 C 
ATOM     21  N   UNL     1       5.868   5.849  18.361  0.00  0.00    +0.000 NA
ATOM     22  C   UNL     1       5.102   4.578  18.368  0.00  0.00    +0.000 C 
ATOM     23  C   UNL     1       5.591   3.616  17.271  0.00  0.00    +0.000 C 
ENDBRANCH  14  15
ENDBRANCH  13  14
ENDBRANCH   2  13
TORSDOF 5
ENDMDL
MODEL 6
REMARK VINA RESULT:      -7.7      3.238      6.564
REMARK  Name = 
REMARK  5 active torsions:
REMARK  status: ('A' for Active; 'I' for Inactive)
REMARK    1  A    between atoms: C_2  and  C_3
REMARK    2  A    between atoms: C_2  and  C_14
REMARK    3  A    between atoms: C_3  and  C_4
REMARK    4  A    between atoms: C_4  and  C_5
REMARK    5  A    between atoms: C_19  and  N_20
REMARK                            x       y       z     vdW  Elec       q    Type
REMARK                         _______ _______ _______ _____ _____    ______ ____
ROOT
ATOM      1  O   UNL     1       1.492   8.234  17.786  0.00  0.00    +0.000 OA
ATOM      2  C   UNL     1       2.409   7.434  17.949  0.00  0.00    +0.000 C 
ENDROOT
BRANCH   2   3
ATOM      3  C   UNL     1       2.170   6.228  18.786  0.00  0.00    +0.000 A 
ATOM      4  C   UNL     1       2.210   6.360  20.180  0.00  0.00    +0.000 A 
ATOM      5  C   UNL     1       1.975   5.253  21.003  0.00  0.00    +0.000 A 
ATOM      6  C   UNL     1       1.685   4.005  20.443  0.00  0.00    +0.000 A 
ATOM      7 CL   UNL     1       1.424   2.686  21.524  0.00  0.00    +0.000 Cl
ATOM      8  C   UNL     1       1.646   3.889  19.054  0.00  0.00    +0.000 A 
ATOM      9  C   UNL     1       1.890   4.985  18.214  0.00  0.00    +0.000 A 
BRANCH   8  10
ATOM     10  N   UNL     1       1.349   2.624  18.419  0.00  0.00    +0.000 N 
ATOM     11  O   UNL     1       0.170   2.250  18.410  0.00  0.00    +0.000 OA
ATOM     12  O   UNL     1       2.293   2.048  17.862  0.00  0.00    +0.000 OA
ENDBRANCH   8  10
ENDBRANCH   2   3
BRANCH   2  13
ATOM     13  C   UNL     1       3.772   7.597  17.313  0.00  0.00    +0.000 C 
BRANCH  13  14
ATOM     14  C   UNL     1       4.870   6.961  18.164  0.00  0.00    +0.000 C 
BRANCH  14  15
ATOM     15  C   UNL     1       5.964   6.333  17.291  0.00  0.00    +0.000 C 
ATOM     16  C   UNL     1       5.469   6.129  15.852  0.00  0.00    +0.000 C 
ATOM     17  O   UNL     1       5.031   7.030  15.147  0.00  0.00    +0.000 OA
ATOM     18  C   UNL     1       5.591   4.693  15.373  0.00  0.00    +0.000 C 
ATOM     19  C   UNL     1       7.074   4.330  15.493  0.00  0.00    +0.000 C 
ATOM     20  C   UNL     1       7.540   4.519  16.949  0.00  0.00    +0.000 C 
ATOM     21  N   UNL     1       6.441   5.010  17.816  0.00  0.00    +0.000 NA
ATOM     22  C   UNL     1       5.346   4.011  17.777  0.00  0.00    +0.000 C 
ATOM     23  C   UNL     1       4.774   3.853  16.358  0.00  0.00    +0.000 C 
ENDBRANCH  14  15
ENDBRANCH  13  14
ENDBRANCH   2  13
TORSDOF 5
ENDMDL
MODEL 7
REMARK VINA RESULT:      -7.6      1.153      1.356
REMARK  Name = 
REMARK  5 active torsions:
REMARK  status: ('A' for Active; 'I' for Inactive)
REMARK    1  A    between atoms: C_2  and  C_3
REMARK    2  A    between atoms: C_2  and  C_14
REMARK    3  A    between atoms: C_3  and  C_4
REMARK    4  A    between atoms: C_4  and  C_5
REMARK    5  A    between atoms: C_19  and  N_20
REMARK                            x       y       z     vdW  Elec       q    Type
REMARK                         _______ _______ _______ _____ _____    ______ ____
ROOT
ATOM      1  O   UNL     1       5.457   6.928  17.421  0.00  0.00    +0.000 OA
ATOM      2  C   UNL     1       5.782   5.746  17.357  0.00  0.00    +0.000 C 
ENDROOT
BRANCH   2   3
ATOM      3  C   UNL     1       6.050   5.145  16.023  0.00  0.00    +0.000 A 
ATOM      4  C   UNL     1       5.335   4.002  15.646  0.00  0.00    +0.000 A 
ATOM      5  C   UNL     1       5.547   3.416  14.393  0.00  0.00    +0.000 A 
ATOM      6  C   UNL     1       6.465   3.973  13.499  0.00  0.00    +0.000 A 
ATOM      7 CL   UNL     1       6.682   3.183  11.980  0.00  0.00    +0.000 Cl
ATOM      8  C   UNL     1       7.169   5.112  13.887  0.00  0.00    +0.000 A 
ATOM      9  C   UNL     1       6.978   5.706  15.142  0.00  0.00    +0.000 A 
BRANCH   8  10
ATOM     10  N   UNL     1       8.130   5.734  13.002  0.00  0.00    +0.000 N 
ATOM     11  O   UNL     1       9.300   5.820  13.395  0.00  0.00    +0.000 OA
ATOM     12  O   UNL     1       7.719   6.065  11.882  0.00  0.00    +0.000 OA
ENDBRANCH   8  10
ENDBRANCH   2   3
BRANCH   2  13
ATOM     13  C   UNL     1       5.955   4.868  18.577  0.00  0.00    +0.000 C 
BRANCH  13  14
ATOM     14  C   UNL     1       4.686   4.829  19.427  0.00  0.00    +0.000 C 
BRANCH  14  15
ATOM     15  C   UNL     1       3.621   3.917  18.804  0.00  0.00    +0.000 C 
ATOM     16  C   UNL     1       2.283   4.656  18.656  0.00  0.00    +0.000 C 
ATOM     17  O   UNL     1       2.149   5.705  18.038  0.00  0.00    +0.000 OA
ATOM     18  C   UNL     1       1.126   3.947  19.338  0.00  0.00    +0.000 C 
ATOM     19  C   UNL     1       1.050   2.553  18.706  0.00  0.00    +0.000 C 
ATOM     20  C   UNL     1       2.394   1.825  18.889  0.00  0.00    +0.000 C 
ATOM     21  N   UNL     1       3.382   2.669  19.603  0.00  0.00    +0.000 NA
ATOM     22  C   UNL     1       2.821   3.005  20.935  0.00  0.00    +0.000 C 
ATOM     23  C   UNL     1       1.523   3.822  20.811  0.00  0.00    +0.000 C 
ENDBRANCH  14  15
ENDBRANCH  13  14
ENDBRANCH   2  13
TORSDOF 5
ENDMDL
MODEL 8
REMARK VINA RESULT:      -7.6      5.342      8.695
REMARK  Name = 
REMARK  5 active torsions:
REMARK  status: ('A' for Active; 'I' for Inactive)
REMARK    1  A    between atoms: C_2  and  C_3
REMARK    2  A    between atoms: C_2  and  C_14
REMARK    3  A    between atoms: C_3  and  C_4
REMARK    4  A    between atoms: C_4  and  C_5
REMARK    5  A    between atoms: C_19  and  N_20
REMARK                            x       y       z     vdW  Elec       q    Type
REMARK                         _______ _______ _______ _____ _____    ______ ____
ROOT
ATOM      1  O   UNL     1       2.045   9.204  17.497  0.00  0.00    +0.000 OA
ATOM      2  C   UNL     1       1.972   8.592  18.559  0.00  0.00    +0.000 C 
ENDROOT
BRANCH   2   3
ATOM      3  C   UNL     1       1.153   9.161  19.662  0.00  0.00    +0.000 A 
ATOM      4  C   UNL     1       1.178   8.530  20.911  0.00  0.00    +0.000 A 
ATOM      5  C   UNL     1       0.434   9.043  21.979  0.00  0.00    +0.000 A 
ATOM      6  C   UNL     1      -0.333  10.200  21.814  0.00  0.00    +0.000 A 
ATOM      7 CL   UNL     1      -1.236  10.761  23.173  0.00  0.00    +0.000 Cl
ATOM      8  C   UNL     1      -0.347  10.820  20.565  0.00  0.00    +0.000 A 
ATOM      9  C   UNL     1       0.384  10.313  19.481  0.00  0.00    +0.000 A 
BRANCH   8  10
ATOM     10  N   UNL     1      -1.119  12.021  20.336  0.00  0.00    +0.000 N 
ATOM     11  O   UNL     1      -0.627  13.097  20.696  0.00  0.00    +0.000 OA
ATOM     12  O   UNL     1      -2.187  11.886  19.724  0.00  0.00    +0.000 OA
ENDBRANCH   8  10
ENDBRANCH   2   3
BRANCH   2  13
ATOM     13  C   UNL     1       2.654   7.262  18.796  0.00  0.00    +0.000 C 
BRANCH  13  14
ATOM     14  C   UNL     1       3.208   6.675  17.499  0.00  0.00    +0.000 C 
BRANCH  14  15
ATOM     15  C   UNL     1       4.719   6.428  17.594  0.00  0.00    +0.000 C 
ATOM     16  C   UNL     1       5.312   6.109  16.213  0.00  0.00    +0.000 C 
ATOM     17  O   UNL     1       5.209   6.847  15.240  0.00  0.00    +0.000 OA
ATOM     18  C   UNL     1       6.060   4.789  16.171  0.00  0.00    +0.000 C 
ATOM     19  C   UNL     1       7.167   4.895  17.226  0.00  0.00    +0.000 C 
ATOM     20  C   UNL     1       6.546   5.190  18.604  0.00  0.00    +0.000 C 
ATOM     21  N   UNL     1       5.069   5.305  18.526  0.00  0.00    +0.000 NA
ATOM     22  C   UNL     1       4.536   4.020  18.013  0.00  0.00    +0.000 C 
ATOM     23  C   UNL     1       5.048   3.721  16.593  0.00  0.00    +0.000 C 
ENDBRANCH  14  15
ENDBRANCH  13  14
ENDBRANCH   2  13
TORSDOF 5
ENDMDL
MODEL 9
REMARK VINA RESULT:      -7.6      5.062      8.597
REMARK  Name = 
REMARK  5 active torsions:
REMARK  status: ('A' for Active; 'I' for Inactive)
REMARK    1  A    between atoms: C_2  and  C_3
REMARK    2  A    between atoms: C_2  and  C_14
REMARK    3  A    between atoms: C_3  and  C_4
REMARK    4  A    between atoms: C_4  and  C_5
REMARK    5  A    between atoms: C_19  and  N_20
REMARK                            x       y       z     vdW  Elec       q    Type
REMARK                         _______ _______ _______ _____ _____    ______ ____
ROOT
ATOM      1  O   UNL     1       2.268   9.054  17.135  0.00  0.00    +0.000 OA
ATOM      2  C   UNL     1       2.066   8.640  18.273  0.00  0.00    +0.000 C 
ENDROOT
BRANCH   2   3
ATOM      3  C   UNL     1       1.213   9.442  19.189  0.00  0.00    +0.000 A 
ATOM      4  C   UNL     1       0.653  10.635  18.714  0.00  0.00    +0.000 A 
ATOM      5  C   UNL     1      -0.168  11.410  19.539  0.00  0.00    +0.000 A 
ATOM      6  C   UNL     1      -0.450  10.997  20.844  0.00  0.00    +0.000 A 
ATOM      7 CL   UNL     1      -1.457  12.016  21.806  0.00  0.00    +0.000 Cl
ATOM      8  C   UNL     1       0.111   9.806  21.304  0.00  0.00    +0.000 A 
ATOM      9  C   UNL     1       0.946   9.022  20.495  0.00  0.00    +0.000 A 
BRANCH   8  10
ATOM     10  N   UNL     1      -0.148   9.327  22.644  0.00  0.00    +0.000 N 
ATOM     11  O   UNL     1      -0.950   8.394  22.775  0.00  0.00    +0.000 OA
ATOM     12  O   UNL     1       0.516   9.840  23.554  0.00  0.00    +0.000 OA
ENDBRANCH   8  10
ENDBRANCH   2   3
BRANCH   2  13
ATOM     13  C   UNL     1       2.621   7.330  18.787  0.00  0.00    +0.000 C 
BRANCH  13  14
ATOM     14  C   UNL     1       3.132   6.450  17.648  0.00  0.00    +0.000 C 
BRANCH  14  15
ATOM     15  C   UNL     1       4.657   6.283  17.708  0.00  0.00    +0.000 C 
ATOM     16  C   UNL     1       5.248   6.130  16.299  0.00  0.00    +0.000 C 
ATOM     17  O   UNL     1       5.091   6.948  15.401  0.00  0.00    +0.000 OA
ATOM     18  C   UNL     1       6.070   4.864  16.128  0.00  0.00    +0.000 C 
ATOM     19  C   UNL     1       7.182   4.935  17.180  0.00  0.00    +0.000 C 
ATOM     20  C   UNL     1       6.563   5.064  18.583  0.00  0.00    +0.000 C 
ATOM     21  N   UNL     1       5.082   5.100  18.528  0.00  0.00    +0.000 NA
ATOM     22  C   UNL     1       4.616   3.840  17.900  0.00  0.00    +0.000 C 
ATOM     23  C   UNL     1       5.126   3.705  16.455  0.00  0.00    +0.000 C 
ENDBRANCH  14  15
ENDBRANCH  13  14
ENDBRANCH   2  13
TORSDOF 5
ENDMDL
