MODEL 1
REMARK VINA RESULT:      -7.6      0.000      0.000
REMARK  Name = 
REMARK  6 active torsions:
REMARK  status: ('A' for Active; 'I' for Inactive)
REMARK    1  A    between atoms: C_1  and  C_2
REMARK    2  A    between atoms: C_2  and  O_3
REMARK    3  A    between atoms: O_3  and  C_4
REMARK    4  A    between atoms: C_7  and  S_8
REMARK    5  A    between atoms: S_8  and  N_11
REMARK    6  A    between atoms: C_12  and  C_13
REMARK                            x       y       z     vdW  Elec       q    Type
REMARK                         _______ _______ _______ _____ _____    ______ ____
ROOT
ATOM      1  S   UNL     1       7.209   5.126  16.324  0.00  0.00    +0.000 S 
ATOM      2  O   UNL     1       8.222   4.163  16.748  0.00  0.00    +0.000 OA
ATOM      3  O   UNL     1       7.483   6.541  16.208  0.00  0.00    +0.000 OA
ENDROOT
BRANCH   1   4
ATOM      4  N   UNL     1       6.001   4.987  17.480  0.00  0.00    +0.000 N 
ATOM      5  C   UNL     1       6.301   4.703  18.793  0.00  0.00    +0.000 A 
ATOM      6  C   UNL     1       7.084   5.728  19.573  0.00  0.00    +0.000 C 
ATOM      7  N   UNL     1       5.212   4.080  19.226  0.00  0.00    +0.000 NA
ATOM      8  C   UNL     1       4.242   4.890  18.675  0.00  0.00    +0.000 A 
ATOM      9  C   UNL     1       2.969   5.163  19.182  0.00  0.00    +0.000 A 
ATOM     10  C   UNL     1       2.464   6.439  18.931  0.00  0.00    +0.000 A 
ATOM     11  C   UNL     1       3.140   7.327  18.081  0.00  0.00    +0.000 A 
ATOM     12  C   UNL     1       4.280   6.943  17.340  0.00  0.00    +0.000 A 
ATOM     13  C   UNL     1       4.807   5.685  17.659  0.00  0.00    +0.000 A 
ENDBRANCH   1   4
BRANCH   1  17
ATOM     14  C   UNL     1       5.629   3.589  12.221  0.00  0.00    +0.000 A 
ATOM     15  C   UNL     1       4.803   3.562  13.357  0.00  0.00    +0.000 A 
ATOM     16  C   UNL     1       5.246   4.057  14.602  0.00  0.00    +0.000 A 
ATOM     17  C   UNL     1       6.541   4.564  14.732  0.00  0.00    +0.000 A 
ATOM     18  C   UNL     1       7.375   4.598  13.600  0.00  0.00    +0.000 A 
ATOM     19  C   UNL     1       6.915   4.117  12.354  0.00  0.00    +0.000 A 
BRANCH  14  20
ATOM     20  O   UNL     1       5.087   3.035  11.085  0.00  0.00    +0.000 OA
BRANCH  20  22
ATOM     21  C   UNL     1       3.193   4.005   9.920  0.00  0.00    +0.000 C 
ATOM     22  C   UNL     1       3.659   2.998  10.971  0.00  0.00    +0.000 C 
ENDBRANCH  20  22
ENDBRANCH  14  20
ENDBRANCH   1  17
TORSDOF 4
ENDMDL
MODEL 2
REMARK VINA RESULT:      -7.3      0.111      1.031
REMARK  Name = 
REMARK  6 active torsions:
REMARK  status: ('A' for Active; 'I' for Inactive)
REMARK    1  A    between atoms: C_1  and  C_2
REMARK    2  A    between atoms: C_2  and  O_3
REMARK    3  A    between atoms: O_3  and  C_4
REMARK    4  A    between atoms: C_7  and  S_8
REMARK    5  A    between atoms: S_8  and  N_11
REMARK    6  A    between atoms: C_12  and  C_13
REMARK                            x       y       z     vdW  Elec       q    Type
REMARK                         _______ _______ _______ _____ _____    ______ ____
ROOT
ATOM      1  S   UNL     1       7.247   5.111  16.376  0.00  0.00    +0.000 S 
ATOM      2  O   UNL     1       8.267   4.178  16.847  0.00  0.00    +0.000 OA
ATOM      3  O   UNL     1       7.498   6.527  16.225  0.00  0.00    +0.000 OA
ENDROOT
BRANCH   1   4
ATOM      4  N   UNL     1       6.018   4.983  17.511  0.00  0.00    +0.000 N 
ATOM      5  C   UNL     1       6.293   4.708  18.831  0.00  0.00    +0.000 A 
ATOM      6  C   UNL     1       7.064   5.737  19.618  0.00  0.00    +0.000 C 
ATOM      7  N   UNL     1       5.194   4.091  19.249  0.00  0.00    +0.000 NA
ATOM      8  C   UNL     1       4.236   4.898  18.674  0.00  0.00    +0.000 A 
ATOM      9  C   UNL     1       2.955   5.177  19.156  0.00  0.00    +0.000 A 
ATOM     10  C   UNL     1       2.458   6.452  18.886  0.00  0.00    +0.000 A 
ATOM     11  C   UNL     1       3.150   7.333  18.042  0.00  0.00    +0.000 A 
ATOM     12  C   UNL     1       4.303   6.941  17.325  0.00  0.00    +0.000 A 
ATOM     13  C   UNL     1       4.822   5.685  17.663  0.00  0.00    +0.000 A 
ENDBRANCH   1   4
BRANCH   1  17
ATOM     14  C   UNL     1       5.502   3.611  12.326  0.00  0.00    +0.000 A 
ATOM     15  C   UNL     1       6.786   4.176  12.382  0.00  0.00    +0.000 A 
ATOM     16  C   UNL     1       7.351   4.602  13.602  0.00  0.00    +0.000 A 
ATOM     17  C   UNL     1       6.621   4.492  14.787  0.00  0.00    +0.000 A 
ATOM     18  C   UNL     1       5.334   3.926  14.743  0.00  0.00    +0.000 A 
ATOM     19  C   UNL     1       4.786   3.485  13.519  0.00  0.00    +0.000 A 
BRANCH  14  20
ATOM     20  O   UNL     1       5.057   3.280  11.068  0.00  0.00    +0.000 OA
BRANCH  20  22
ATOM     21  C   UNL     1       3.125   4.104   9.853  0.00  0.00    +0.000 C 
ATOM     22  C   UNL     1       3.647   3.099  10.880  0.00  0.00    +0.000 C 
ENDBRANCH  20  22
ENDBRANCH  14  20
ENDBRANCH   1  17
TORSDOF 4
ENDMDL
MODEL 3
REMARK VINA RESULT:      -7.3      3.896      7.134
REMARK  Name = 
REMARK  6 active torsions:
REMARK  status: ('A' for Active; 'I' for Inactive)
REMARK    1  A    between atoms: C_1  and  C_2
REMARK    2  A    between atoms: C_2  and  O_3
REMARK    3  A    between atoms: O_3  and  C_4
REMARK    4  A    between atoms: C_7  and  S_8
REMARK    5  A    between atoms: S_8  and  N_11
REMARK    6  A    between atoms: C_12  and  C_13
REMARK                            x       y       z     vdW  Elec       q    Type
REMARK                         _______ _______ _______ _____ _____    ______ ____
ROOT
ATOM      1  S   UNL     1       2.550   5.588  19.430  0.00  0.00    +0.000 S 
ATOM      2  O   UNL     1       2.453   5.201  20.835  0.00  0.00    +0.000 OA
ATOM      3  O   UNL     1       1.870   4.868  18.376  0.00  0.00    +0.000 OA
ENDROOT
BRANCH   1   4
ATOM      4  N   UNL     1       4.187   5.469  19.083  0.00  0.00    +0.000 N 
ATOM      5  C   UNL     1       4.966   4.485  19.651  0.00  0.00    +0.000 A 
ATOM      6  C   UNL     1       4.669   3.054  19.283  0.00  0.00    +0.000 C 
ATOM      7  N   UNL     1       6.174   5.034  19.680  0.00  0.00    +0.000 NA
ATOM      8  C   UNL     1       6.207   5.601  18.425  0.00  0.00    +0.000 A 
ATOM      9  C   UNL     1       7.324   5.805  17.609  0.00  0.00    +0.000 A 
ATOM     10  C   UNL     1       7.111   5.701  16.234  0.00  0.00    +0.000 A 
ATOM     11  C   UNL     1       5.816   5.560  15.712  0.00  0.00    +0.000 A 
ATOM     12  C   UNL     1       4.663   5.646  16.524  0.00  0.00    +0.000 A 
ATOM     13  C   UNL     1       4.900   5.680  17.904  0.00  0.00    +0.000 A 
ENDBRANCH   1   4
BRANCH   1  17
ATOM     14  C   UNL     1       1.220  10.028  18.965  0.00  0.00    +0.000 A 
ATOM     15  C   UNL     1       1.090   9.371  20.200  0.00  0.00    +0.000 A 
ATOM     16  C   UNL     1       1.522   8.040  20.376  0.00  0.00    +0.000 A 
ATOM     17  C   UNL     1       2.066   7.334  19.302  0.00  0.00    +0.000 A 
ATOM     18  C   UNL     1       2.203   7.982  18.061  0.00  0.00    +0.000 A 
ATOM     19  C   UNL     1       1.786   9.322  17.901  0.00  0.00    +0.000 A 
BRANCH  14  20
ATOM     20  O   UNL     1       0.720  11.308  18.922  0.00  0.00    +0.000 OA
BRANCH  20  22
ATOM     21  C   UNL     1      -1.533  10.940  18.100  0.00  0.00    +0.000 C 
ATOM     22  C   UNL     1      -0.667  11.497  19.229  0.00  0.00    +0.000 C 
ENDBRANCH  20  22
ENDBRANCH  14  20
ENDBRANCH   1  17
TORSDOF 4
ENDMDL
MODEL 4
REMARK VINA RESULT:      -7.1      3.878      7.256
REMARK  Name = 
REMARK  6 active torsions:
REMARK  status: ('A' for Active; 'I' for Inactive)
REMARK    1  A    between atoms: C_1  and  C_2
REMARK    2  A    between atoms: C_2  and  O_3
REMARK    3  A    between atoms: O_3  and  C_4
REMARK    4  A    between atoms: C_7  and  S_8
REMARK    5  A    between atoms: S_8  and  N_11
REMARK    6  A    between atoms: C_12  and  C_13
REMARK                            x       y       z     vdW  Elec       q    Type
REMARK                         _______ _______ _______ _____ _____    ______ ____
ROOT
ATOM      1  S   UNL     1       2.554   5.575  19.373  0.00  0.00    +0.000 S 
ATOM      2  O   UNL     1       2.423   5.157  20.766  0.00  0.00    +0.000 OA
ATOM      3  O   UNL     1       1.882   4.893  18.290  0.00  0.00    +0.000 OA
ENDROOT
BRANCH   1   4
ATOM      4  N   UNL     1       4.195   5.432  19.055  0.00  0.00    +0.000 N 
ATOM      5  C   UNL     1       4.947   4.430  19.625  0.00  0.00    +0.000 A 
ATOM      6  C   UNL     1       4.634   3.008  19.235  0.00  0.00    +0.000 C 
ATOM      7  N   UNL     1       6.164   4.958  19.682  0.00  0.00    +0.000 NA
ATOM      8  C   UNL     1       6.229   5.538  18.434  0.00  0.00    +0.000 A 
ATOM      9  C   UNL     1       7.363   5.732  17.641  0.00  0.00    +0.000 A 
ATOM     10  C   UNL     1       7.175   5.646  16.261  0.00  0.00    +0.000 A 
ATOM     11  C   UNL     1       5.887   5.534  15.715  0.00  0.00    +0.000 A 
ATOM     12  C   UNL     1       4.721   5.629  16.506  0.00  0.00    +0.000 A 
ATOM     13  C   UNL     1       4.934   5.644  17.891  0.00  0.00    +0.000 A 
ENDBRANCH   1   4
BRANCH   1  17
ATOM     14  C   UNL     1       1.314  10.048  18.990  0.00  0.00    +0.000 A 
ATOM     15  C   UNL     1       1.180   9.374  20.215  0.00  0.00    +0.000 A 
ATOM     16  C   UNL     1       1.584   8.031  20.366  0.00  0.00    +0.000 A 
ATOM     17  C   UNL     1       2.107   7.332  19.276  0.00  0.00    +0.000 A 
ATOM     18  C   UNL     1       2.248   7.997  18.045  0.00  0.00    +0.000 A 
ATOM     19  C   UNL     1       1.857   9.348  17.910  0.00  0.00    +0.000 A 
BRANCH  14  20
ATOM     20  O   UNL     1       0.840  11.338  18.971  0.00  0.00    +0.000 OA
BRANCH  20  22
ATOM     21  C   UNL     1       1.827  13.410  19.759  0.00  0.00    +0.000 C 
ATOM     22  C   UNL     1       1.757  12.386  18.627  0.00  0.00    +0.000 C 
ENDBRANCH  20  22
ENDBRANCH  14  20
ENDBRANCH   1  17
TORSDOF 4
ENDMDL
MODEL 5
REMARK VINA RESULT:      -7.1      3.900      7.262
REMARK  Name = 
REMARK  6 active torsions:
REMARK  status: ('A' for Active; 'I' for Inactive)
REMARK    1  A    between atoms: C_1  and  C_2
REMARK    2  A    between atoms: C_2  and  O_3
REMARK    3  A    between atoms: O_3  and  C_4
REMARK    4  A    between atoms: C_7  and  S_8
REMARK    5  A    between atoms: S_8  and  N_11
REMARK    6  A    between atoms: C_12  and  C_13
REMARK                            x       y       z     vdW  Elec       q    Type
REMARK                         _______ _______ _______ _____ _____    ______ ____
ROOT
ATOM      1  S   UNL     1       2.525   5.638  19.399  0.00  0.00    +0.000 S 
ATOM      2  O   UNL     1       2.427   5.303  20.816  0.00  0.00    +0.000 OA
ATOM      3  O   UNL     1       1.862   4.868  18.369  0.00  0.00    +0.000 OA
ENDROOT
BRANCH   1   4
ATOM      4  N   UNL     1       4.165   5.533  19.064  0.00  0.00    +0.000 N 
ATOM      5  C   UNL     1       4.951   4.567  19.651  0.00  0.00    +0.000 A 
ATOM      6  C   UNL     1       4.674   3.127  19.304  0.00  0.00    +0.000 C 
ATOM      7  N   UNL     1       6.154   5.130  19.680  0.00  0.00    +0.000 NA
ATOM      8  C   UNL     1       6.188   5.679  18.416  0.00  0.00    +0.000 A 
ATOM      9  C   UNL     1       7.307   5.883  17.605  0.00  0.00    +0.000 A 
ATOM     10  C   UNL     1       7.105   5.755  16.230  0.00  0.00    +0.000 A 
ATOM     11  C   UNL     1       5.815   5.592  15.702  0.00  0.00    +0.000 A 
ATOM     12  C   UNL     1       4.656   5.676  16.505  0.00  0.00    +0.000 A 
ATOM     13  C   UNL     1       4.884   5.734  17.886  0.00  0.00    +0.000 A 
ENDBRANCH   1   4
BRANCH   1  17
ATOM     14  C   UNL     1       1.304  10.118  19.028  0.00  0.00    +0.000 A 
ATOM     15  C   UNL     1       1.815   9.425  17.918  0.00  0.00    +0.000 A 
ATOM     16  C   UNL     1       2.155   8.058  17.995  0.00  0.00    +0.000 A 
ATOM     17  C   UNL     1       2.014   7.370  19.202  0.00  0.00    +0.000 A 
ATOM     18  C   UNL     1       1.501   8.053  20.319  0.00  0.00    +0.000 A 
ATOM     19  C   UNL     1       1.146   9.417  20.226  0.00  0.00    +0.000 A 
BRANCH  14  20
ATOM     20  O   UNL     1       1.056  11.455  18.825  0.00  0.00    +0.000 OA
BRANCH  20  22
ATOM     21  C   UNL     1      -1.169  12.218  18.230  0.00  0.00    +0.000 C 
ATOM     22  C   UNL     1      -0.159  12.001  19.356  0.00  0.00    +0.000 C 
ENDBRANCH  20  22
ENDBRANCH  14  20
ENDBRANCH   1  17
TORSDOF 4
ENDMDL
MODEL 6
REMARK VINA RESULT:      -7.0      4.166      7.093
REMARK  Name = 
REMARK  6 active torsions:
REMARK  status: ('A' for Active; 'I' for Inactive)
REMARK    1  A    between atoms: C_1  and  C_2
REMARK    2  A    between atoms: C_2  and  O_3
REMARK    3  A    between atoms: O_3  and  C_4
REMARK    4  A    between atoms: C_7  and  S_8
REMARK    5  A    between atoms: S_8  and  N_11
REMARK    6  A    between atoms: C_12  and  C_13
REMARK                            x       y       z     vdW  Elec       q    Type
REMARK                         _______ _______ _______ _____ _____    ______ ____
ROOT
ATOM      1  S   UNL     1       3.760   6.429  18.144  0.00  0.00    +0.000 S 
ATOM      2  O   UNL     1       4.158   6.656  16.758  0.00  0.00    +0.000 OA
ATOM      3  O   UNL     1       4.721   6.275  19.214  0.00  0.00    +0.000 OA
ENDROOT
BRANCH   1   4
ATOM      4  N   UNL     1       2.899   4.990  18.093  0.00  0.00    +0.000 N 
ATOM      5  C   UNL     1       3.305   3.944  17.296  0.00  0.00    +0.000 A 
ATOM      6  C   UNL     1       4.616   3.277  17.626  0.00  0.00    +0.000 C 
ATOM      7  N   UNL     1       2.171   3.310  17.024  0.00  0.00    +0.000 NA
ATOM      8  C   UNL     1       1.588   3.322  18.272  0.00  0.00    +0.000 A 
ATOM      9  C   UNL     1       0.721   2.372  18.819  0.00  0.00    +0.000 A 
ATOM     10  C   UNL     1       0.817   2.166  20.195  0.00  0.00    +0.000 A 
ATOM     11  C   UNL     1       1.628   2.989  20.992  0.00  0.00    +0.000 A 
ATOM     12  C   UNL     1       2.279   4.132  20.479  0.00  0.00    +0.000 A 
ATOM     13  C   UNL     1       2.226   4.279  19.086  0.00  0.00    +0.000 A 
ENDBRANCH   1   4
BRANCH   1  17
ATOM     14  C   UNL     1       0.746   9.811  19.225  0.00  0.00    +0.000 A 
ATOM     15  C   UNL     1       1.077   8.825  20.168  0.00  0.00    +0.000 A 
ATOM     16  C   UNL     1       2.016   7.813  19.877  0.00  0.00    +0.000 A 
ATOM     17  C   UNL     1       2.619   7.759  18.619  0.00  0.00    +0.000 A 
ATOM     18  C   UNL     1       2.297   8.743  17.668  0.00  0.00    +0.000 A 
ATOM     19  C   UNL     1       1.369   9.763  17.976  0.00  0.00    +0.000 A 
BRANCH  14  20
ATOM     20  O   UNL     1      -0.215  10.710  19.624  0.00  0.00    +0.000 OA
BRANCH  20  22
ATOM     21  C   UNL     1      -2.108  10.256  18.176  0.00  0.00    +0.000 C 
ATOM     22  C   UNL     1      -1.062  11.279  18.617  0.00  0.00    +0.000 C 
ENDBRANCH  20  22
ENDBRANCH  14  20
ENDBRANCH   1  17
TORSDOF 4
ENDMDL
MODEL 7
REMARK VINA RESULT:      -6.9      2.121      3.122
REMARK  Name = 
REMARK  6 active torsions:
REMARK  status: ('A' for Active; 'I' for Inactive)
REMARK    1  A    between atoms: C_1  and  C_2
REMARK    2  A    between atoms: C_2  and  O_3
REMARK    3  A    between atoms: O_3  and  C_4
REMARK    4  A    between atoms: C_7  and  S_8
REMARK    5  A    between atoms: S_8  and  N_11
REMARK    6  A    between atoms: C_12  and  C_13
REMARK                            x       y       z     vdW  Elec       q    Type
REMARK                         _______ _______ _______ _____ _____    ______ ____
ROOT
ATOM      1  S   UNL     1       5.584   5.602  18.524  0.00  0.00    +0.000 S 
ATOM      2  O   UNL     1       6.468   4.764  19.329  0.00  0.00    +0.000 OA
ATOM      3  O   UNL     1       5.660   7.046  18.533  0.00  0.00    +0.000 OA
ENDROOT
BRANCH   1   4
ATOM      4  N   UNL     1       4.045   5.221  19.072  0.00  0.00    +0.000 N 
ATOM      5  C   UNL     1       3.064   6.182  19.166  0.00  0.00    +0.000 A 
ATOM      6  C   UNL     1       2.574   6.813  17.888  0.00  0.00    +0.000 C 
ATOM      7  N   UNL     1       2.288   5.730  20.144  0.00  0.00    +0.000 NA
ATOM      8  C   UNL     1       2.219   4.399  19.795  0.00  0.00    +0.000 A 
ATOM      9  C   UNL     1       1.161   3.513  20.015  0.00  0.00    +0.000 A 
ATOM     10  C   UNL     1       0.965   2.531  19.044  0.00  0.00    +0.000 A 
ATOM     11  C   UNL     1       1.884   2.357  17.998  0.00  0.00    +0.000 A 
ATOM     12  C   UNL     1       3.105   3.066  17.940  0.00  0.00    +0.000 A 
ATOM     13  C   UNL     1       3.248   4.092  18.883  0.00  0.00    +0.000 A 
ENDBRANCH   1   4
BRANCH   1  17
ATOM     14  C   UNL     1       6.019   4.349  14.059  0.00  0.00    +0.000 A 
ATOM     15  C   UNL     1       6.430   3.482  15.084  0.00  0.00    +0.000 A 
ATOM     16  C   UNL     1       6.273   3.823  16.444  0.00  0.00    +0.000 A 
ATOM     17  C   UNL     1       5.724   5.057  16.797  0.00  0.00    +0.000 A 
ATOM     18  C   UNL     1       5.307   5.933  15.778  0.00  0.00    +0.000 A 
ATOM     19  C   UNL     1       5.452   5.573  14.419  0.00  0.00    +0.000 A 
BRANCH  14  20
ATOM     20  O   UNL     1       6.271   3.911  12.780  0.00  0.00    +0.000 OA
BRANCH  20  22
ATOM     21  C   UNL     1       4.263   3.444  11.500  0.00  0.00    +0.000 C 
ATOM     22  C   UNL     1       5.452   2.856  12.258  0.00  0.00    +0.000 C 
ENDBRANCH  20  22
ENDBRANCH  14  20
ENDBRANCH   1  17
TORSDOF 4
ENDMDL
MODEL 8
REMARK VINA RESULT:      -6.9      4.164      7.175
REMARK  Name = 
REMARK  6 active torsions:
REMARK  status: ('A' for Active; 'I' for Inactive)
REMARK    1  A    between atoms: C_1  and  C_2
REMARK    2  A    between atoms: C_2  and  O_3
REMARK    3  A    between atoms: O_3  and  C_4
REMARK    4  A    between atoms: C_7  and  S_8
REMARK    5  A    between atoms: S_8  and  N_11
REMARK    6  A    between atoms: C_12  and  C_13
REMARK                            x       y       z     vdW  Elec       q    Type
REMARK                         _______ _______ _______ _____ _____    ______ ____
ROOT
ATOM      1  S   UNL     1       3.743   6.441  18.131  0.00  0.00    +0.000 S 
ATOM      2  O   UNL     1       4.175   6.648  16.752  0.00  0.00    +0.000 OA
ATOM      3  O   UNL     1       4.677   6.313  19.228  0.00  0.00    +0.000 OA
ENDROOT
BRANCH   1   4
ATOM      4  N   UNL     1       2.894   4.995  18.083  0.00  0.00    +0.000 N 
ATOM      5  C   UNL     1       3.316   3.947  17.297  0.00  0.00    +0.000 A 
ATOM      6  C   UNL     1       4.629   3.293  17.642  0.00  0.00    +0.000 C 
ATOM      7  N   UNL     1       2.189   3.302  17.020  0.00  0.00    +0.000 NA
ATOM      8  C   UNL     1       1.596   3.317  18.264  0.00  0.00    +0.000 A 
ATOM      9  C   UNL     1       0.732   2.363  18.809  0.00  0.00    +0.000 A 
ATOM     10  C   UNL     1       0.819   2.168  20.188  0.00  0.00    +0.000 A 
ATOM     11  C   UNL     1       1.616   3.003  20.986  0.00  0.00    +0.000 A 
ATOM     12  C   UNL     1       2.262   4.148  20.470  0.00  0.00    +0.000 A 
ATOM     13  C   UNL     1       2.219   4.285  19.076  0.00  0.00    +0.000 A 
ENDBRANCH   1   4
BRANCH   1  17
ATOM     14  C   UNL     1       0.847   9.877  19.356  0.00  0.00    +0.000 A 
ATOM     15  C   UNL     1       1.421   9.853  18.075  0.00  0.00    +0.000 A 
ATOM     16  C   UNL     1       2.270   8.803  17.667  0.00  0.00    +0.000 A 
ATOM     17  C   UNL     1       2.580   7.770  18.555  0.00  0.00    +0.000 A 
ATOM     18  C   UNL     1       2.009   7.783  19.840  0.00  0.00    +0.000 A 
ATOM     19  C   UNL     1       1.145   8.830  20.231  0.00  0.00    +0.000 A 
BRANCH  14  20
ATOM     20  O   UNL     1       0.075  10.980  19.637  0.00  0.00    +0.000 OA
BRANCH  20  22
ATOM     21  C   UNL     1      -1.985  10.589  18.416  0.00  0.00    +0.000 C 
ATOM     22  C   UNL     1      -0.766  11.493  18.595  0.00  0.00    +0.000 C 
ENDBRANCH  20  22
ENDBRANCH  14  20
ENDBRANCH   1  17
TORSDOF 4
ENDMDL
MODEL 9
REMARK VINA RESULT:      -6.9      0.866      1.120
REMARK  Name = 
REMARK  6 active torsions:
REMARK  status: ('A' for Active; 'I' for Inactive)
REMARK    1  A    between atoms: C_1  and  C_2
REMARK    2  A    between atoms: C_2  and  O_3
REMARK    3  A    between atoms: O_3  and  C_4
REMARK    4  A    between atoms: C_7  and  S_8
REMARK    5  A    between atoms: S_8  and  N_11
REMARK    6  A    between atoms: C_12  and  C_13
REMARK                            x       y       z     vdW  Elec       q    Type
REMARK                         _______ _______ _______ _____ _____    ______ ____
ROOT
ATOM      1  S   UNL     1       7.265   5.191  16.465  0.00  0.00    +0.000 S 
ATOM      2  O   UNL     1       8.277   4.247  16.932  0.00  0.00    +0.000 OA
ATOM      3  O   UNL     1       7.515   6.613  16.364  0.00  0.00    +0.000 OA
ENDROOT
BRANCH   1   4
ATOM      4  N   UNL     1       6.010   5.025  17.566  0.00  0.00    +0.000 N 
ATOM      5  C   UNL     1       6.254   4.716  18.885  0.00  0.00    +0.000 A 
ATOM      6  C   UNL     1       6.999   5.727  19.718  0.00  0.00    +0.000 C 
ATOM      7  N   UNL     1       5.150   4.081  19.258  0.00  0.00    +0.000 NA
ATOM      8  C   UNL     1       4.201   4.898  18.682  0.00  0.00    +0.000 A 
ATOM      9  C   UNL     1       2.906   5.157  19.140  0.00  0.00    +0.000 A 
ATOM     10  C   UNL     1       2.408   6.436  18.894  0.00  0.00    +0.000 A 
ATOM     11  C   UNL     1       3.116   7.344  18.091  0.00  0.00    +0.000 A 
ATOM     12  C   UNL     1       4.288   6.979  17.392  0.00  0.00    +0.000 A 
ATOM     13  C   UNL     1       4.806   5.716  17.708  0.00  0.00    +0.000 A 
ENDBRANCH   1   4
BRANCH   1  17
ATOM     14  C   UNL     1       5.909   3.652  12.284  0.00  0.00    +0.000 A 
ATOM     15  C   UNL     1       5.090   3.469  13.410  0.00  0.00    +0.000 A 
ATOM     16  C   UNL     1       5.461   3.961  14.679  0.00  0.00    +0.000 A 
ATOM     17  C   UNL     1       6.680   4.621  14.844  0.00  0.00    +0.000 A 
ATOM     18  C   UNL     1       7.508   4.812  13.723  0.00  0.00    +0.000 A 
ATOM     19  C   UNL     1       7.118   4.332  12.453  0.00  0.00    +0.000 A 
BRANCH  14  20
ATOM     20  O   UNL     1       5.448   3.085  11.120  0.00  0.00    +0.000 OA
BRANCH  20  22
ATOM     21  C   UNL     1       6.667   0.990  11.018  0.00  0.00    +0.000 C 
ATOM     22  C   UNL     1       5.295   1.660  11.081  0.00  0.00    +0.000 C 
ENDBRANCH  20  22
ENDBRANCH  14  20
ENDBRANCH   1  17
TORSDOF 4
ENDMDL
