MODEL 1
REMARK VINA RESULT:      -9.8      0.000      0.000
REMARK  Name = 
REMARK  5 active torsions:
REMARK  status: ('A' for Active; 'I' for Inactive)
REMARK    1  A    between atoms: N_9  and  C_10
REMARK    2  A    between atoms: C_10  and  C_11
REMARK    3  A    between atoms: C_11  and  C_12
REMARK    4  A    between atoms: C_12  and  C_13
REMARK    5  A    between atoms: C_13  and  N_14
REMARK                            x       y       z     vdW  Elec       q    Type
REMARK                         _______ _______ _______ _____ _____    ______ ____
ROOT
ATOM      1  N   UNL     1       2.243   5.777  18.816  0.00  0.00    +0.000 NA
ATOM      2  C   UNL     1       2.235   4.608  17.836  0.00  0.00    +0.000 C 
ATOM      3  C   UNL     1       1.271   3.838  18.757  0.00  0.00    +0.000 C 
ATOM      4  C   UNL     1       2.071   3.939  20.084  0.00  0.00    +0.000 C 
ATOM      5  C   UNL     1       2.997   5.177  19.880  0.00  0.00    +0.000 C 
ATOM      6  C   UNL     1       4.374   5.029  19.265  0.00  0.00    +0.000 A 
ATOM      7  C   UNL     1       4.620   3.877  18.596  0.00  0.00    +0.000 A 
ATOM      8  N   UNL     1       5.990   3.815  18.884  0.00  0.00    +0.000 N 
ATOM      9  C   UNL     1       6.451   5.154  18.767  0.00  0.00    +0.000 A 
ATOM     10  C   UNL     1       7.541   5.972  18.933  0.00  0.00    +0.000 A 
ATOM     11  C   UNL     1       7.618   6.965  17.932  0.00  0.00    +0.000 A 
ATOM     12  C   UNL     1       6.659   7.016  16.907  0.00  0.00    +0.000 A 
ATOM     13  C   UNL     1       5.419   6.394  17.120  0.00  0.00    +0.000 A 
ATOM     14  C   UNL     1       5.270   5.764  18.381  0.00  0.00    +0.000 A 
ATOM     15  C   UNL     1       3.514   3.409  17.708  0.00  0.00    +0.000 C 
ATOM     16  H   UNL     1       6.350   3.205  19.603  0.00  0.00    +0.000 HD
ENDROOT
BRANCH   1  17
ATOM     17  C   UNL     1       2.662   7.169  18.850  0.00  0.00    +0.000 C 
BRANCH  17  18
ATOM     18  C   UNL     1       2.449   8.108  17.694  0.00  0.00    +0.000 C 
BRANCH  18  19
ATOM     19  C   UNL     1       1.999   9.501  18.125  0.00  0.00    +0.000 C 
BRANCH  19  20
ATOM     20  C   UNL     1       0.470   9.671  18.091  0.00  0.00    +0.000 C 
BRANCH  20  29
ATOM     21  C   UNL     1      -0.722  10.127  23.179  0.00  0.00    +0.000 A 
ATOM     22  C   UNL     1      -0.342   8.973  22.505  0.00  0.00    +0.000 A 
ATOM     23  C   UNL     1      -0.070   8.990  21.132  0.00  0.00    +0.000 A 
ATOM     24  C   UNL     1      -0.192  10.232  20.449  0.00  0.00    +0.000 A 
ATOM     25  C   UNL     1      -0.575  11.397  21.121  0.00  0.00    +0.000 A 
ATOM     26  C   UNL     1      -0.862  11.338  22.492  0.00  0.00    +0.000 A 
ATOM     27  C   UNL     1      -0.606  12.441  20.157  0.00  0.00    +0.000 A 
ATOM     28  C   UNL     1      -0.263  11.905  18.949  0.00  0.00    +0.000 A 
ATOM     29  N   UNL     1       0.009  10.567  19.138  0.00  0.00    +0.000 N 
ENDBRANCH  20  29
ENDBRANCH  19  20
ENDBRANCH  18  19
ENDBRANCH  17  18
ENDBRANCH   1  17
TORSDOF 5
ENDMDL
MODEL 2
REMARK VINA RESULT:      -9.6      1.297      2.213
REMARK  Name = 
REMARK  5 active torsions:
REMARK  status: ('A' for Active; 'I' for Inactive)
REMARK    1  A    between atoms: N_9  and  C_10
REMARK    2  A    between atoms: C_10  and  C_11
REMARK    3  A    between atoms: C_11  and  C_12
REMARK    4  A    between atoms: C_12  and  C_13
REMARK    5  A    between atoms: C_13  and  N_14
REMARK                            x       y       z     vdW  Elec       q    Type
REMARK                         _______ _______ _______ _____ _____    ______ ____
ROOT
ATOM      1  N   UNL     1       2.308   5.884  18.715  0.00  0.00    +0.000 NA
ATOM      2  C   UNL     1       2.317   4.738  17.709  0.00  0.00    +0.000 C 
ATOM      3  C   UNL     1       1.289   3.974  18.564  0.00  0.00    +0.000 C 
ATOM      4  C   UNL     1       2.024   4.024  19.930  0.00  0.00    +0.000 C 
ATOM      5  C   UNL     1       2.992   5.240  19.801  0.00  0.00    +0.000 C 
ATOM      6  C   UNL     1       4.393   5.069  19.250  0.00  0.00    +0.000 A 
ATOM      7  C   UNL     1       4.642   3.926  18.568  0.00  0.00    +0.000 A 
ATOM      8  N   UNL     1       5.994   3.819  18.922  0.00  0.00    +0.000 N 
ATOM      9  C   UNL     1       6.495   5.148  18.858  0.00  0.00    +0.000 A 
ATOM     10  C   UNL     1       7.597   5.932  19.097  0.00  0.00    +0.000 A 
ATOM     11  C   UNL     1       7.749   6.944  18.123  0.00  0.00    +0.000 A 
ATOM     12  C   UNL     1       6.844   7.043  17.054  0.00  0.00    +0.000 A 
ATOM     13  C   UNL     1       5.579   6.451  17.192  0.00  0.00    +0.000 A 
ATOM     14  C   UNL     1       5.351   5.798  18.429  0.00  0.00    +0.000 A 
ATOM     15  C   UNL     1       3.569   3.507  17.616  0.00  0.00    +0.000 C 
ATOM     16  H   UNL     1       6.302   3.184  19.643  0.00  0.00    +0.000 HD
ENDROOT
BRANCH   1  17
ATOM     17  C   UNL     1       2.761   7.263  18.801  0.00  0.00    +0.000 C 
BRANCH  17  18
ATOM     18  C   UNL     1       2.600   8.242  17.670  0.00  0.00    +0.000 C 
BRANCH  18  19
ATOM     19  C   UNL     1       1.833   9.501  18.067  0.00  0.00    +0.000 C 
BRANCH  19  20
ATOM     20  C   UNL     1       1.047   9.332  19.378  0.00  0.00    +0.000 C 
BRANCH  20  29
ATOM     21  C   UNL     1      -3.412  11.084  17.242  0.00  0.00    +0.000 A 
ATOM     22  C   UNL     1      -2.581  10.084  16.752  0.00  0.00    +0.000 A 
ATOM     23  C   UNL     1      -1.403   9.727  17.417  0.00  0.00    +0.000 A 
ATOM     24  C   UNL     1      -1.086  10.421  18.618  0.00  0.00    +0.000 A 
ATOM     25  C   UNL     1      -1.916  11.430  19.117  0.00  0.00    +0.000 A 
ATOM     26  C   UNL     1      -3.078  11.777  18.412  0.00  0.00    +0.000 A 
ATOM     27  C   UNL     1      -1.313  11.914  20.308  0.00  0.00    +0.000 A 
ATOM     28  C   UNL     1      -0.152  11.220  20.500  0.00  0.00    +0.000 A 
ATOM     29  N   UNL     1      -0.032  10.300  19.482  0.00  0.00    +0.000 N 
ENDBRANCH  20  29
ENDBRANCH  19  20
ENDBRANCH  18  19
ENDBRANCH  17  18
ENDBRANCH   1  17
TORSDOF 5
ENDMDL
MODEL 3
REMARK VINA RESULT:      -9.5      0.675      1.585
REMARK  Name = 
REMARK  5 active torsions:
REMARK  status: ('A' for Active; 'I' for Inactive)
REMARK    1  A    between atoms: N_9  and  C_10
REMARK    2  A    between atoms: C_10  and  C_11
REMARK    3  A    between atoms: C_11  and  C_12
REMARK    4  A    between atoms: C_12  and  C_13
REMARK    5  A    between atoms: C_13  and  N_14
REMARK                            x       y       z     vdW  Elec       q    Type
REMARK                         _______ _______ _______ _____ _____    ______ ____
ROOT
ATOM      1  N   UNL     1       2.226   5.707  18.801  0.00  0.00    +0.000 NA
ATOM      2  C   UNL     1       2.237   4.568  17.788  0.00  0.00    +0.000 C 
ATOM      3  C   UNL     1       1.273   3.761  18.678  0.00  0.00    +0.000 C 
ATOM      4  C   UNL     1       2.061   3.831  20.014  0.00  0.00    +0.000 C 
ATOM      5  C   UNL     1       2.977   5.083  19.854  0.00  0.00    +0.000 C 
ATOM      6  C   UNL     1       4.360   4.967  19.247  0.00  0.00    +0.000 A 
ATOM      7  C   UNL     1       4.623   3.838  18.547  0.00  0.00    +0.000 A 
ATOM      8  N   UNL     1       5.992   3.780  18.846  0.00  0.00    +0.000 N 
ATOM      9  C   UNL     1       6.440   5.127  18.771  0.00  0.00    +0.000 A 
ATOM     10  C   UNL     1       7.521   5.950  18.971  0.00  0.00    +0.000 A 
ATOM     11  C   UNL     1       7.596   6.973  17.999  0.00  0.00    +0.000 A 
ATOM     12  C   UNL     1       6.645   7.044  16.969  0.00  0.00    +0.000 A 
ATOM     13  C   UNL     1       5.410   6.404  17.152  0.00  0.00    +0.000 A 
ATOM     14  C   UNL     1       5.257   5.736  18.393  0.00  0.00    +0.000 A 
ATOM     15  C   UNL     1       3.529   3.384  17.636  0.00  0.00    +0.000 C 
ATOM     16  H   UNL     1       6.352   3.153  19.549  0.00  0.00    +0.000 HD
ENDROOT
BRANCH   1  17
ATOM     17  C   UNL     1       2.631   7.102  18.879  0.00  0.00    +0.000 C 
BRANCH  17  18
ATOM     18  C   UNL     1       2.208   8.126  17.862  0.00  0.00    +0.000 C 
BRANCH  18  19
ATOM     19  C   UNL     1       1.955   9.505  18.466  0.00  0.00    +0.000 C 
BRANCH  19  20
ATOM     20  C   UNL     1       0.470   9.754  18.785  0.00  0.00    +0.000 C 
BRANCH  20  29
ATOM     21  C   UNL     1      -2.095  12.275  22.603  0.00  0.00    +0.000 A 
ATOM     22  C   UNL     1      -2.110  12.568  21.245  0.00  0.00    +0.000 A 
ATOM     23  C   UNL     1      -1.358  11.820  20.332  0.00  0.00    +0.000 A 
ATOM     24  C   UNL     1      -0.578  10.744  20.842  0.00  0.00    +0.000 A 
ATOM     25  C   UNL     1      -0.558  10.445  22.207  0.00  0.00    +0.000 A 
ATOM     26  C   UNL     1      -1.306  11.230  23.096  0.00  0.00    +0.000 A 
ATOM     27  C   UNL     1       0.314   9.336  22.376  0.00  0.00    +0.000 A 
ATOM     28  C   UNL     1       0.803   8.998  21.147  0.00  0.00    +0.000 A 
ATOM     29  N   UNL     1       0.240   9.844  20.217  0.00  0.00    +0.000 N 
ENDBRANCH  20  29
ENDBRANCH  19  20
ENDBRANCH  18  19
ENDBRANCH  17  18
ENDBRANCH   1  17
TORSDOF 5
ENDMDL
MODEL 4
REMARK VINA RESULT:      -9.3      1.127      1.305
REMARK  Name = 
REMARK  5 active torsions:
REMARK  status: ('A' for Active; 'I' for Inactive)
REMARK    1  A    between atoms: N_9  and  C_10
REMARK    2  A    between atoms: C_10  and  C_11
REMARK    3  A    between atoms: C_11  and  C_12
REMARK    4  A    between atoms: C_12  and  C_13
REMARK    5  A    between atoms: C_13  and  N_14
REMARK                            x       y       z     vdW  Elec       q    Type
REMARK                         _______ _______ _______ _____ _____    ______ ____
ROOT
ATOM      1  N   UNL     1       2.010   5.568  18.681  0.00  0.00    +0.000 NA
ATOM      2  C   UNL     1       1.719   4.071  18.715  0.00  0.00    +0.000 C 
ATOM      3  C   UNL     1       1.064   4.226  20.100  0.00  0.00    +0.000 C 
ATOM      4  C   UNL     1       2.213   4.971  20.831  0.00  0.00    +0.000 C 
ATOM      5  C   UNL     1       3.040   5.623  19.680  0.00  0.00    +0.000 C 
ATOM      6  C   UNL     1       4.180   4.876  19.017  0.00  0.00    +0.000 A 
ATOM      7  C   UNL     1       4.223   3.536  19.212  0.00  0.00    +0.000 A 
ATOM      8  N   UNL     1       5.618   3.412  19.159  0.00  0.00    +0.000 N 
ATOM      9  C   UNL     1       6.024   4.280  18.110  0.00  0.00    +0.000 A 
ATOM     10  C   UNL     1       7.116   4.807  17.465  0.00  0.00    +0.000 A 
ATOM     11  C   UNL     1       6.898   4.938  16.075  0.00  0.00    +0.000 A 
ATOM     12  C   UNL     1       5.684   4.525  15.504  0.00  0.00    +0.000 A 
ATOM     13  C   UNL     1       4.559   4.409  16.335  0.00  0.00    +0.000 A 
ATOM     14  C   UNL     1       4.782   4.730  17.698  0.00  0.00    +0.000 A 
ATOM     15  C   UNL     1       2.907   2.836  19.108  0.00  0.00    +0.000 C 
ATOM     16  H   UNL     1       6.171   3.319  19.998  0.00  0.00    +0.000 HD
ENDROOT
BRANCH   1  17
ATOM     17  C   UNL     1       2.420   6.578  17.719  0.00  0.00    +0.000 C 
BRANCH  17  18
ATOM     18  C   UNL     1       2.699   8.004  18.109  0.00  0.00    +0.000 C 
BRANCH  18  19
ATOM     19  C   UNL     1       1.494   8.924  17.928  0.00  0.00    +0.000 C 
BRANCH  19  20
ATOM     20  C   UNL     1       1.757  10.355  18.426  0.00  0.00    +0.000 C 
BRANCH  20  29
ATOM     21  C   UNL     1      -0.474  10.015  23.161  0.00  0.00    +0.000 A 
ATOM     22  C   UNL     1       0.604   9.279  22.685  0.00  0.00    +0.000 A 
ATOM     23  C   UNL     1       1.089   9.459  21.385  0.00  0.00    +0.000 A 
ATOM     24  C   UNL     1       0.442  10.426  20.566  0.00  0.00    +0.000 A 
ATOM     25  C   UNL     1      -0.644  11.169  21.038  0.00  0.00    +0.000 A 
ATOM     26  C   UNL     1      -1.118  10.946  22.339  0.00  0.00    +0.000 A 
ATOM     27  C   UNL     1      -1.052  12.026  19.981  0.00  0.00    +0.000 A 
ATOM     28  C   UNL     1      -0.238  11.786  18.911  0.00  0.00    +0.000 A 
ATOM     29  N   UNL     1       0.682  10.829  19.281  0.00  0.00    +0.000 N 
ENDBRANCH  20  29
ENDBRANCH  19  20
ENDBRANCH  18  19
ENDBRANCH  17  18
ENDBRANCH   1  17
TORSDOF 5
ENDMDL
MODEL 5
REMARK VINA RESULT:      -9.1      1.784      2.587
REMARK  Name = 
REMARK  5 active torsions:
REMARK  status: ('A' for Active; 'I' for Inactive)
REMARK    1  A    between atoms: N_9  and  C_10
REMARK    2  A    between atoms: C_10  and  C_11
REMARK    3  A    between atoms: C_11  and  C_12
REMARK    4  A    between atoms: C_12  and  C_13
REMARK    5  A    between atoms: C_13  and  N_14
REMARK                            x       y       z     vdW  Elec       q    Type
REMARK                         _______ _______ _______ _____ _____    ______ ____
ROOT
ATOM      1  N   UNL     1       1.951   5.388  18.830  0.00  0.00    +0.000 NA
ATOM      2  C   UNL     1       1.666   3.891  18.790  0.00  0.00    +0.000 C 
ATOM      3  C   UNL     1       1.019   3.973  20.185  0.00  0.00    +0.000 C 
ATOM      4  C   UNL     1       2.170   4.686  20.945  0.00  0.00    +0.000 C 
ATOM      5  C   UNL     1       2.987   5.398  19.823  0.00  0.00    +0.000 C 
ATOM      6  C   UNL     1       4.126   4.690  19.117  0.00  0.00    +0.000 A 
ATOM      7  C   UNL     1       4.175   3.342  19.244  0.00  0.00    +0.000 A 
ATOM      8  N   UNL     1       5.570   3.226  19.176  0.00  0.00    +0.000 N 
ATOM      9  C   UNL     1       5.966   4.149  18.169  0.00  0.00    +0.000 A 
ATOM     10  C   UNL     1       7.051   4.712  17.544  0.00  0.00    +0.000 A 
ATOM     11  C   UNL     1       6.824   4.911  16.164  0.00  0.00    +0.000 A 
ATOM     12  C   UNL     1       5.608   4.522  15.581  0.00  0.00    +0.000 A 
ATOM     13  C   UNL     1       4.489   4.360  16.412  0.00  0.00    +0.000 A 
ATOM     14  C   UNL     1       4.720   4.613  17.788  0.00  0.00    +0.000 A 
ATOM     15  C   UNL     1       2.862   2.642  19.113  0.00  0.00    +0.000 C 
ATOM     16  H   UNL     1       6.129   3.095  20.005  0.00  0.00    +0.000 HD
ENDROOT
BRANCH   1  17
ATOM     17  C   UNL     1       2.350   6.447  17.916  0.00  0.00    +0.000 C 
BRANCH  17  18
ATOM     18  C   UNL     1       2.795   7.803  18.392  0.00  0.00    +0.000 C 
BRANCH  18  19
ATOM     19  C   UNL     1       1.653   8.649  18.952  0.00  0.00    +0.000 C 
BRANCH  19  20
ATOM     20  C   UNL     1       1.054   9.607  17.908  0.00  0.00    +0.000 C 
BRANCH  20  29
ATOM     21  C   UNL     1      -3.986  11.036  17.640  0.00  0.00    +0.000 A 
ATOM     22  C   UNL     1      -3.310  10.176  16.784  0.00  0.00    +0.000 A 
ATOM     23  C   UNL     1      -1.950   9.895  16.961  0.00  0.00    +0.000 A 
ATOM     24  C   UNL     1      -1.283  10.518  18.053  0.00  0.00    +0.000 A 
ATOM     25  C   UNL     1      -1.958  11.385  18.918  0.00  0.00    +0.000 A 
ATOM     26  C   UNL     1      -3.314  11.662  18.697  0.00  0.00    +0.000 A 
ATOM     27  C   UNL     1      -1.011  11.832  19.879  0.00  0.00    +0.000 A 
ATOM     28  C   UNL     1       0.190  11.255  19.582  0.00  0.00    +0.000 A 
ATOM     29  N   UNL     1       0.012  10.440  18.485  0.00  0.00    +0.000 N 
ENDBRANCH  20  29
ENDBRANCH  19  20
ENDBRANCH  18  19
ENDBRANCH  17  18
ENDBRANCH   1  17
TORSDOF 5
ENDMDL
MODEL 6
REMARK VINA RESULT:      -9.1      0.847      1.135
REMARK  Name = 
REMARK  5 active torsions:
REMARK  status: ('A' for Active; 'I' for Inactive)
REMARK    1  A    between atoms: N_9  and  C_10
REMARK    2  A    between atoms: C_10  and  C_11
REMARK    3  A    between atoms: C_11  and  C_12
REMARK    4  A    between atoms: C_12  and  C_13
REMARK    5  A    between atoms: C_13  and  N_14
REMARK                            x       y       z     vdW  Elec       q    Type
REMARK                         _______ _______ _______ _____ _____    ______ ____
ROOT
ATOM      1  N   UNL     1       2.199   5.779  18.935  0.00  0.00    +0.000 NA
ATOM      2  C   UNL     1       2.144   4.549  18.034  0.00  0.00    +0.000 C 
ATOM      3  C   UNL     1       1.234   3.839  19.053  0.00  0.00    +0.000 C 
ATOM      4  C   UNL     1       2.102   4.027  20.327  0.00  0.00    +0.000 C 
ATOM      5  C   UNL     1       3.011   5.250  19.995  0.00  0.00    +0.000 C 
ATOM      6  C   UNL     1       4.354   5.065  19.318  0.00  0.00    +0.000 A 
ATOM      7  C   UNL     1       4.570   3.872  18.713  0.00  0.00    +0.000 A 
ATOM      8  N   UNL     1       5.954   3.830  18.932  0.00  0.00    +0.000 N 
ATOM      9  C   UNL     1       6.401   5.160  18.704  0.00  0.00    +0.000 A 
ATOM     10  C   UNL     1       7.495   5.988  18.760  0.00  0.00    +0.000 A 
ATOM     11  C   UNL     1       7.515   6.914  17.693  0.00  0.00    +0.000 A 
ATOM     12  C   UNL     1       6.503   6.897  16.720  0.00  0.00    +0.000 A 
ATOM     13  C   UNL     1       5.279   6.289  17.038  0.00  0.00    +0.000 A 
ATOM     14  C   UNL     1       5.199   5.742  18.343  0.00  0.00    +0.000 A 
ATOM     15  C   UNL     1       3.421   3.345  17.917  0.00  0.00    +0.000 C 
ATOM     16  H   UNL     1       6.354   3.269  19.669  0.00  0.00    +0.000 HD
ENDROOT
BRANCH   1  17
ATOM     17  C   UNL     1       2.613   7.171  18.856  0.00  0.00    +0.000 C 
BRANCH  17  18
ATOM     18  C   UNL     1       2.142   8.096  17.768  0.00  0.00    +0.000 C 
BRANCH  18  19
ATOM     19  C   UNL     1       1.912   9.527  18.251  0.00  0.00    +0.000 C 
BRANCH  19  20
ATOM     20  C   UNL     1       0.976   9.602  19.469  0.00  0.00    +0.000 C 
BRANCH  20  29
ATOM     21  C   UNL     1      -1.212  12.724  23.072  0.00  0.00    +0.000 A 
ATOM     22  C   UNL     1      -1.311  11.341  22.987  0.00  0.00    +0.000 A 
ATOM     23  C   UNL     1      -0.688  10.630  21.955  0.00  0.00    +0.000 A 
ATOM     24  C   UNL     1       0.056  11.373  20.995  0.00  0.00    +0.000 A 
ATOM     25  C   UNL     1       0.159  12.765  21.075  0.00  0.00    +0.000 A 
ATOM     26  C   UNL     1      -0.497  13.446  22.110  0.00  0.00    +0.000 A 
ATOM     27  C   UNL     1       0.954  13.186  19.975  0.00  0.00    +0.000 A 
ATOM     28  C   UNL     1       1.299  12.075  19.260  0.00  0.00    +0.000 A 
ATOM     29  N   UNL     1       0.769  10.975  19.898  0.00  0.00    +0.000 N 
ENDBRANCH  20  29
ENDBRANCH  19  20
ENDBRANCH  18  19
ENDBRANCH  17  18
ENDBRANCH   1  17
TORSDOF 5
ENDMDL
MODEL 7
REMARK VINA RESULT:      -9.1      1.244      2.070
REMARK  Name = 
REMARK  5 active torsions:
REMARK  status: ('A' for Active; 'I' for Inactive)
REMARK    1  A    between atoms: N_9  and  C_10
REMARK    2  A    between atoms: C_10  and  C_11
REMARK    3  A    between atoms: C_11  and  C_12
REMARK    4  A    between atoms: C_12  and  C_13
REMARK    5  A    between atoms: C_13  and  N_14
REMARK                            x       y       z     vdW  Elec       q    Type
REMARK                         _______ _______ _______ _____ _____    ______ ____
ROOT
ATOM      1  N   UNL     1       2.223   5.837  18.903  0.00  0.00    +0.000 NA
ATOM      2  C   UNL     1       1.857   4.393  18.573  0.00  0.00    +0.000 C 
ATOM      3  C   UNL     1       1.150   4.257  19.935  0.00  0.00    +0.000 C 
ATOM      4  C   UNL     1       2.303   4.742  20.855  0.00  0.00    +0.000 C 
ATOM      5  C   UNL     1       3.210   5.596  19.918  0.00  0.00    +0.000 C 
ATOM      6  C   UNL     1       4.339   4.960  19.132  0.00  0.00    +0.000 A 
ATOM      7  C   UNL     1       4.307   3.612  19.006  0.00  0.00    +0.000 A 
ATOM      8  N   UNL     1       5.696   3.421  18.968  0.00  0.00    +0.000 N 
ATOM      9  C   UNL     1       6.189   4.487  18.167  0.00  0.00    +0.000 A 
ATOM     10  C   UNL     1       7.332   5.086  17.698  0.00  0.00    +0.000 A 
ATOM     11  C   UNL     1       7.183   5.551  16.373  0.00  0.00    +0.000 A 
ATOM     12  C   UNL     1       5.975   5.355  15.683  0.00  0.00    +0.000 A 
ATOM     13  C   UNL     1       4.811   5.114  16.429  0.00  0.00    +0.000 A 
ATOM     14  C   UNL     1       4.990   5.092  17.835  0.00  0.00    +0.000 A 
ATOM     15  C   UNL     1       2.964   3.033  18.698  0.00  0.00    +0.000 C 
ATOM     16  H   UNL     1       6.206   3.103  19.778  0.00  0.00    +0.000 HD
ENDROOT
BRANCH   1  17
ATOM     17  C   UNL     1       2.724   7.018  18.220  0.00  0.00    +0.000 C 
BRANCH  17  18
ATOM     18  C   UNL     1       2.062   8.364  18.337  0.00  0.00    +0.000 C 
BRANCH  18  19
ATOM     19  C   UNL     1       1.388   8.588  19.689  0.00  0.00    +0.000 C 
BRANCH  19  20
ATOM     20  C   UNL     1       0.903  10.035  19.880  0.00  0.00    +0.000 C 
BRANCH  20  29
ATOM     21  C   UNL     1      -2.801  12.649  22.519  0.00  0.00    +0.000 A 
ATOM     22  C   UNL     1      -2.414  12.843  21.199  0.00  0.00    +0.000 A 
ATOM     23  C   UNL     1      -1.391  12.083  20.622  0.00  0.00    +0.000 A 
ATOM     24  C   UNL     1      -0.760  11.099  21.435  0.00  0.00    +0.000 A 
ATOM     25  C   UNL     1      -1.142  10.900  22.765  0.00  0.00    +0.000 A 
ATOM     26  C   UNL     1      -2.157  11.696  23.316  0.00  0.00    +0.000 A 
ATOM     27  C   UNL     1      -0.319   9.864  23.283  0.00  0.00    +0.000 A 
ATOM     28  C   UNL     1       0.534   9.473  22.291  0.00  0.00    +0.000 A 
ATOM     29  N   UNL     1       0.245  10.212  21.164  0.00  0.00    +0.000 N 
ENDBRANCH  20  29
ENDBRANCH  19  20
ENDBRANCH  18  19
ENDBRANCH  17  18
ENDBRANCH   1  17
TORSDOF 5
ENDMDL
MODEL 8
REMARK VINA RESULT:      -9.1      1.423      2.375
REMARK  Name = 
REMARK  5 active torsions:
REMARK  status: ('A' for Active; 'I' for Inactive)
REMARK    1  A    between atoms: N_9  and  C_10
REMARK    2  A    between atoms: C_10  and  C_11
REMARK    3  A    between atoms: C_11  and  C_12
REMARK    4  A    between atoms: C_12  and  C_13
REMARK    5  A    between atoms: C_13  and  N_14
REMARK                            x       y       z     vdW  Elec       q    Type
REMARK                         _______ _______ _______ _____ _____    ______ ____
ROOT
ATOM      1  N   UNL     1       2.327   5.905  18.731  0.00  0.00    +0.000 NA
ATOM      2  C   UNL     1       2.328   4.789  17.691  0.00  0.00    +0.000 C 
ATOM      3  C   UNL     1       1.288   4.012  18.518  0.00  0.00    +0.000 C 
ATOM      4  C   UNL     1       2.018   4.013  19.888  0.00  0.00    +0.000 C 
ATOM      5  C   UNL     1       3.000   5.221  19.799  0.00  0.00    +0.000 C 
ATOM      6  C   UNL     1       4.401   5.051  19.249  0.00  0.00    +0.000 A 
ATOM      7  C   UNL     1       4.640   3.926  18.534  0.00  0.00    +0.000 A 
ATOM      8  N   UNL     1       5.989   3.794  18.889  0.00  0.00    +0.000 N 
ATOM      9  C   UNL     1       6.505   5.118  18.867  0.00  0.00    +0.000 A 
ATOM     10  C   UNL     1       7.615   5.882  19.133  0.00  0.00    +0.000 A 
ATOM     11  C   UNL     1       7.782   6.921  18.191  0.00  0.00    +0.000 A 
ATOM     12  C   UNL     1       6.882   7.063  17.123  0.00  0.00    +0.000 A 
ATOM     13  C   UNL     1       5.610   6.481  17.238  0.00  0.00    +0.000 A 
ATOM     14  C   UNL     1       5.371   5.794  18.454  0.00  0.00    +0.000 A 
ATOM     15  C   UNL     1       3.566   3.548  17.565  0.00  0.00    +0.000 C 
ATOM     16  H   UNL     1       6.287   3.134  19.591  0.00  0.00    +0.000 HD
ENDROOT
BRANCH   1  17
ATOM     17  C   UNL     1       2.795   7.276  18.860  0.00  0.00    +0.000 C 
BRANCH  17  18
ATOM     18  C   UNL     1       2.621   8.298  17.771  0.00  0.00    +0.000 C 
BRANCH  18  19
ATOM     19  C   UNL     1       1.296   9.051  17.857  0.00  0.00    +0.000 C 
BRANCH  19  20
ATOM     20  C   UNL     1       1.022   9.618  19.260  0.00  0.00    +0.000 C 
BRANCH  20  29
ATOM     21  C   UNL     1       1.158  14.829  18.672  0.00  0.00    +0.000 A 
ATOM     22  C   UNL     1       2.242  13.962  18.737  0.00  0.00    +0.000 A 
ATOM     23  C   UNL     1       2.062  12.586  18.916  0.00  0.00    +0.000 A 
ATOM     24  C   UNL     1       0.728  12.102  19.028  0.00  0.00    +0.000 A 
ATOM     25  C   UNL     1      -0.367  12.970  18.965  0.00  0.00    +0.000 A 
ATOM     26  C   UNL     1      -0.148  14.346  18.807  0.00  0.00    +0.000 A 
ATOM     27  C   UNL     1      -1.535  12.175  19.116  0.00  0.00    +0.000 A 
ATOM     28  C   UNL     1      -1.140  10.878  19.275  0.00  0.00    +0.000 A 
ATOM     29  N   UNL     1       0.235  10.838  19.198  0.00  0.00    +0.000 N 
ENDBRANCH  20  29
ENDBRANCH  19  20
ENDBRANCH  18  19
ENDBRANCH  17  18
ENDBRANCH   1  17
TORSDOF 5
ENDMDL
MODEL 9
REMARK VINA RESULT:      -9.0      1.050      3.438
REMARK  Name = 
REMARK  5 active torsions:
REMARK  status: ('A' for Active; 'I' for Inactive)
REMARK    1  A    between atoms: N_9  and  C_10
REMARK    2  A    between atoms: C_10  and  C_11
REMARK    3  A    between atoms: C_11  and  C_12
REMARK    4  A    between atoms: C_12  and  C_13
REMARK    5  A    between atoms: C_13  and  N_14
REMARK                            x       y       z     vdW  Elec       q    Type
REMARK                         _______ _______ _______ _____ _____    ______ ____
ROOT
ATOM      1  N   UNL     1       4.322   6.680  17.568  0.00  0.00    +0.000 NA
ATOM      2  C   UNL     1       5.464   6.324  18.515  0.00  0.00    +0.000 C 
ATOM      3  C   UNL     1       6.475   6.498  17.367  0.00  0.00    +0.000 C 
ATOM      4  C   UNL     1       5.810   5.570  16.315  0.00  0.00    +0.000 C 
ATOM      5  C   UNL     1       4.318   5.493  16.760  0.00  0.00    +0.000 C 
ATOM      6  C   UNL     1       3.847   4.434  17.736  0.00  0.00    +0.000 A 
ATOM      7  C   UNL     1       4.805   3.801  18.454  0.00  0.00    +0.000 A 
ATOM      8  N   UNL     1       4.140   2.571  18.559  0.00  0.00    +0.000 N 
ATOM      9  C   UNL     1       2.779   2.909  18.792  0.00  0.00    +0.000 A 
ATOM     10  C   UNL     1       1.515   2.392  18.929  0.00  0.00    +0.000 A 
ATOM     11  C   UNL     1       0.763   3.082  19.906  0.00  0.00    +0.000 A 
ATOM     12  C   UNL     1       1.335   4.145  20.623  0.00  0.00    +0.000 A 
ATOM     13  C   UNL     1       2.453   4.794  20.077  0.00  0.00    +0.000 A 
ATOM     14  C   UNL     1       2.894   4.288  18.829  0.00  0.00    +0.000 A 
ATOM     15  C   UNL     1       5.877   4.685  19.003  0.00  0.00    +0.000 C 
ATOM     16  H   UNL     1       4.386   1.788  17.974  0.00  0.00    +0.000 HD
ENDROOT
BRANCH   1  17
ATOM     17  C   UNL     1       2.916   7.042  17.643  0.00  0.00    +0.000 C 
BRANCH  17  18
ATOM     18  C   UNL     1       2.393   8.063  18.616  0.00  0.00    +0.000 C 
BRANCH  18  19
ATOM     19  C   UNL     1       1.942   9.359  17.945  0.00  0.00    +0.000 C 
BRANCH  19  20
ATOM     20  C   UNL     1       0.420   9.573  18.026  0.00  0.00    +0.000 C 
BRANCH  20  29
ATOM     21  C   UNL     1      -0.669  10.219  23.116  0.00  0.00    +0.000 A 
ATOM     22  C   UNL     1      -0.424   9.022  22.454  0.00  0.00    +0.000 A 
ATOM     23  C   UNL     1      -0.164   8.992  21.080  0.00  0.00    +0.000 A 
ATOM     24  C   UNL     1      -0.155  10.232  20.381  0.00  0.00    +0.000 A 
ATOM     25  C   UNL     1      -0.402  11.440  21.040  0.00  0.00    +0.000 A 
ATOM     26  C   UNL     1      -0.682  11.430  22.414  0.00  0.00    +0.000 A 
ATOM     27  C   UNL     1      -0.327  12.469  20.064  0.00  0.00    +0.000 A 
ATOM     28  C   UNL     1      -0.056  11.884  18.860  0.00  0.00    +0.000 A 
ATOM     29  N   UNL     1       0.070  10.527  19.065  0.00  0.00    +0.000 N 
ENDBRANCH  20  29
ENDBRANCH  19  20
ENDBRANCH  18  19
ENDBRANCH  17  18
ENDBRANCH   1  17
TORSDOF 5
ENDMDL
