MODEL 1
REMARK VINA RESULT:      -7.4      0.000      0.000
REMARK  Name = 
REMARK  3 active torsions:
REMARK  status: ('A' for Active; 'I' for Inactive)
REMARK    1  A    between atoms: C_2  and  C_3
REMARK    2  A    between atoms: C_6  and  N_7
REMARK    3  A    between atoms: C_13  and  N_14
REMARK                            x       y       z     vdW  Elec       q    Type
REMARK                         _______ _______ _______ _____ _____    ______ ____
ROOT
ATOM      1  N   UNL     1       3.626   5.522  18.971  0.00  0.00    +0.000 N 
ATOM      2  C   UNL     1       2.828   6.582  19.217  0.00  0.00    +0.000 A 
ATOM      3  N   UNL     1       2.438   7.567  18.439  0.00  0.00    +0.000 NA
ATOM      4  C   UNL     1       1.699   8.407  19.226  0.00  0.00    +0.000 A 
ATOM      5  C   UNL     1       1.062   9.613  18.897  0.00  0.00    +0.000 A 
ATOM      6  C   UNL     1       0.373  10.308  19.901  0.00  0.00    +0.000 A 
ATOM      7  C   UNL     1       0.330   9.802  21.210  0.00  0.00    +0.000 A 
ATOM      8  C   UNL     1       0.962   8.594  21.561  0.00  0.00    +0.000 A 
ATOM      9  C   UNL     1       1.629   7.929  20.528  0.00  0.00    +0.000 A 
ATOM     10  N   UNL     1       2.332   6.753  20.486  0.00  0.00    +0.000 N 
ATOM     11  H   UNL     1       3.785   4.835  19.698  0.00  0.00    +0.000 HD
ATOM     12  H   UNL     1       2.508   6.141  21.266  0.00  0.00    +0.000 HD
ENDROOT
BRANCH   1  16
ATOM     13  C   UNL     1       6.260   5.265  15.668  0.00  0.00    +0.000 A 
ATOM     14  C   UNL     1       6.468   6.196  16.685  0.00  0.00    +0.000 A 
ATOM     15  C   UNL     1       5.603   6.239  17.782  0.00  0.00    +0.000 A 
ATOM     16  C   UNL     1       4.508   5.365  17.880  0.00  0.00    +0.000 A 
ATOM     17  C   UNL     1       4.324   4.427  16.855  0.00  0.00    +0.000 A 
ATOM     18  C   UNL     1       5.191   4.375  15.757  0.00  0.00    +0.000 A 
BRANCH  13  20
ATOM     19  N   UNL     1       7.855   5.206  13.627  0.00  0.00    +0.000 NA
ATOM     20  C   UNL     1       7.141   5.229  14.540  0.00  0.00    +0.000 C 
ENDBRANCH  13  20
ENDBRANCH   1  16
BRANCH   7  21
ATOM     21  N   UNL     1      -0.394  10.549  22.248  0.00  0.00    +0.000 N 
ATOM     22  O   UNL     1      -1.224  11.393  21.880  0.00  0.00    +0.000 OA
ATOM     23  O   UNL     1      -0.134  10.290  23.432  0.00  0.00    +0.000 OA
ENDBRANCH   7  21
TORSDOF 3
ENDMDL
MODEL 2
REMARK VINA RESULT:      -7.2      0.741      1.336
REMARK  Name = 
REMARK  3 active torsions:
REMARK  status: ('A' for Active; 'I' for Inactive)
REMARK    1  A    between atoms: C_2  and  C_3
REMARK    2  A    between atoms: C_6  and  N_7
REMARK    3  A    between atoms: C_13  and  N_14
REMARK                            x       y       z     vdW  Elec       q    Type
REMARK                         _______ _______ _______ _____ _____    ______ ____
ROOT
ATOM      1  N   UNL     1       3.236   5.831  18.972  0.00  0.00    +0.000 N 
ATOM      2  C   UNL     1       2.489   6.914  19.272  0.00  0.00    +0.000 A 
ATOM      3  N   UNL     1       2.024   7.880  18.512  0.00  0.00    +0.000 NA
ATOM      4  C   UNL     1       1.397   8.760  19.351  0.00  0.00    +0.000 A 
ATOM      5  C   UNL     1       0.743   9.966  19.057  0.00  0.00    +0.000 A 
ATOM      6  C   UNL     1       0.189  10.707  20.110  0.00  0.00    +0.000 A 
ATOM      7  C   UNL     1       0.295  10.246  21.433  0.00  0.00    +0.000 A 
ATOM      8  C   UNL     1       0.946   9.038  21.749  0.00  0.00    +0.000 A 
ATOM      9  C   UNL     1       1.475   8.327  20.668  0.00  0.00    +0.000 A 
ATOM     10  N   UNL     1       2.150   7.137  20.585  0.00  0.00    +0.000 N 
ATOM     11  H   UNL     1       3.470   5.166  19.699  0.00  0.00    +0.000 HD
ATOM     12  H   UNL     1       2.409   6.548  21.360  0.00  0.00    +0.000 HD
ENDROOT
BRANCH   1  16
ATOM     13  C   UNL     1       5.561   5.035  15.526  0.00  0.00    +0.000 A 
ATOM     14  C   UNL     1       4.865   4.016  16.177  0.00  0.00    +0.000 A 
ATOM     15  C   UNL     1       4.077   4.311  17.294  0.00  0.00    +0.000 A 
ATOM     16  C   UNL     1       3.979   5.621  17.790  0.00  0.00    +0.000 A 
ATOM     17  C   UNL     1       4.674   6.632  17.114  0.00  0.00    +0.000 A 
ATOM     18  C   UNL     1       5.460   6.345  15.991  0.00  0.00    +0.000 A 
BRANCH  13  20
ATOM     19  N   UNL     1       7.037   4.479  13.470  0.00  0.00    +0.000 NA
ATOM     20  C   UNL     1       6.376   4.731  14.389  0.00  0.00    +0.000 C 
ENDBRANCH  13  20
ENDBRANCH   1  16
BRANCH   7  21
ATOM     21  N   UNL     1      -0.290  11.041  22.522  0.00  0.00    +0.000 N 
ATOM     22  O   UNL     1      -0.717  10.434  23.515  0.00  0.00    +0.000 OA
ATOM     23  O   UNL     1      -0.320  12.273  22.385  0.00  0.00    +0.000 OA
ENDBRANCH   7  21
TORSDOF 3
ENDMDL
MODEL 3
REMARK VINA RESULT:      -7.1      0.837      1.007
REMARK  Name = 
REMARK  3 active torsions:
REMARK  status: ('A' for Active; 'I' for Inactive)
REMARK    1  A    between atoms: C_2  and  C_3
REMARK    2  A    between atoms: C_6  and  N_7
REMARK    3  A    between atoms: C_13  and  N_14
REMARK                            x       y       z     vdW  Elec       q    Type
REMARK                         _______ _______ _______ _____ _____    ______ ____
ROOT
ATOM      1  N   UNL     1       3.084   5.772  19.372  0.00  0.00    +0.000 N 
ATOM      2  C   UNL     1       2.389   6.912  19.573  0.00  0.00    +0.000 A 
ATOM      3  N   UNL     1       2.046   7.871  18.743  0.00  0.00    +0.000 NA
ATOM      4  C   UNL     1       1.417   8.823  19.497  0.00  0.00    +0.000 A 
ATOM      5  C   UNL     1       0.866  10.054  19.109  0.00  0.00    +0.000 A 
ATOM      6  C   UNL     1       0.286  10.872  20.088  0.00  0.00    +0.000 A 
ATOM      7  C   UNL     1       0.264  10.463  21.431  0.00  0.00    +0.000 A 
ATOM      8  C   UNL     1       0.809   9.231  21.841  0.00  0.00    +0.000 A 
ATOM      9  C   UNL     1       1.369   8.443  20.832  0.00  0.00    +0.000 A 
ATOM     10  N   UNL     1       1.970   7.211  20.847  0.00  0.00    +0.000 N 
ATOM     11  H   UNL     1       3.220   5.127  20.139  0.00  0.00    +0.000 HD
ATOM     12  H   UNL     1       2.132   6.641  21.660  0.00  0.00    +0.000 HD
ENDROOT
BRANCH   1  16
ATOM     13  C   UNL     1       5.453   5.037  15.943  0.00  0.00    +0.000 A 
ATOM     14  C   UNL     1       5.476   6.276  16.581  0.00  0.00    +0.000 A 
ATOM     15  C   UNL     1       4.710   6.484  17.732  0.00  0.00    +0.000 A 
ATOM     16  C   UNL     1       3.897   5.466  18.259  0.00  0.00    +0.000 A 
ATOM     17  C   UNL     1       3.899   4.224  17.611  0.00  0.00    +0.000 A 
ATOM     18  C   UNL     1       4.669   4.008  16.462  0.00  0.00    +0.000 A 
BRANCH  13  20
ATOM     19  N   UNL     1       6.857   4.655  13.798  0.00  0.00    +0.000 NA
ATOM     20  C   UNL     1       6.230   4.829  14.759  0.00  0.00    +0.000 C 
ENDBRANCH  13  20
ENDBRANCH   1  16
BRANCH   7  21
ATOM     21  N   UNL     1      -0.347  11.339  22.442  0.00  0.00    +0.000 N 
ATOM     22  O   UNL     1      -0.926  10.802  23.397  0.00  0.00    +0.000 OA
ATOM     23  O   UNL     1      -0.246  12.563  22.280  0.00  0.00    +0.000 OA
ENDBRANCH   7  21
TORSDOF 3
ENDMDL
MODEL 4
REMARK VINA RESULT:      -7.1      1.358      1.852
REMARK  Name = 
REMARK  3 active torsions:
REMARK  status: ('A' for Active; 'I' for Inactive)
REMARK    1  A    between atoms: C_2  and  C_3
REMARK    2  A    between atoms: C_6  and  N_7
REMARK    3  A    between atoms: C_13  and  N_14
REMARK                            x       y       z     vdW  Elec       q    Type
REMARK                         _______ _______ _______ _____ _____    ______ ____
ROOT
ATOM      1  N   UNL     1       2.724   6.467  20.067  0.00  0.00    +0.000 N 
ATOM      2  C   UNL     1       1.982   7.583  20.222  0.00  0.00    +0.000 A 
ATOM      3  N   UNL     1       1.674   8.540  19.375  0.00  0.00    +0.000 NA
ATOM      4  C   UNL     1       0.961   9.466  20.086  0.00  0.00    +0.000 A 
ATOM      5  C   UNL     1       0.405  10.684  19.666  0.00  0.00    +0.000 A 
ATOM      6  C   UNL     1      -0.273  11.475  20.603  0.00  0.00    +0.000 A 
ATOM      7  C   UNL     1      -0.385  11.053  21.937  0.00  0.00    +0.000 A 
ATOM      8  C   UNL     1       0.165   9.834  22.380  0.00  0.00    +0.000 A 
ATOM      9  C   UNL     1       0.823   9.072  21.411  0.00  0.00    +0.000 A 
ATOM     10  N   UNL     1       1.458   7.858  21.462  0.00  0.00    +0.000 N 
ATOM     11  H   UNL     1       2.821   5.818  20.838  0.00  0.00    +0.000 HD
ATOM     12  H   UNL     1       1.575   7.285  22.282  0.00  0.00    +0.000 HD
ENDROOT
BRANCH   1  16
ATOM     13  C   UNL     1       5.598   5.674  17.062  0.00  0.00    +0.000 A 
ATOM     14  C   UNL     1       5.635   5.009  18.287  0.00  0.00    +0.000 A 
ATOM     15  C   UNL     1       4.654   5.265  19.251  0.00  0.00    +0.000 A 
ATOM     16  C   UNL     1       3.629   6.195  19.017  0.00  0.00    +0.000 A 
ATOM     17  C   UNL     1       3.601   6.842  17.775  0.00  0.00    +0.000 A 
ATOM     18  C   UNL     1       4.576   6.587  16.803  0.00  0.00    +0.000 A 
BRANCH  13  20
ATOM     19  N   UNL     1       7.428   5.218  15.285  0.00  0.00    +0.000 NA
ATOM     20  C   UNL     1       6.608   5.419  16.080  0.00  0.00    +0.000 C 
ENDBRANCH  13  20
ENDBRANCH   1  16
BRANCH   7  21
ATOM     21  N   UNL     1      -1.097  11.900  22.905  0.00  0.00    +0.000 N 
ATOM     22  O   UNL     1      -2.220  11.532  23.279  0.00  0.00    +0.000 OA
ATOM     23  O   UNL     1      -0.532  12.934  23.291  0.00  0.00    +0.000 OA
ENDBRANCH   7  21
TORSDOF 3
ENDMDL
MODEL 5
REMARK VINA RESULT:      -7.1      4.711      8.647
REMARK  Name = 
REMARK  3 active torsions:
REMARK  status: ('A' for Active; 'I' for Inactive)
REMARK    1  A    between atoms: C_2  and  C_3
REMARK    2  A    between atoms: C_6  and  N_7
REMARK    3  A    between atoms: C_13  and  N_14
REMARK                            x       y       z     vdW  Elec       q    Type
REMARK                         _______ _______ _______ _____ _____    ______ ____
ROOT
ATOM      1  N   UNL     1       1.697   8.493  20.257  0.00  0.00    +0.000 N 
ATOM      2  C   UNL     1       1.809   7.148  20.244  0.00  0.00    +0.000 A 
ATOM      3  N   UNL     1       0.979   6.209  20.639  0.00  0.00    +0.000 NA
ATOM      4  C   UNL     1       1.633   5.021  20.466  0.00  0.00    +0.000 A 
ATOM      5  C   UNL     1       1.205   3.713  20.743  0.00  0.00    +0.000 A 
ATOM      6  C   UNL     1       2.082   2.649  20.493  0.00  0.00    +0.000 A 
ATOM      7  C   UNL     1       3.366   2.895  19.980  0.00  0.00    +0.000 A 
ATOM      8  C   UNL     1       3.815   4.199  19.694  0.00  0.00    +0.000 A 
ATOM      9  C   UNL     1       2.905   5.229  19.949  0.00  0.00    +0.000 A 
ATOM     10  N   UNL     1       2.979   6.588  19.791  0.00  0.00    +0.000 N 
ATOM     11  H   UNL     1       2.440   9.061  19.868  0.00  0.00    +0.000 HD
ATOM     12  H   UNL     1       3.777   7.103  19.455  0.00  0.00    +0.000 HD
ENDROOT
BRANCH   1  16
ATOM     13  C   UNL     1      -1.012  10.954  22.381  0.00  0.00    +0.000 A 
ATOM     14  C   UNL     1      -0.842  11.091  21.004  0.00  0.00    +0.000 A 
ATOM     15  C   UNL     1       0.034  10.243  20.320  0.00  0.00    +0.000 A 
ATOM     16  C   UNL     1       0.767   9.254  20.996  0.00  0.00    +0.000 A 
ATOM     17  C   UNL     1       0.571   9.123  22.377  0.00  0.00    +0.000 A 
ATOM     18  C   UNL     1      -0.310   9.965  23.068  0.00  0.00    +0.000 A 
BRANCH  13  20
ATOM     19  N   UNL     1      -2.619  12.541  23.652  0.00  0.00    +0.000 NA
ATOM     20  C   UNL     1      -1.902  11.829  23.082  0.00  0.00    +0.000 C 
ENDBRANCH  13  20
ENDBRANCH   1  16
BRANCH   7  21
ATOM     21  N   UNL     1       4.271   1.764  19.729  0.00  0.00    +0.000 N 
ATOM     22  O   UNL     1       5.216   1.595  20.512  0.00  0.00    +0.000 OA
ATOM     23  O   UNL     1       4.035   1.044  18.748  0.00  0.00    +0.000 OA
ENDBRANCH   7  21
TORSDOF 3
ENDMDL
MODEL 6
REMARK VINA RESULT:      -6.9      4.678      8.560
REMARK  Name = 
REMARK  3 active torsions:
REMARK  status: ('A' for Active; 'I' for Inactive)
REMARK    1  A    between atoms: C_2  and  C_3
REMARK    2  A    between atoms: C_6  and  N_7
REMARK    3  A    between atoms: C_13  and  N_14
REMARK                            x       y       z     vdW  Elec       q    Type
REMARK                         _______ _______ _______ _____ _____    ______ ____
ROOT
ATOM      1  N   UNL     1       1.806   8.498  19.986  0.00  0.00    +0.000 N 
ATOM      2  C   UNL     1       1.922   7.157  20.084  0.00  0.00    +0.000 A 
ATOM      3  N   UNL     1       1.128   6.259  20.623  0.00  0.00    +0.000 NA
ATOM      4  C   UNL     1       1.773   5.058  20.507  0.00  0.00    +0.000 A 
ATOM      5  C   UNL     1       1.373   3.782  20.930  0.00  0.00    +0.000 A 
ATOM      6  C   UNL     1       2.233   2.697  20.709  0.00  0.00    +0.000 A 
ATOM      7  C   UNL     1       3.473   2.893  20.080  0.00  0.00    +0.000 A 
ATOM      8  C   UNL     1       3.893   4.165  19.646  0.00  0.00    +0.000 A 
ATOM      9  C   UNL     1       3.001   5.216  19.878  0.00  0.00    +0.000 A 
ATOM     10  N   UNL     1       3.057   6.556  19.595  0.00  0.00    +0.000 N 
ATOM     11  H   UNL     1       2.515   9.027  19.493  0.00  0.00    +0.000 HD
ATOM     12  H   UNL     1       3.824   7.037  19.154  0.00  0.00    +0.000 HD
ENDROOT
BRANCH   1  16
ATOM     13  C   UNL     1      -0.898  10.798  22.290  0.00  0.00    +0.000 A 
ATOM     14  C   UNL     1      -0.104   9.815  22.880  0.00  0.00    +0.000 A 
ATOM     15  C   UNL     1       0.806   9.091  22.103  0.00  0.00    +0.000 A 
ATOM     16  C   UNL     1       0.932   9.324  20.724  0.00  0.00    +0.000 A 
ATOM     17  C   UNL     1       0.135  10.326  20.153  0.00  0.00    +0.000 A 
ATOM     18  C   UNL     1      -0.773  11.059  20.927  0.00  0.00    +0.000 A 
BRANCH  13  20
ATOM     19  N   UNL     1      -2.599  12.120  23.730  0.00  0.00    +0.000 NA
ATOM     20  C   UNL     1      -1.836  11.531  23.085  0.00  0.00    +0.000 C 
ENDBRANCH  13  20
ENDBRANCH   1  16
BRANCH   7  21
ATOM     21  N   UNL     1       4.361   1.742  19.861  0.00  0.00    +0.000 N 
ATOM     22  O   UNL     1       5.287   1.566  20.666  0.00  0.00    +0.000 OA
ATOM     23  O   UNL     1       4.131   1.014  18.885  0.00  0.00    +0.000 OA
ENDBRANCH   7  21
TORSDOF 3
ENDMDL
MODEL 7
REMARK VINA RESULT:      -6.9      1.289      1.645
REMARK  Name = 
REMARK  3 active torsions:
REMARK  status: ('A' for Active; 'I' for Inactive)
REMARK    1  A    between atoms: C_2  and  C_3
REMARK    2  A    between atoms: C_6  and  N_7
REMARK    3  A    between atoms: C_13  and  N_14
REMARK                            x       y       z     vdW  Elec       q    Type
REMARK                         _______ _______ _______ _____ _____    ______ ____
ROOT
ATOM      1  N   UNL     1       2.853   6.238  19.953  0.00  0.00    +0.000 N 
ATOM      2  C   UNL     1       2.132   7.365  20.131  0.00  0.00    +0.000 A 
ATOM      3  N   UNL     1       1.932   8.395  19.341  0.00  0.00    +0.000 NA
ATOM      4  C   UNL     1       1.182   9.288  20.057  0.00  0.00    +0.000 A 
ATOM      5  C   UNL     1       0.703  10.554  19.688  0.00  0.00    +0.000 A 
ATOM      6  C   UNL     1      -0.036  11.293  20.621  0.00  0.00    +0.000 A 
ATOM      7  C   UNL     1      -0.285  10.772  21.901  0.00  0.00    +0.000 A 
ATOM      8  C   UNL     1       0.185   9.503  22.290  0.00  0.00    +0.000 A 
ATOM      9  C   UNL     1       0.909   8.796  21.326  0.00  0.00    +0.000 A 
ATOM     10  N   UNL     1       1.502   7.560  21.336  0.00  0.00    +0.000 N 
ATOM     11  H   UNL     1       2.858   5.527  20.675  0.00  0.00    +0.000 HD
ATOM     12  H   UNL     1       1.524   6.921  22.114  0.00  0.00    +0.000 HD
ENDROOT
BRANCH   1  16
ATOM     13  C   UNL     1       5.665   5.543  16.868  0.00  0.00    +0.000 A 
ATOM     14  C   UNL     1       4.602   6.428  16.688  0.00  0.00    +0.000 A 
ATOM     15  C   UNL     1       3.706   6.666  17.734  0.00  0.00    +0.000 A 
ATOM     16  C   UNL     1       3.843   6.017  18.972  0.00  0.00    +0.000 A 
ATOM     17  C   UNL     1       4.926   5.143  19.137  0.00  0.00    +0.000 A 
ATOM     18  C   UNL     1       5.831   4.905  18.096  0.00  0.00    +0.000 A 
BRANCH  13  20
ATOM     19  N   UNL     1       7.320   5.091  14.925  0.00  0.00    +0.000 NA
ATOM     20  C   UNL     1       6.577   5.293  15.792  0.00  0.00    +0.000 C 
ENDBRANCH  13  20
ENDBRANCH   1  16
BRANCH   7  21
ATOM     21  N   UNL     1      -1.060  11.566  22.865  0.00  0.00    +0.000 N 
ATOM     22  O   UNL     1      -2.087  11.059  23.338  0.00  0.00    +0.000 OA
ATOM     23  O   UNL     1      -0.640  12.697  23.150  0.00  0.00    +0.000 OA
ENDBRANCH   7  21
TORSDOF 3
ENDMDL
MODEL 8
REMARK VINA RESULT:      -6.7      2.936      3.716
REMARK  Name = 
REMARK  3 active torsions:
REMARK  status: ('A' for Active; 'I' for Inactive)
REMARK    1  A    between atoms: C_2  and  C_3
REMARK    2  A    between atoms: C_6  and  N_7
REMARK    3  A    between atoms: C_13  and  N_14
REMARK                            x       y       z     vdW  Elec       q    Type
REMARK                         _______ _______ _______ _____ _____    ______ ____
ROOT
ATOM      1  N   UNL     1       2.357   7.817  18.706  0.00  0.00    +0.000 N 
ATOM      2  C   UNL     1       1.691   8.430  19.707  0.00  0.00    +0.000 A 
ATOM      3  N   UNL     1       1.465   8.060  20.947  0.00  0.00    +0.000 NA
ATOM      4  C   UNL     1       0.671   9.028  21.498  0.00  0.00    +0.000 A 
ATOM      5  C   UNL     1       0.131   9.115  22.790  0.00  0.00    +0.000 A 
ATOM      6  C   UNL     1      -0.680  10.213  23.109  0.00  0.00    +0.000 A 
ATOM      7  C   UNL     1      -0.946  11.201  22.147  0.00  0.00    +0.000 A 
ATOM      8  C   UNL     1      -0.412  11.133  20.845  0.00  0.00    +0.000 A 
ATOM      9  C   UNL     1       0.398  10.027  20.573  0.00  0.00    +0.000 A 
ATOM     10  N   UNL     1       1.082   9.635  19.452  0.00  0.00    +0.000 N 
ATOM     11  H   UNL     1       2.460   8.284  17.813  0.00  0.00    +0.000 HD
ATOM     12  H   UNL     1       1.094  10.116  18.567  0.00  0.00    +0.000 HD
ENDROOT
BRANCH   1  16
ATOM     13  C   UNL     1       3.256   3.683  18.585  0.00  0.00    +0.000 A 
ATOM     14  C   UNL     1       2.145   4.198  17.919  0.00  0.00    +0.000 A 
ATOM     15  C   UNL     1       1.888   5.573  17.946  0.00  0.00    +0.000 A 
ATOM     16  C   UNL     1       2.725   6.456  18.648  0.00  0.00    +0.000 A 
ATOM     17  C   UNL     1       3.844   5.920  19.299  0.00  0.00    +0.000 A 
ATOM     18  C   UNL     1       4.111   4.546  19.270  0.00  0.00    +0.000 A 
BRANCH  13  20
ATOM     19  N   UNL     1       3.721   1.134  18.542  0.00  0.00    +0.000 NA
ATOM     20  C   UNL     1       3.513   2.275  18.564  0.00  0.00    +0.000 C 
ENDBRANCH  13  20
ENDBRANCH   1  16
BRANCH   7  21
ATOM     21  N   UNL     1      -1.802  12.342  22.502  0.00  0.00    +0.000 N 
ATOM     22  O   UNL     1      -1.340  13.190  23.279  0.00  0.00    +0.000 OA
ATOM     23  O   UNL     1      -2.935  12.389  22.003  0.00  0.00    +0.000 OA
ENDBRANCH   7  21
TORSDOF 3
ENDMDL
MODEL 9
REMARK VINA RESULT:      -6.7      4.090      8.468
REMARK  Name = 
REMARK  3 active torsions:
REMARK  status: ('A' for Active; 'I' for Inactive)
REMARK    1  A    between atoms: C_2  and  C_3
REMARK    2  A    between atoms: C_6  and  N_7
REMARK    3  A    between atoms: C_13  and  N_14
REMARK                            x       y       z     vdW  Elec       q    Type
REMARK                         _______ _______ _______ _____ _____    ______ ____
ROOT
ATOM      1  N   UNL     1       1.681   8.952  18.208  0.00  0.00    +0.000 N 
ATOM      2  C   UNL     1       2.530   7.903  18.208  0.00  0.00    +0.000 A 
ATOM      3  N   UNL     1       2.685   6.918  19.062  0.00  0.00    +0.000 NA
ATOM      4  C   UNL     1       3.743   6.179  18.609  0.00  0.00    +0.000 A 
ATOM      5  C   UNL     1       4.333   5.028  19.155  0.00  0.00    +0.000 A 
ATOM      6  C   UNL     1       5.436   4.461  18.502  0.00  0.00    +0.000 A 
ATOM      7  C   UNL     1       5.939   5.042  17.327  0.00  0.00    +0.000 A 
ATOM      8  C   UNL     1       5.362   6.195  16.762  0.00  0.00    +0.000 A 
ATOM      9  C   UNL     1       4.259   6.722  17.439  0.00  0.00    +0.000 A 
ATOM     10  N   UNL     1       3.451   7.802  17.192  0.00  0.00    +0.000 N 
ATOM     11  H   UNL     1       1.684   9.600  17.430  0.00  0.00    +0.000 HD
ATOM     12  H   UNL     1       3.546   8.450  16.428  0.00  0.00    +0.000 HD
ENDROOT
BRANCH   1  16
ATOM     13  C   UNL     1      -0.504  10.593  21.440  0.00  0.00    +0.000 A 
ATOM     14  C   UNL     1      -0.681  11.063  20.139  0.00  0.00    +0.000 A 
ATOM     15  C   UNL     1       0.028  10.481  19.083  0.00  0.00    +0.000 A 
ATOM     16  C   UNL     1       0.935   9.432  19.306  0.00  0.00    +0.000 A 
ATOM     17  C   UNL     1       1.087   8.966  20.618  0.00  0.00    +0.000 A 
ATOM     18  C   UNL     1       0.376   9.539  21.679  0.00  0.00    +0.000 A 
BRANCH  13  20
ATOM     19  N   UNL     1      -1.811  11.685  23.393  0.00  0.00    +0.000 NA
ATOM     20  C   UNL     1      -1.224  11.196  22.521  0.00  0.00    +0.000 C 
ENDBRANCH  13  20
ENDBRANCH   1  16
BRANCH   7  21
ATOM     21  N   UNL     1       7.099   4.432  16.661  0.00  0.00    +0.000 N 
ATOM     22  O   UNL     1       6.999   4.167  15.455  0.00  0.00    +0.000 OA
ATOM     23  O   UNL     1       8.111   4.220  17.345  0.00  0.00    +0.000 OA
ENDBRANCH   7  21
TORSDOF 3
ENDMDL
