MODEL 1
REMARK VINA RESULT:      -8.3      0.000      0.000
REMARK  Name = 
REMARK  4 active torsions:
REMARK  status: ('A' for Active; 'I' for Inactive)
REMARK    1  A    between atoms: C_6  and  C_7
REMARK    2  A    between atoms: C_6  and  C_15
REMARK    3  A    between atoms: C_7  and  S_8
REMARK    4  A    between atoms: S_8  and  C_9
REMARK                            x       y       z     vdW  Elec       q    Type
REMARK                         _______ _______ _______ _____ _____    ______ ____
ROOT
ATOM      1  O   UNL     1       7.312   8.565  17.367  0.00  0.00    +0.000 OA
ATOM      2  C   UNL     1       7.111   7.378  17.203  0.00  0.00    +0.000 C 
ATOM      3  N   UNL     1       7.841   6.362  17.719  0.00  0.00    +0.000 N 
ATOM      4  C   UNL     1       7.355   5.156  17.317  0.00  0.00    +0.000 C 
ATOM      5  O   UNL     1       7.820   4.073  17.643  0.00  0.00    +0.000 OA
ATOM      6  C   UNL     1       6.134   5.395  16.394  0.00  0.00    +0.000 C 
ATOM      7  N   UNL     1       6.104   6.850  16.433  0.00  0.00    +0.000 N 
ATOM      8  H   UNL     1       8.634   6.491  18.323  0.00  0.00    +0.000 HD
ATOM      9  H   UNL     1       5.445   7.440  15.942  0.00  0.00    +0.000 HD
ENDROOT
BRANCH   6  10
ATOM     10  C   UNL     1       6.447   4.878  14.981  0.00  0.00    +0.000 A 
ATOM     11  C   UNL     1       7.522   5.391  14.230  0.00  0.00    +0.000 A 
ATOM     12  C   UNL     1       7.731   4.998  12.904  0.00  0.00    +0.000 A 
ATOM     13  C   UNL     1       6.872   4.088  12.298  0.00  0.00    +0.000 A 
ATOM     14  C   UNL     1       5.815   3.551  13.023  0.00  0.00    +0.000 A 
ATOM     15  C   UNL     1       5.604   3.941  14.348  0.00  0.00    +0.000 A 
ENDBRANCH   6  10
BRANCH   6  16
ATOM     16  C   UNL     1       4.871   4.774  17.041  0.00  0.00    +0.000 C 
BRANCH  16  17
ATOM     17  S   UNL     1       3.718   5.977  17.832  0.00  0.00    +0.000 S 
BRANCH  17  18
ATOM     18  C   UNL     1       2.591   4.854  18.638  0.00  0.00    +0.000 A 
ATOM     19  C   UNL     1       2.153   5.073  19.948  0.00  0.00    +0.000 A 
ATOM     20  C   UNL     1       1.247   4.194  20.545  0.00  0.00    +0.000 A 
ATOM     21  C   UNL     1       0.763   3.099  19.831  0.00  0.00    +0.000 A 
ATOM     22  C   UNL     1       1.187   2.882  18.522  0.00  0.00    +0.000 A 
ATOM     23  C   UNL     1       2.095   3.759  17.925  0.00  0.00    +0.000 A 
ENDBRANCH  17  18
ENDBRANCH  16  17
ENDBRANCH   6  16
TORSDOF 4
ENDMDL
MODEL 2
REMARK VINA RESULT:      -8.3      0.166      1.063
REMARK  Name = 
REMARK  4 active torsions:
REMARK  status: ('A' for Active; 'I' for Inactive)
REMARK    1  A    between atoms: C_6  and  C_7
REMARK    2  A    between atoms: C_6  and  C_15
REMARK    3  A    between atoms: C_7  and  S_8
REMARK    4  A    between atoms: S_8  and  C_9
REMARK                            x       y       z     vdW  Elec       q    Type
REMARK                         _______ _______ _______ _____ _____    ______ ____
ROOT
ATOM      1  O   UNL     1       7.338   8.538  17.338  0.00  0.00    +0.000 OA
ATOM      2  C   UNL     1       7.134   7.359  17.127  0.00  0.00    +0.000 C 
ATOM      3  N   UNL     1       7.906   6.325  17.536  0.00  0.00    +0.000 N 
ATOM      4  C   UNL     1       7.401   5.136  17.107  0.00  0.00    +0.000 C 
ATOM      5  O   UNL     1       7.896   4.043  17.341  0.00  0.00    +0.000 OA
ATOM      6  C   UNL     1       6.116   5.411  16.285  0.00  0.00    +0.000 C 
ATOM      7  N   UNL     1       6.079   6.861  16.403  0.00  0.00    +0.000 N 
ATOM      8  H   UNL     1       8.738   6.431  18.089  0.00  0.00    +0.000 HD
ATOM      9  H   UNL     1       5.382   7.469  15.991  0.00  0.00    +0.000 HD
ENDROOT
BRANCH   6  10
ATOM     10  C   UNL     1       6.332   4.971  14.829  0.00  0.00    +0.000 A 
ATOM     11  C   UNL     1       5.496   4.020  14.214  0.00  0.00    +0.000 A 
ATOM     12  C   UNL     1       5.768   3.540  12.929  0.00  0.00    +0.000 A 
ATOM     13  C   UNL     1       6.879   3.997  12.229  0.00  0.00    +0.000 A 
ATOM     14  C   UNL     1       7.710   4.951  12.805  0.00  0.00    +0.000 A 
ATOM     15  C   UNL     1       7.441   5.432  14.089  0.00  0.00    +0.000 A 
ENDBRANCH   6  10
BRANCH   6  16
ATOM     16  C   UNL     1       4.907   4.743  16.986  0.00  0.00    +0.000 C 
BRANCH  16  17
ATOM     17  S   UNL     1       3.722   5.905  17.792  0.00  0.00    +0.000 S 
BRANCH  17  18
ATOM     18  C   UNL     1       2.616   4.743  18.571  0.00  0.00    +0.000 A 
ATOM     19  C   UNL     1       2.109   4.965  19.855  0.00  0.00    +0.000 A 
ATOM     20  C   UNL     1       1.221   4.053  20.429  0.00  0.00    +0.000 A 
ATOM     21  C   UNL     1       0.824   2.922  19.718  0.00  0.00    +0.000 A 
ATOM     22  C   UNL     1       1.316   2.702  18.433  0.00  0.00    +0.000 A 
ATOM     23  C   UNL     1       2.206   3.612  17.859  0.00  0.00    +0.000 A 
ENDBRANCH  17  18
ENDBRANCH  16  17
ENDBRANCH   6  16
TORSDOF 4
ENDMDL
MODEL 3
REMARK VINA RESULT:      -8.2      2.732      4.582
REMARK  Name = 
REMARK  4 active torsions:
REMARK  status: ('A' for Active; 'I' for Inactive)
REMARK    1  A    between atoms: C_6  and  C_7
REMARK    2  A    between atoms: C_6  and  C_15
REMARK    3  A    between atoms: C_7  and  S_8
REMARK    4  A    between atoms: S_8  and  C_9
REMARK                            x       y       z     vdW  Elec       q    Type
REMARK                         _______ _______ _______ _____ _____    ______ ____
ROOT
ATOM      1  O   UNL     1       7.404   5.304  20.001  0.00  0.00    +0.000 OA
ATOM      2  C   UNL     1       6.595   5.540  19.125  0.00  0.00    +0.000 C 
ATOM      3  N   UNL     1       6.824   6.238  17.988  0.00  0.00    +0.000 N 
ATOM      4  C   UNL     1       5.694   6.337  17.237  0.00  0.00    +0.000 C 
ATOM      5  O   UNL     1       5.621   6.907  16.158  0.00  0.00    +0.000 OA
ATOM      6  C   UNL     1       4.541   5.614  17.978  0.00  0.00    +0.000 C 
ATOM      7  N   UNL     1       5.277   5.155  19.147  0.00  0.00    +0.000 N 
ATOM      8  H   UNL     1       7.718   6.624  17.737  0.00  0.00    +0.000 HD
ATOM      9  H   UNL     1       4.890   4.630  19.920  0.00  0.00    +0.000 HD
ENDROOT
BRANCH   6  10
ATOM     10  C   UNL     1       3.456   6.632  18.362  0.00  0.00    +0.000 A 
ATOM     11  C   UNL     1       3.146   7.726  17.531  0.00  0.00    +0.000 A 
ATOM     12  C   UNL     1       2.241   8.711  17.939  0.00  0.00    +0.000 A 
ATOM     13  C   UNL     1       1.627   8.628  19.185  0.00  0.00    +0.000 A 
ATOM     14  C   UNL     1       1.901   7.548  20.017  0.00  0.00    +0.000 A 
ATOM     15  C   UNL     1       2.805   6.562  19.611  0.00  0.00    +0.000 A 
ENDBRANCH   6  10
BRANCH   6  16
ATOM     16  C   UNL     1       4.036   4.432  17.113  0.00  0.00    +0.000 C 
BRANCH  16  17
ATOM     17  S   UNL     1       4.247   2.760  17.863  0.00  0.00    +0.000 S 
BRANCH  17  18
ATOM     18  C   UNL     1       3.023   2.834  19.158  0.00  0.00    +0.000 A 
ATOM     19  C   UNL     1       3.365   2.638  20.499  0.00  0.00    +0.000 A 
ATOM     20  C   UNL     1       2.392   2.731  21.496  0.00  0.00    +0.000 A 
ATOM     21  C   UNL     1       1.074   3.033  21.159  0.00  0.00    +0.000 A 
ATOM     22  C   UNL     1       0.729   3.241  19.824  0.00  0.00    +0.000 A 
ATOM     23  C   UNL     1       1.701   3.146  18.827  0.00  0.00    +0.000 A 
ENDBRANCH  17  18
ENDBRANCH  16  17
ENDBRANCH   6  16
TORSDOF 4
ENDMDL
MODEL 4
REMARK VINA RESULT:      -8.2      2.445      4.444
REMARK  Name = 
REMARK  4 active torsions:
REMARK  status: ('A' for Active; 'I' for Inactive)
REMARK    1  A    between atoms: C_6  and  C_7
REMARK    2  A    between atoms: C_6  and  C_15
REMARK    3  A    between atoms: C_7  and  S_8
REMARK    4  A    between atoms: S_8  and  C_9
REMARK                            x       y       z     vdW  Elec       q    Type
REMARK                         _______ _______ _______ _____ _____    ______ ____
ROOT
ATOM      1  O   UNL     1       8.012   4.806  18.838  0.00  0.00    +0.000 OA
ATOM      2  C   UNL     1       7.018   5.051  18.182  0.00  0.00    +0.000 C 
ATOM      3  N   UNL     1       6.978   5.715  17.003  0.00  0.00    +0.000 N 
ATOM      4  C   UNL     1       5.700   5.837  16.552  0.00  0.00    +0.000 C 
ATOM      5  O   UNL     1       5.379   6.384  15.507  0.00  0.00    +0.000 OA
ATOM      6  C   UNL     1       4.746   5.172  17.577  0.00  0.00    +0.000 C 
ATOM      7  N   UNL     1       5.737   4.714  18.541  0.00  0.00    +0.000 N 
ATOM      8  H   UNL     1       7.792   6.062  16.527  0.00  0.00    +0.000 HD
ATOM      9  H   UNL     1       5.538   4.221  19.402  0.00  0.00    +0.000 HD
ENDROOT
BRANCH   6  10
ATOM     10  C   UNL     1       3.821   6.237  18.185  0.00  0.00    +0.000 A 
ATOM     11  C   UNL     1       3.176   6.035  19.421  0.00  0.00    +0.000 A 
ATOM     12  C   UNL     1       2.247   6.958  19.912  0.00  0.00    +0.000 A 
ATOM     13  C   UNL     1       1.940   8.101  19.182  0.00  0.00    +0.000 A 
ATOM     14  C   UNL     1       2.577   8.335  17.969  0.00  0.00    +0.000 A 
ATOM     15  C   UNL     1       3.506   7.414  17.476  0.00  0.00    +0.000 A 
ENDBRANCH   6  10
BRANCH   6  16
ATOM     16  C   UNL     1       4.009   3.990  16.901  0.00  0.00    +0.000 C 
BRANCH  16  17
ATOM     17  S   UNL     1       4.151   2.370  17.772  0.00  0.00    +0.000 S 
BRANCH  17  18
ATOM     18  C   UNL     1       2.981   2.616  19.095  0.00  0.00    +0.000 A 
ATOM     19  C   UNL     1       3.376   2.577  20.436  0.00  0.00    +0.000 A 
ATOM     20  C   UNL     1       2.445   2.803  21.452  0.00  0.00    +0.000 A 
ATOM     21  C   UNL     1       1.117   3.082  21.133  0.00  0.00    +0.000 A 
ATOM     22  C   UNL     1       0.720   3.134  19.798  0.00  0.00    +0.000 A 
ATOM     23  C   UNL     1       1.650   2.906  18.782  0.00  0.00    +0.000 A 
ENDBRANCH  17  18
ENDBRANCH  16  17
ENDBRANCH   6  16
TORSDOF 4
ENDMDL
MODEL 5
REMARK VINA RESULT:      -8.2      2.722      4.636
REMARK  Name = 
REMARK  4 active torsions:
REMARK  status: ('A' for Active; 'I' for Inactive)
REMARK    1  A    between atoms: C_6  and  C_7
REMARK    2  A    between atoms: C_6  and  C_15
REMARK    3  A    between atoms: C_7  and  S_8
REMARK    4  A    between atoms: S_8  and  C_9
REMARK                            x       y       z     vdW  Elec       q    Type
REMARK                         _______ _______ _______ _____ _____    ______ ____
ROOT
ATOM      1  O   UNL     1       7.354   5.288  19.965  0.00  0.00    +0.000 OA
ATOM      2  C   UNL     1       6.548   5.530  19.087  0.00  0.00    +0.000 C 
ATOM      3  N   UNL     1       6.787   6.221  17.948  0.00  0.00    +0.000 N 
ATOM      4  C   UNL     1       5.658   6.329  17.195  0.00  0.00    +0.000 C 
ATOM      5  O   UNL     1       5.594   6.896  16.114  0.00  0.00    +0.000 OA
ATOM      6  C   UNL     1       4.497   5.621  17.938  0.00  0.00    +0.000 C 
ATOM      7  N   UNL     1       5.227   5.159  19.109  0.00  0.00    +0.000 N 
ATOM      8  H   UNL     1       7.685   6.596  17.697  0.00  0.00    +0.000 HD
ATOM      9  H   UNL     1       4.833   4.641  19.884  0.00  0.00    +0.000 HD
ENDROOT
BRANCH   6  10
ATOM     10  C   UNL     1       3.423   6.653  18.316  0.00  0.00    +0.000 A 
ATOM     11  C   UNL     1       3.112   7.736  17.472  0.00  0.00    +0.000 A 
ATOM     12  C   UNL     1       2.218   8.734  17.874  0.00  0.00    +0.000 A 
ATOM     13  C   UNL     1       1.616   8.674  19.127  0.00  0.00    +0.000 A 
ATOM     14  C   UNL     1       1.891   7.605  19.972  0.00  0.00    +0.000 A 
ATOM     15  C   UNL     1       2.784   6.607  19.572  0.00  0.00    +0.000 A 
ENDBRANCH   6  10
BRANCH   6  16
ATOM     16  C   UNL     1       3.980   4.442  17.077  0.00  0.00    +0.000 C 
BRANCH  16  17
ATOM     17  S   UNL     1       4.150   2.772  17.844  0.00  0.00    +0.000 S 
BRANCH  17  18
ATOM     18  C   UNL     1       2.972   2.912  19.175  0.00  0.00    +0.000 A 
ATOM     19  C   UNL     1       1.631   3.230  18.935  0.00  0.00    +0.000 A 
ATOM     20  C   UNL     1       0.724   3.304  19.993  0.00  0.00    +0.000 A 
ATOM     21  C   UNL     1       1.147   3.048  21.296  0.00  0.00    +0.000 A 
ATOM     22  C   UNL     1       2.479   2.719  21.540  0.00  0.00    +0.000 A 
ATOM     23  C   UNL     1       3.388   2.647  20.483  0.00  0.00    +0.000 A 
ENDBRANCH  17  18
ENDBRANCH  16  17
ENDBRANCH   6  16
TORSDOF 4
ENDMDL
MODEL 6
REMARK VINA RESULT:      -8.2      2.490      4.562
REMARK  Name = 
REMARK  4 active torsions:
REMARK  status: ('A' for Active; 'I' for Inactive)
REMARK    1  A    between atoms: C_6  and  C_7
REMARK    2  A    between atoms: C_6  and  C_15
REMARK    3  A    between atoms: C_7  and  S_8
REMARK    4  A    between atoms: S_8  and  C_9
REMARK                            x       y       z     vdW  Elec       q    Type
REMARK                         _______ _______ _______ _____ _____    ______ ____
ROOT
ATOM      1  O   UNL     1       7.889   5.037  18.812  0.00  0.00    +0.000 OA
ATOM      2  C   UNL     1       6.891   5.280  18.161  0.00  0.00    +0.000 C 
ATOM      3  N   UNL     1       6.845   5.947  16.984  0.00  0.00    +0.000 N 
ATOM      4  C   UNL     1       5.564   6.065  16.539  0.00  0.00    +0.000 C 
ATOM      5  O   UNL     1       5.236   6.615  15.497  0.00  0.00    +0.000 OA
ATOM      6  C   UNL     1       4.617   5.395  17.567  0.00  0.00    +0.000 C 
ATOM      7  N   UNL     1       5.613   4.937  18.525  0.00  0.00    +0.000 N 
ATOM      8  H   UNL     1       7.655   6.299  16.506  0.00  0.00    +0.000 HD
ATOM      9  H   UNL     1       5.420   4.441  19.385  0.00  0.00    +0.000 HD
ENDROOT
BRANCH   6  10
ATOM     10  C   UNL     1       3.691   6.454  18.182  0.00  0.00    +0.000 A 
ATOM     11  C   UNL     1       3.062   6.251  19.425  0.00  0.00    +0.000 A 
ATOM     12  C   UNL     1       2.131   7.169  19.924  0.00  0.00    +0.000 A 
ATOM     13  C   UNL     1       1.806   8.307  19.194  0.00  0.00    +0.000 A 
ATOM     14  C   UNL     1       2.427   8.542  17.972  0.00  0.00    +0.000 A 
ATOM     15  C   UNL     1       3.358   7.627  17.472  0.00  0.00    +0.000 A 
ENDBRANCH   6  10
BRANCH   6  16
ATOM     16  C   UNL     1       3.881   4.212  16.890  0.00  0.00    +0.000 C 
BRANCH  16  17
ATOM     17  S   UNL     1       4.084   2.577  17.721  0.00  0.00    +0.000 S 
BRANCH  17  18
ATOM     18  C   UNL     1       2.936   2.763  19.073  0.00  0.00    +0.000 A 
ATOM     19  C   UNL     1       1.571   2.965  18.850  0.00  0.00    +0.000 A 
ATOM     20  C   UNL     1       0.689   3.077  19.927  0.00  0.00    +0.000 A 
ATOM     21  C   UNL     1       1.165   2.975  21.232  0.00  0.00    +0.000 A 
ATOM     22  C   UNL     1       2.523   2.762  21.461  0.00  0.00    +0.000 A 
ATOM     23  C   UNL     1       3.406   2.651  20.385  0.00  0.00    +0.000 A 
ENDBRANCH  17  18
ENDBRANCH  16  17
ENDBRANCH   6  16
TORSDOF 4
ENDMDL
MODEL 7
REMARK VINA RESULT:      -8.1      1.886      3.758
REMARK  Name = 
REMARK  4 active torsions:
REMARK  status: ('A' for Active; 'I' for Inactive)
REMARK    1  A    between atoms: C_6  and  C_7
REMARK    2  A    between atoms: C_6  and  C_15
REMARK    3  A    between atoms: C_7  and  S_8
REMARK    4  A    between atoms: S_8  and  C_9
REMARK                            x       y       z     vdW  Elec       q    Type
REMARK                         _______ _______ _______ _____ _____    ______ ____
ROOT
ATOM      1  O   UNL     1       6.926   4.678  14.134  0.00  0.00    +0.000 OA
ATOM      2  C   UNL     1       6.783   4.728  15.340  0.00  0.00    +0.000 C 
ATOM      3  N   UNL     1       7.761   4.622  16.269  0.00  0.00    +0.000 N 
ATOM      4  C   UNL     1       7.251   4.696  17.528  0.00  0.00    +0.000 C 
ATOM      5  O   UNL     1       7.914   4.638  18.554  0.00  0.00    +0.000 OA
ATOM      6  C   UNL     1       5.713   4.864  17.432  0.00  0.00    +0.000 C 
ATOM      7  N   UNL     1       5.579   4.878  15.982  0.00  0.00    +0.000 N 
ATOM      8  H   UNL     1       8.735   4.510  16.048  0.00  0.00    +0.000 HD
ATOM      9  H   UNL     1       4.710   4.962  15.471  0.00  0.00    +0.000 HD
ENDROOT
BRANCH   6  10
ATOM     10  C   UNL     1       5.022   3.638  18.048  0.00  0.00    +0.000 A 
ATOM     11  C   UNL     1       4.273   2.742  17.263  0.00  0.00    +0.000 A 
ATOM     12  C   UNL     1       3.553   1.695  17.847  0.00  0.00    +0.000 A 
ATOM     13  C   UNL     1       3.561   1.521  19.227  0.00  0.00    +0.000 A 
ATOM     14  C   UNL     1       4.308   2.380  20.024  0.00  0.00    +0.000 A 
ATOM     15  C   UNL     1       5.029   3.427  19.443  0.00  0.00    +0.000 A 
ENDBRANCH   6  10
BRANCH   6  16
ATOM     16  C   UNL     1       5.304   6.218  18.063  0.00  0.00    +0.000 C 
BRANCH  16  17
ATOM     17  S   UNL     1       3.627   6.831  17.597  0.00  0.00    +0.000 S 
BRANCH  17  18
ATOM     18  C   UNL     1       2.608   5.760  18.594  0.00  0.00    +0.000 A 
ATOM     19  C   UNL     1       2.590   5.858  19.988  0.00  0.00    +0.000 A 
ATOM     20  C   UNL     1       1.761   5.027  20.743  0.00  0.00    +0.000 A 
ATOM     21  C   UNL     1       0.935   4.101  20.108  0.00  0.00    +0.000 A 
ATOM     22  C   UNL     1       0.940   4.006  18.718  0.00  0.00    +0.000 A 
ATOM     23  C   UNL     1       1.770   4.836  17.962  0.00  0.00    +0.000 A 
ENDBRANCH  17  18
ENDBRANCH  16  17
ENDBRANCH   6  16
TORSDOF 4
ENDMDL
MODEL 8
REMARK VINA RESULT:      -8.0      0.744      1.614
REMARK  Name = 
REMARK  4 active torsions:
REMARK  status: ('A' for Active; 'I' for Inactive)
REMARK    1  A    between atoms: C_6  and  C_7
REMARK    2  A    between atoms: C_6  and  C_15
REMARK    3  A    between atoms: C_7  and  S_8
REMARK    4  A    between atoms: S_8  and  C_9
REMARK                            x       y       z     vdW  Elec       q    Type
REMARK                         _______ _______ _______ _____ _____    ______ ____
ROOT
ATOM      1  O   UNL     1       6.888   8.495  17.306  0.00  0.00    +0.000 OA
ATOM      2  C   UNL     1       6.832   7.300  17.084  0.00  0.00    +0.000 C 
ATOM      3  N   UNL     1       7.744   6.372  17.455  0.00  0.00    +0.000 N 
ATOM      4  C   UNL     1       7.383   5.132  17.025  0.00  0.00    +0.000 C 
ATOM      5  O   UNL     1       8.022   4.110  17.230  0.00  0.00    +0.000 OA
ATOM      6  C   UNL     1       6.048   5.246  16.246  0.00  0.00    +0.000 C 
ATOM      7  N   UNL     1       5.828   6.678  16.385  0.00  0.00    +0.000 N 
ATOM      8  H   UNL     1       8.572   6.579  17.985  0.00  0.00    +0.000 HD
ATOM      9  H   UNL     1       5.046   7.194  16.003  0.00  0.00    +0.000 HD
ENDROOT
BRANCH   6  10
ATOM     10  C   UNL     1       6.274   4.852  14.778  0.00  0.00    +0.000 A 
ATOM     11  C   UNL     1       5.413   3.958  14.114  0.00  0.00    +0.000 A 
ATOM     12  C   UNL     1       5.689   3.516  12.816  0.00  0.00    +0.000 A 
ATOM     13  C   UNL     1       6.830   3.955  12.153  0.00  0.00    +0.000 A 
ATOM     14  C   UNL     1       7.687   4.853  12.778  0.00  0.00    +0.000 A 
ATOM     15  C   UNL     1       7.412   5.297  14.075  0.00  0.00    +0.000 A 
ENDBRANCH   6  10
BRANCH   6  16
ATOM     16  C   UNL     1       4.958   4.420  16.973  0.00  0.00    +0.000 C 
BRANCH  16  17
ATOM     17  S   UNL     1       4.955   4.565  18.812  0.00  0.00    +0.000 S 
BRANCH  17  18
ATOM     18  C   UNL     1       3.324   3.942  19.178  0.00  0.00    +0.000 A 
ATOM     19  C   UNL     1       2.432   3.588  18.161  0.00  0.00    +0.000 A 
ATOM     20  C   UNL     1       1.172   3.075  18.475  0.00  0.00    +0.000 A 
ATOM     21  C   UNL     1       0.802   2.899  19.807  0.00  0.00    +0.000 A 
ATOM     22  C   UNL     1       1.692   3.239  20.825  0.00  0.00    +0.000 A 
ATOM     23  C   UNL     1       2.951   3.754  20.512  0.00  0.00    +0.000 A 
ENDBRANCH  17  18
ENDBRANCH  16  17
ENDBRANCH   6  16
TORSDOF 4
ENDMDL
MODEL 9
REMARK VINA RESULT:      -8.0      0.935      1.230
REMARK  Name = 
REMARK  4 active torsions:
REMARK  status: ('A' for Active; 'I' for Inactive)
REMARK    1  A    between atoms: C_6  and  C_7
REMARK    2  A    between atoms: C_6  and  C_15
REMARK    3  A    between atoms: C_7  and  S_8
REMARK    4  A    between atoms: S_8  and  C_9
REMARK                            x       y       z     vdW  Elec       q    Type
REMARK                         _______ _______ _______ _____ _____    ______ ____
ROOT
ATOM      1  O   UNL     1       6.976   8.485  17.286  0.00  0.00    +0.000 OA
ATOM      2  C   UNL     1       6.926   7.284  17.104  0.00  0.00    +0.000 C 
ATOM      3  N   UNL     1       7.816   6.368  17.552  0.00  0.00    +0.000 N 
ATOM      4  C   UNL     1       7.472   5.114  17.149  0.00  0.00    +0.000 C 
ATOM      5  O   UNL     1       8.097   4.099  17.420  0.00  0.00    +0.000 OA
ATOM      6  C   UNL     1       6.177   5.203  16.302  0.00  0.00    +0.000 C 
ATOM      7  N   UNL     1       5.955   6.639  16.380  0.00  0.00    +0.000 N 
ATOM      8  H   UNL     1       8.619   6.592  18.114  0.00  0.00    +0.000 HD
ATOM      9  H   UNL     1       5.195   7.143  15.942  0.00  0.00    +0.000 HD
ENDROOT
BRANCH   6  10
ATOM     10  C   UNL     1       6.471   4.757  14.862  0.00  0.00    +0.000 A 
ATOM     11  C   UNL     1       7.514   5.333  14.111  0.00  0.00    +0.000 A 
ATOM     12  C   UNL     1       7.703   5.005  12.764  0.00  0.00    +0.000 A 
ATOM     13  C   UNL     1       6.855   4.098  12.137  0.00  0.00    +0.000 A 
ATOM     14  C   UNL     1       5.830   3.500  12.861  0.00  0.00    +0.000 A 
ATOM     15  C   UNL     1       5.640   3.825  14.207  0.00  0.00    +0.000 A 
ENDBRANCH   6  10
BRANCH   6  16
ATOM     16  C   UNL     1       5.050   4.405  17.004  0.00  0.00    +0.000 C 
BRANCH  16  17
ATOM     17  S   UNL     1       3.668   5.423  17.682  0.00  0.00    +0.000 S 
BRANCH  17  18
ATOM     18  C   UNL     1       3.147   4.390  19.039  0.00  0.00    +0.000 A 
ATOM     19  C   UNL     1       3.882   3.266  19.426  0.00  0.00    +0.000 A 
ATOM     20  C   UNL     1       3.468   2.491  20.511  0.00  0.00    +0.000 A 
ATOM     21  C   UNL     1       2.322   2.842  21.223  0.00  0.00    +0.000 A 
ATOM     22  C   UNL     1       1.591   3.968  20.849  0.00  0.00    +0.000 A 
ATOM     23  C   UNL     1       2.004   4.743  19.763  0.00  0.00    +0.000 A 
ENDBRANCH  17  18
ENDBRANCH  16  17
ENDBRANCH   6  16
TORSDOF 4
ENDMDL
