MODEL 1
REMARK VINA RESULT:      -7.7      0.000      0.000
REMARK  Name = 
REMARK  8 active torsions:
REMARK  status: ('A' for Active; 'I' for Inactive)
REMARK    1  A    between atoms: C_1  and  O_2
REMARK    2  A    between atoms: O_2  and  C_3
REMARK    3  A    between atoms: C_6  and  N_7
REMARK    4  A    between atoms: C_8  and  C_10
REMARK    5  A    between atoms: C_10  and  C_12
REMARK    6  A    between atoms: N_14  and  C_15
REMARK    7  A    between atoms: C_15  and  C_16
REMARK    8  A    between atoms: C_15  and  C_17
REMARK                            x       y       z     vdW  Elec       q    Type
REMARK                         _______ _______ _______ _____ _____    ______ ____
ROOT
ATOM      1  C   UNL     1       1.535   8.732  19.611  0.00  0.00    +0.000 C 
ATOM      2  O   UNL     1       1.744   8.027  20.611  0.00  0.00    +0.000 OA
ENDROOT
BRANCH   1   3
ATOM      3  C   UNL     1       0.554   9.848  19.699  0.00  0.00    +0.000 A 
ATOM      4  C   UNL     1       0.749  10.844  20.662  0.00  0.00    +0.000 A 
ATOM      5  N   UNL     1      -0.480  11.381  20.902  0.00  0.00    +0.000 N 
ATOM      6  C   UNL     1      -1.144  11.402  19.700  0.00  0.00    +0.000 A 
ATOM      7  C   UNL     1      -2.202  12.198  19.278  0.00  0.00    +0.000 A 
ATOM      8  N   UNL     1      -2.813  11.898  18.117  0.00  0.00    +0.000 NA
ATOM      9  C   UNL     1      -2.397  10.810  17.442  0.00  0.00    +0.000 A 
ATOM     10  C   UNL     1      -1.340   9.968  17.816  0.00  0.00    +0.000 A 
ATOM     11  C   UNL     1      -0.631  10.301  18.985  0.00  0.00    +0.000 A 
BRANCH   5  12
ATOM     12  C   UNL     1      -1.190  11.305  22.191  0.00  0.00    +0.000 C 
ATOM     13  C   UNL     1      -0.612  10.167  23.048  0.00  0.00    +0.000 C 
ATOM     14  C   UNL     1      -1.194  12.617  22.966  0.00  0.00    +0.000 C 
ENDBRANCH   5  12
ENDBRANCH   1   3
BRANCH   1  16
ATOM     15  N   UNL     1       2.877   6.958  18.572  0.00  0.00    +0.000 N 
ATOM     16  C   UNL     1       2.272   8.209  18.349  0.00  0.00    +0.000 C 
ATOM     17  O   UNL     1       2.278   8.848  17.321  0.00  0.00    +0.000 OA
ATOM     18  H   UNL     1       2.741   6.603  19.521  0.00  0.00    +0.000 HD
BRANCH  15  22
ATOM     19  C   UNL     1       5.198   4.448  16.117  0.00  0.00    +0.000 A 
ATOM     20  C   UNL     1       5.475   5.807  16.117  0.00  0.00    +0.000 A 
ATOM     21  C   UNL     1       4.710   6.675  16.916  0.00  0.00    +0.000 A 
ATOM     22  C   UNL     1       3.682   6.173  17.702  0.00  0.00    +0.000 A 
ATOM     23  C   UNL     1       3.475   4.785  17.609  0.00  0.00    +0.000 A 
ATOM     24  N   UNL     1       4.200   3.913  16.842  0.00  0.00    +0.000 NA
BRANCH  19  26
ATOM     25  C   UNL     1       6.366   4.248  14.069  0.00  0.00    +0.000 C 
ATOM     26  O   UNL     1       6.010   3.660  15.315  0.00  0.00    +0.000 OA
ENDBRANCH  19  26
ENDBRANCH  15  22
ENDBRANCH   1  16
TORSDOF 5
ENDMDL
MODEL 2
REMARK VINA RESULT:      -7.6      2.221      9.031
REMARK  Name = 
REMARK  8 active torsions:
REMARK  status: ('A' for Active; 'I' for Inactive)
REMARK    1  A    between atoms: C_1  and  O_2
REMARK    2  A    between atoms: O_2  and  C_3
REMARK    3  A    between atoms: C_6  and  N_7
REMARK    4  A    between atoms: C_8  and  C_10
REMARK    5  A    between atoms: C_10  and  C_12
REMARK    6  A    between atoms: N_14  and  C_15
REMARK    7  A    between atoms: C_15  and  C_16
REMARK    8  A    between atoms: C_15  and  C_17
REMARK                            x       y       z     vdW  Elec       q    Type
REMARK                         _______ _______ _______ _____ _____    ______ ____
ROOT
ATOM      1  C   UNL     1       2.520   7.419  18.727  0.00  0.00    +0.000 C 
ATOM      2  O   UNL     1       2.565   8.299  17.854  0.00  0.00    +0.000 OA
ENDROOT
BRANCH   1   3
ATOM      3  C   UNL     1       3.104   6.080  18.443  0.00  0.00    +0.000 A 
ATOM      4  C   UNL     1       4.491   5.965  18.297  0.00  0.00    +0.000 A 
ATOM      5  N   UNL     1       4.698   4.854  17.535  0.00  0.00    +0.000 N 
ATOM      6  C   UNL     1       3.749   3.935  17.910  0.00  0.00    +0.000 A 
ATOM      7  C   UNL     1       3.752   2.549  17.796  0.00  0.00    +0.000 A 
ATOM      8  N   UNL     1       2.616   1.877  18.060  0.00  0.00    +0.000 NA
ATOM      9  C   UNL     1       1.517   2.586  18.377  0.00  0.00    +0.000 A 
ATOM     10  C   UNL     1       1.449   3.981  18.506  0.00  0.00    +0.000 A 
ATOM     11  C   UNL     1       2.640   4.706  18.314  0.00  0.00    +0.000 A 
BRANCH   5  12
ATOM     12  C   UNL     1       5.298   4.860  16.190  0.00  0.00    +0.000 C 
ATOM     13  C   UNL     1       5.217   6.269  15.581  0.00  0.00    +0.000 C 
ATOM     14  C   UNL     1       6.730   4.337  16.155  0.00  0.00    +0.000 C 
ENDBRANCH   5  12
ENDBRANCH   1   3
BRANCH   1  16
ATOM     15  N   UNL     1       1.191   9.160  19.836  0.00  0.00    +0.000 N 
ATOM     16  C   UNL     1       1.702   7.856  19.972  0.00  0.00    +0.000 C 
ATOM     17  O   UNL     1       1.551   7.109  20.913  0.00  0.00    +0.000 OA
ATOM     18  H   UNL     1       1.445   9.607  18.952  0.00  0.00    +0.000 HD
BRANCH  15  22
ATOM     19  C   UNL     1      -0.933  11.664  22.469  0.00  0.00    +0.000 A 
ATOM     20  C   UNL     1      -0.722  10.345  22.842  0.00  0.00    +0.000 A 
ATOM     21  C   UNL     1      -0.029   9.478  21.980  0.00  0.00    +0.000 A 
ATOM     22  C   UNL     1       0.445   9.942  20.760  0.00  0.00    +0.000 A 
ATOM     23  C   UNL     1       0.158  11.289  20.475  0.00  0.00    +0.000 A 
ATOM     24  N   UNL     1      -0.515  12.158  21.291  0.00  0.00    +0.000 NA
BRANCH  19  26
ATOM     25  C   UNL     1      -3.011  12.214  23.457  0.00  0.00    +0.000 C 
ATOM     26  O   UNL     1      -1.611  12.455  23.384  0.00  0.00    +0.000 OA
ENDBRANCH  19  26
ENDBRANCH  15  22
ENDBRANCH   1  16
TORSDOF 5
ENDMDL
MODEL 3
REMARK VINA RESULT:      -7.6      6.354      9.291
REMARK  Name = 
REMARK  8 active torsions:
REMARK  status: ('A' for Active; 'I' for Inactive)
REMARK    1  A    between atoms: C_1  and  O_2
REMARK    2  A    between atoms: O_2  and  C_3
REMARK    3  A    between atoms: C_6  and  N_7
REMARK    4  A    between atoms: C_8  and  C_10
REMARK    5  A    between atoms: C_10  and  C_12
REMARK    6  A    between atoms: N_14  and  C_15
REMARK    7  A    between atoms: C_15  and  C_16
REMARK    8  A    between atoms: C_15  and  C_17
REMARK                            x       y       z     vdW  Elec       q    Type
REMARK                         _______ _______ _______ _____ _____    ______ ____
ROOT
ATOM      1  C   UNL     1       7.688   6.312  18.661  0.00  0.00    +0.000 C 
ATOM      2  O   UNL     1       8.500   5.944  19.523  0.00  0.00    +0.000 OA
ENDROOT
BRANCH   1   3
ATOM      3  C   UNL     1       6.672   5.348  18.158  0.00  0.00    +0.000 A 
ATOM      4  C   UNL     1       7.006   4.511  17.088  0.00  0.00    +0.000 A 
ATOM      5  N   UNL     1       5.828   4.169  16.494  0.00  0.00    +0.000 N 
ATOM      6  C   UNL     1       4.905   4.026  17.501  0.00  0.00    +0.000 A 
ATOM      7  C   UNL     1       3.721   3.299  17.530  0.00  0.00    +0.000 A 
ATOM      8  N   UNL     1       2.883   3.470  18.570  0.00  0.00    +0.000 NA
ATOM      9  C   UNL     1       3.214   4.375  19.510  0.00  0.00    +0.000 A 
ATOM     10  C   UNL     1       4.390   5.138  19.536  0.00  0.00    +0.000 A 
ATOM     11  C   UNL     1       5.323   4.923  18.504  0.00  0.00    +0.000 A 
BRANCH   5  12
ATOM     12  C   UNL     1       5.443   4.540  15.122  0.00  0.00    +0.000 C 
ATOM     13  C   UNL     1       5.308   6.067  15.005  0.00  0.00    +0.000 C 
ATOM     14  C   UNL     1       6.384   3.997  14.053  0.00  0.00    +0.000 C 
ENDBRANCH   5  12
ENDBRANCH   1   3
BRANCH   1  16
ATOM     15  N   UNL     1       8.693   8.512  19.082  0.00  0.00    +0.000 N 
ATOM     16  C   UNL     1       7.979   7.745  18.141  0.00  0.00    +0.000 C 
ATOM     17  O   UNL     1       7.616   8.096  17.041  0.00  0.00    +0.000 OA
ATOM     18  H   UNL     1       8.895   8.009  19.949  0.00  0.00    +0.000 HD
BRANCH  15  22
ATOM     19  C   UNL     1       9.856  12.557  19.116  0.00  0.00    +0.000 A 
ATOM     20  C   UNL     1       9.567  11.966  17.895  0.00  0.00    +0.000 A 
ATOM     21  C   UNL     1       9.188  10.613  17.847  0.00  0.00    +0.000 A 
ATOM     22  C   UNL     1       9.103   9.872  19.017  0.00  0.00    +0.000 A 
ATOM     23  C   UNL     1       9.438  10.565  20.194  0.00  0.00    +0.000 A 
ATOM     24  N   UNL     1       9.811  11.879  20.276  0.00  0.00    +0.000 NA
BRANCH  19  26
ATOM     25  C   UNL     1      10.878  14.372  20.238  0.00  0.00    +0.000 C 
ATOM     26  O   UNL     1      10.205  13.898  19.077  0.00  0.00    +0.000 OA
ENDBRANCH  19  26
ENDBRANCH  15  22
ENDBRANCH   1  16
TORSDOF 5
ENDMDL
MODEL 4
REMARK VINA RESULT:      -7.6      2.491      8.663
REMARK  Name = 
REMARK  8 active torsions:
REMARK  status: ('A' for Active; 'I' for Inactive)
REMARK    1  A    between atoms: C_1  and  O_2
REMARK    2  A    between atoms: O_2  and  C_3
REMARK    3  A    between atoms: C_6  and  N_7
REMARK    4  A    between atoms: C_8  and  C_10
REMARK    5  A    between atoms: C_10  and  C_12
REMARK    6  A    between atoms: N_14  and  C_15
REMARK    7  A    between atoms: C_15  and  C_16
REMARK    8  A    between atoms: C_15  and  C_17
REMARK                            x       y       z     vdW  Elec       q    Type
REMARK                         _______ _______ _______ _____ _____    ______ ____
ROOT
ATOM      1  C   UNL     1       3.046   7.488  17.746  0.00  0.00    +0.000 C 
ATOM      2  O   UNL     1       3.567   7.988  16.737  0.00  0.00    +0.000 OA
ENDROOT
BRANCH   1   3
ATOM      3  C   UNL     1       3.418   6.105  18.149  0.00  0.00    +0.000 A 
ATOM      4  C   UNL     1       4.696   5.872  18.666  0.00  0.00    +0.000 A 
ATOM      5  N   UNL     1       4.964   4.556  18.433  0.00  0.00    +0.000 N 
ATOM      6  C   UNL     1       3.782   3.877  18.602  0.00  0.00    +0.000 A 
ATOM      7  C   UNL     1       3.556   2.540  18.909  0.00  0.00    +0.000 A 
ATOM      8  N   UNL     1       2.300   2.063  18.831  0.00  0.00    +0.000 NA
ATOM      9  C   UNL     1       1.328   2.896  18.412  0.00  0.00    +0.000 A 
ATOM     10  C   UNL     1       1.492   4.250  18.087  0.00  0.00    +0.000 A 
ATOM     11  C   UNL     1       2.780   4.798  18.235  0.00  0.00    +0.000 A 
BRANCH   5  12
ATOM     12  C   UNL     1       6.034   4.063  17.550  0.00  0.00    +0.000 C 
ATOM     13  C   UNL     1       5.589   4.147  16.080  0.00  0.00    +0.000 C 
ATOM     14  C   UNL     1       7.370   4.769  17.751  0.00  0.00    +0.000 C 
ENDBRANCH   5  12
ENDBRANCH   1   3
BRANCH   1  16
ATOM     15  N   UNL     1       1.980   8.388  19.766  0.00  0.00    +0.000 N 
ATOM     16  C   UNL     1       1.945   8.395  18.359  0.00  0.00    +0.000 C 
ATOM     17  O   UNL     1       1.185   9.018  17.652  0.00  0.00    +0.000 OA
ATOM     18  H   UNL     1       2.711   7.788  20.153  0.00  0.00    +0.000 HD
BRANCH  15  22
ATOM     19  C   UNL     1      -0.432  10.488  22.503  0.00  0.00    +0.000 A 
ATOM     20  C   UNL     1      -0.522   9.105  22.473  0.00  0.00    +0.000 A 
ATOM     21  C   UNL     1       0.259   8.374  21.562  0.00  0.00    +0.000 A 
ATOM     22  C   UNL     1       1.119   9.034  20.695  0.00  0.00    +0.000 A 
ATOM     23  C   UNL     1       1.116  10.437  20.797  0.00  0.00    +0.000 A 
ATOM     24  N   UNL     1       0.367  11.179  21.671  0.00  0.00    +0.000 NA
BRANCH  19  26
ATOM     25  C   UNL     1      -1.481  12.502  23.164  0.00  0.00    +0.000 C 
ATOM     26  O   UNL     1      -1.223  11.131  23.442  0.00  0.00    +0.000 OA
ENDBRANCH  19  26
ENDBRANCH  15  22
ENDBRANCH   1  16
TORSDOF 5
ENDMDL
MODEL 5
REMARK VINA RESULT:      -7.4      2.082      8.828
REMARK  Name = 
REMARK  8 active torsions:
REMARK  status: ('A' for Active; 'I' for Inactive)
REMARK    1  A    between atoms: C_1  and  O_2
REMARK    2  A    between atoms: O_2  and  C_3
REMARK    3  A    between atoms: C_6  and  N_7
REMARK    4  A    between atoms: C_8  and  C_10
REMARK    5  A    between atoms: C_10  and  C_12
REMARK    6  A    between atoms: N_14  and  C_15
REMARK    7  A    between atoms: C_15  and  C_16
REMARK    8  A    between atoms: C_15  and  C_17
REMARK                            x       y       z     vdW  Elec       q    Type
REMARK                         _______ _______ _______ _____ _____    ______ ____
ROOT
ATOM      1  C   UNL     1       2.972   7.481  17.935  0.00  0.00    +0.000 C 
ATOM      2  O   UNL     1       3.324   8.125  16.935  0.00  0.00    +0.000 OA
ENDROOT
BRANCH   1   3
ATOM      3  C   UNL     1       3.428   6.073  18.093  0.00  0.00    +0.000 A 
ATOM      4  C   UNL     1       4.781   5.824  18.343  0.00  0.00    +0.000 A 
ATOM      5  N   UNL     1       5.019   4.556  17.905  0.00  0.00    +0.000 N 
ATOM      6  C   UNL     1       3.896   3.821  18.196  0.00  0.00    +0.000 A 
ATOM      7  C   UNL     1       3.746   2.450  18.371  0.00  0.00    +0.000 A 
ATOM      8  N   UNL     1       2.503   1.943  18.458  0.00  0.00    +0.000 NA
ATOM      9  C   UNL     1       1.461   2.785  18.324  0.00  0.00    +0.000 A 
ATOM     10  C   UNL     1       1.547   4.173  18.144  0.00  0.00    +0.000 A 
ATOM     11  C   UNL     1       2.833   4.744  18.129  0.00  0.00    +0.000 A 
BRANCH   5  12
ATOM     12  C   UNL     1       5.920   4.208  16.793  0.00  0.00    +0.000 C 
ATOM     13  C   UNL     1       5.404   4.824  15.482  0.00  0.00    +0.000 C 
ATOM     14  C   UNL     1       7.373   4.596  17.037  0.00  0.00    +0.000 C 
ENDBRANCH   5  12
ENDBRANCH   1   3
BRANCH   1  16
ATOM     15  N   UNL     1       1.281   9.253  18.090  0.00  0.00    +0.000 N 
ATOM     16  C   UNL     1       1.959   8.258  18.818  0.00  0.00    +0.000 C 
ATOM     17  O   UNL     1       1.810   7.982  19.987  0.00  0.00    +0.000 OA
ATOM     18  H   UNL     1       1.567   9.308  17.110  0.00  0.00    +0.000 HD
BRANCH  15  22
ATOM     19  C   UNL     1      -1.410  12.124  19.587  0.00  0.00    +0.000 A 
ATOM     20  C   UNL     1      -1.882  11.192  18.675  0.00  0.00    +0.000 A 
ATOM     21  C   UNL     1      -1.007  10.228  18.145  0.00  0.00    +0.000 A 
ATOM     22  C   UNL     1       0.325  10.208  18.534  0.00  0.00    +0.000 A 
ATOM     23  C   UNL     1       0.701  11.210  19.447  0.00  0.00    +0.000 A 
ATOM     24  N   UNL     1      -0.125  12.163  19.981  0.00  0.00    +0.000 NA
BRANCH  19  26
ATOM     25  C   UNL     1      -1.788  14.236  20.581  0.00  0.00    +0.000 C 
ATOM     26  O   UNL     1      -2.341  13.028  20.073  0.00  0.00    +0.000 OA
ENDBRANCH  19  26
ENDBRANCH  15  22
ENDBRANCH   1  16
TORSDOF 5
ENDMDL
MODEL 6
REMARK VINA RESULT:      -7.4      2.493      8.655
REMARK  Name = 
REMARK  8 active torsions:
REMARK  status: ('A' for Active; 'I' for Inactive)
REMARK    1  A    between atoms: C_1  and  O_2
REMARK    2  A    between atoms: O_2  and  C_3
REMARK    3  A    between atoms: C_6  and  N_7
REMARK    4  A    between atoms: C_8  and  C_10
REMARK    5  A    between atoms: C_10  and  C_12
REMARK    6  A    between atoms: N_14  and  C_15
REMARK    7  A    between atoms: C_15  and  C_16
REMARK    8  A    between atoms: C_15  and  C_17
REMARK                            x       y       z     vdW  Elec       q    Type
REMARK                         _______ _______ _______ _____ _____    ______ ____
ROOT
ATOM      1  C   UNL     1       2.790   7.744  18.083  0.00  0.00    +0.000 C 
ATOM      2  O   UNL     1       3.268   8.174  17.022  0.00  0.00    +0.000 OA
ENDROOT
BRANCH   1   3
ATOM      3  C   UNL     1       3.212   6.408  18.584  0.00  0.00    +0.000 A 
ATOM      4  C   UNL     1       4.444   5.889  18.170  0.00  0.00    +0.000 A 
ATOM      5  N   UNL     1       4.341   4.535  18.289  0.00  0.00    +0.000 N 
ATOM      6  C   UNL     1       3.589   4.293  19.412  0.00  0.00    +0.000 A 
ATOM      7  C   UNL     1       3.535   3.167  20.225  0.00  0.00    +0.000 A 
ATOM      8  N   UNL     1       2.571   3.093  21.162  0.00  0.00    +0.000 NA
ATOM      9  C   UNL     1       1.676   4.096  21.234  0.00  0.00    +0.000 A 
ATOM     10  C   UNL     1       1.676   5.253  20.444  0.00  0.00    +0.000 A 
ATOM     11  C   UNL     1       2.718   5.397  19.509  0.00  0.00    +0.000 A 
BRANCH   5  12
ATOM     12  C   UNL     1       4.399   3.589  17.162  0.00  0.00    +0.000 C 
ATOM     13  C   UNL     1       2.983   3.108  16.803  0.00  0.00    +0.000 C 
ATOM     14  C   UNL     1       5.110   4.141  15.933  0.00  0.00    +0.000 C 
ENDBRANCH   5  12
ENDBRANCH   1   3
BRANCH   1  16
ATOM     15  N   UNL     1       1.757   8.776  20.056  0.00  0.00    +0.000 N 
ATOM     16  C   UNL     1       1.682   8.669  18.655  0.00  0.00    +0.000 C 
ATOM     17  O   UNL     1       0.884   9.212  17.924  0.00  0.00    +0.000 OA
ATOM     18  H   UNL     1       2.516   8.228  20.467  0.00  0.00    +0.000 HD
BRANCH  15  22
ATOM     19  C   UNL     1      -0.634  11.027  22.690  0.00  0.00    +0.000 A 
ATOM     20  C   UNL     1      -0.688   9.643  22.772  0.00  0.00    +0.000 A 
ATOM     21  C   UNL     1       0.087   8.862  21.898  0.00  0.00    +0.000 A 
ATOM     22  C   UNL     1       0.905   9.473  20.957  0.00  0.00    +0.000 A 
ATOM     23  C   UNL     1       0.867  10.879  20.949  0.00  0.00    +0.000 A 
ATOM     24  N   UNL     1       0.124  11.669  21.784  0.00  0.00    +0.000 NA
BRANCH  19  26
ATOM     25  C   UNL     1      -2.669  12.164  23.090  0.00  0.00    +0.000 C 
ATOM     26  O   UNL     1      -1.416  11.722  23.599  0.00  0.00    +0.000 OA
ENDBRANCH  19  26
ENDBRANCH  15  22
ENDBRANCH   1  16
TORSDOF 5
ENDMDL
MODEL 7
REMARK VINA RESULT:      -7.4      2.102      8.907
REMARK  Name = 
REMARK  8 active torsions:
REMARK  status: ('A' for Active; 'I' for Inactive)
REMARK    1  A    between atoms: C_1  and  O_2
REMARK    2  A    between atoms: O_2  and  C_3
REMARK    3  A    between atoms: C_6  and  N_7
REMARK    4  A    between atoms: C_8  and  C_10
REMARK    5  A    between atoms: C_10  and  C_12
REMARK    6  A    between atoms: N_14  and  C_15
REMARK    7  A    between atoms: C_15  and  C_16
REMARK    8  A    between atoms: C_15  and  C_17
REMARK                            x       y       z     vdW  Elec       q    Type
REMARK                         _______ _______ _______ _____ _____    ______ ____
ROOT
ATOM      1  C   UNL     1       2.711   7.300  18.619  0.00  0.00    +0.000 C 
ATOM      2  O   UNL     1       2.922   7.999  17.616  0.00  0.00    +0.000 OA
ENDROOT
BRANCH   1   3
ATOM      3  C   UNL     1       3.225   5.904  18.655  0.00  0.00    +0.000 A 
ATOM      4  C   UNL     1       4.580   5.689  18.928  0.00  0.00    +0.000 A 
ATOM      5  N   UNL     1       4.888   4.481  18.378  0.00  0.00    +0.000 N 
ATOM      6  C   UNL     1       3.791   3.675  18.555  0.00  0.00    +0.000 A 
ATOM      7  C   UNL     1       3.698   2.288  18.591  0.00  0.00    +0.000 A 
ATOM      8  N   UNL     1       2.476   1.723  18.584  0.00  0.00    +0.000 NA
ATOM      9  C   UNL     1       1.402   2.530  18.496  0.00  0.00    +0.000 A 
ATOM     10  C   UNL     1       1.431   3.931  18.455  0.00  0.00    +0.000 A 
ATOM     11  C   UNL     1       2.690   4.555  18.541  0.00  0.00    +0.000 A 
BRANCH   5  12
ATOM     12  C   UNL     1       5.838   4.283  17.270  0.00  0.00    +0.000 C 
ATOM     13  C   UNL     1       5.168   4.631  15.930  0.00  0.00    +0.000 C 
ATOM     14  C   UNL     1       7.144   5.051  17.436  0.00  0.00    +0.000 C 
ENDBRANCH   5  12
ENDBRANCH   1   3
BRANCH   1  16
ATOM     15  N   UNL     1       1.326   9.247  19.184  0.00  0.00    +0.000 N 
ATOM     16  C   UNL     1       1.789   8.002  19.651  0.00  0.00    +0.000 C 
ATOM     17  O   UNL     1       1.529   7.480  20.712  0.00  0.00    +0.000 OA
ATOM     18  H   UNL     1       1.675   9.488  18.254  0.00  0.00    +0.000 HD
BRANCH  15  22
ATOM     19  C   UNL     1      -0.956  12.072  21.313  0.00  0.00    +0.000 A 
ATOM     20  C   UNL     1      -1.471  11.568  20.128  0.00  0.00    +0.000 A 
ATOM     21  C   UNL     1      -0.729  10.633  19.385  0.00  0.00    +0.000 A 
ATOM     22  C   UNL     1       0.515  10.215  19.837  0.00  0.00    +0.000 A 
ATOM     23  C   UNL     1       0.949  10.805  21.038  0.00  0.00    +0.000 A 
ATOM     24  N   UNL     1       0.253  11.718  21.784  0.00  0.00    +0.000 NA
BRANCH  19  26
ATOM     25  C   UNL     1      -2.886  12.399  22.641  0.00  0.00    +0.000 C 
ATOM     26  O   UNL     1      -1.758  12.976  21.991  0.00  0.00    +0.000 OA
ENDBRANCH  19  26
ENDBRANCH  15  22
ENDBRANCH   1  16
TORSDOF 5
ENDMDL
MODEL 8
REMARK VINA RESULT:      -7.4      6.360      9.247
REMARK  Name = 
REMARK  8 active torsions:
REMARK  status: ('A' for Active; 'I' for Inactive)
REMARK    1  A    between atoms: C_1  and  O_2
REMARK    2  A    between atoms: O_2  and  C_3
REMARK    3  A    between atoms: C_6  and  N_7
REMARK    4  A    between atoms: C_8  and  C_10
REMARK    5  A    between atoms: C_10  and  C_12
REMARK    6  A    between atoms: N_14  and  C_15
REMARK    7  A    between atoms: C_15  and  C_16
REMARK    8  A    between atoms: C_15  and  C_17
REMARK                            x       y       z     vdW  Elec       q    Type
REMARK                         _______ _______ _______ _____ _____    ______ ____
ROOT
ATOM      1  C   UNL     1       7.690   6.290  18.652  0.00  0.00    +0.000 C 
ATOM      2  O   UNL     1       8.506   5.915  19.508  0.00  0.00    +0.000 OA
ENDROOT
BRANCH   1   3
ATOM      3  C   UNL     1       6.669   5.331  18.149  0.00  0.00    +0.000 A 
ATOM      4  C   UNL     1       6.997   4.496  17.076  0.00  0.00    +0.000 A 
ATOM      5  N   UNL     1       5.816   4.160  16.484  0.00  0.00    +0.000 N 
ATOM      6  C   UNL     1       4.896   4.018  17.493  0.00  0.00    +0.000 A 
ATOM      7  C   UNL     1       3.708   3.295  17.524  0.00  0.00    +0.000 A 
ATOM      8  N   UNL     1       2.875   3.467  18.566  0.00  0.00    +0.000 NA
ATOM      9  C   UNL     1       3.212   4.368  19.508  0.00  0.00    +0.000 A 
ATOM     10  C   UNL     1       4.391   5.126  19.533  0.00  0.00    +0.000 A 
ATOM     11  C   UNL     1       5.320   4.911  18.498  0.00  0.00    +0.000 A 
BRANCH   5  12
ATOM     12  C   UNL     1       5.429   4.537  15.114  0.00  0.00    +0.000 C 
ATOM     13  C   UNL     1       5.322   6.066  14.996  0.00  0.00    +0.000 C 
ATOM     14  C   UNL     1       6.351   3.975  14.039  0.00  0.00    +0.000 C 
ENDBRANCH   5  12
ENDBRANCH   1   3
BRANCH   1  16
ATOM     15  N   UNL     1       8.673   8.496  19.092  0.00  0.00    +0.000 N 
ATOM     16  C   UNL     1       7.984   7.725  18.138  0.00  0.00    +0.000 C 
ATOM     17  O   UNL     1       7.642   8.073  17.030  0.00  0.00    +0.000 OA
ATOM     18  H   UNL     1       8.860   7.994  19.964  0.00  0.00    +0.000 HD
BRANCH  15  22
ATOM     19  C   UNL     1       9.836  12.522  18.696  0.00  0.00    +0.000 A 
ATOM     20  C   UNL     1      10.191  11.845  19.853  0.00  0.00    +0.000 A 
ATOM     21  C   UNL     1       9.807  10.504  20.023  0.00  0.00    +0.000 A 
ATOM     22  C   UNL     1       9.076   9.858  19.036  0.00  0.00    +0.000 A 
ATOM     23  C   UNL     1       8.753  10.644  17.915  0.00  0.00    +0.000 A 
ATOM     24  N   UNL     1       9.109  11.951  17.719  0.00  0.00    +0.000 NA
BRANCH  19  26
ATOM     25  C   UNL     1       9.504  14.770  19.353  0.00  0.00    +0.000 C 
ATOM     26  O   UNL     1      10.268  13.835  18.600  0.00  0.00    +0.000 OA
ENDBRANCH  19  26
ENDBRANCH  15  22
ENDBRANCH   1  16
TORSDOF 5
ENDMDL
MODEL 9
REMARK VINA RESULT:      -7.3      2.036      8.854
REMARK  Name = 
REMARK  8 active torsions:
REMARK  status: ('A' for Active; 'I' for Inactive)
REMARK    1  A    between atoms: C_1  and  O_2
REMARK    2  A    between atoms: O_2  and  C_3
REMARK    3  A    between atoms: C_6  and  N_7
REMARK    4  A    between atoms: C_8  and  C_10
REMARK    5  A    between atoms: C_10  and  C_12
REMARK    6  A    between atoms: N_14  and  C_15
REMARK    7  A    between atoms: C_15  and  C_16
REMARK    8  A    between atoms: C_15  and  C_17
REMARK                            x       y       z     vdW  Elec       q    Type
REMARK                         _______ _______ _______ _____ _____    ______ ____
ROOT
ATOM      1  C   UNL     1       2.800   7.542  18.093  0.00  0.00    +0.000 C 
ATOM      2  O   UNL     1       3.021   8.225  17.082  0.00  0.00    +0.000 OA
ENDROOT
BRANCH   1   3
ATOM      3  C   UNL     1       3.321   6.149  18.160  0.00  0.00    +0.000 A 
ATOM      4  C   UNL     1       4.693   5.948  18.341  0.00  0.00    +0.000 A 
ATOM      5  N   UNL     1       4.964   4.715  17.829  0.00  0.00    +0.000 N 
ATOM      6  C   UNL     1       3.886   3.918  18.127  0.00  0.00    +0.000 A 
ATOM      7  C   UNL     1       3.801   2.535  18.237  0.00  0.00    +0.000 A 
ATOM      8  N   UNL     1       2.585   1.970  18.348  0.00  0.00    +0.000 NA
ATOM      9  C   UNL     1       1.504   2.771  18.300  0.00  0.00    +0.000 A 
ATOM     10  C   UNL     1       1.524   4.169  18.189  0.00  0.00    +0.000 A 
ATOM     11  C   UNL     1       2.784   4.796  18.151  0.00  0.00    +0.000 A 
BRANCH   5  12
ATOM     12  C   UNL     1       5.830   4.463  16.665  0.00  0.00    +0.000 C 
ATOM     13  C   UNL     1       5.463   5.416  15.516  0.00  0.00    +0.000 C 
ATOM     14  C   UNL     1       7.320   4.545  16.979  0.00  0.00    +0.000 C 
ENDBRANCH   5  12
ENDBRANCH   1   3
BRANCH   1  16
ATOM     15  N   UNL     1       1.192   9.348  18.517  0.00  0.00    +0.000 N 
ATOM     16  C   UNL     1       1.860   8.256  19.101  0.00  0.00    +0.000 C 
ATOM     17  O   UNL     1       1.752   7.861  20.241  0.00  0.00    +0.000 OA
ATOM     18  H   UNL     1       1.437   9.498  17.535  0.00  0.00    +0.000 HD
BRANCH  15  22
ATOM     19  C   UNL     1      -1.579  12.114  20.063  0.00  0.00    +0.000 A 
ATOM     20  C   UNL     1      -0.339  12.012  20.676  0.00  0.00    +0.000 A 
ATOM     21  C   UNL     1       0.604  11.089  20.193  0.00  0.00    +0.000 A 
ATOM     22  C   UNL     1       0.297  10.283  19.105  0.00  0.00    +0.000 A 
ATOM     23  C   UNL     1      -0.994  10.455  18.575  0.00  0.00    +0.000 A 
ATOM     24  N   UNL     1      -1.936  11.342  19.021  0.00  0.00    +0.000 NA
BRANCH  19  26
ATOM     25  C   UNL     1      -3.824  12.796  20.363  0.00  0.00    +0.000 C 
ATOM     26  O   UNL     1      -2.444  13.060  20.590  0.00  0.00    +0.000 OA
ENDBRANCH  19  26
ENDBRANCH  15  22
ENDBRANCH   1  16
TORSDOF 5
ENDMDL
