MODEL 1
REMARK VINA RESULT:      -7.4      0.000      0.000
REMARK  Name = 
REMARK  9 active torsions:
REMARK  status: ('A' for Active; 'I' for Inactive)
REMARK    1  A    between atoms: C_1  and  N_2
REMARK    2  A    between atoms: C_6  and  C_8
REMARK    3  A    between atoms: C_8  and  N_15
REMARK    4  A    between atoms: C_9  and  C_10
REMARK    5  A    between atoms: C_16  and  C_18
REMARK    6  A    between atoms: C_21  and  C_22
REMARK    7  A    between atoms: C_22  and  C_23
REMARK    8  A    between atoms: C_22  and  C_24
REMARK    9  A    between atoms: C_22  and  C_25
REMARK                            x       y       z     vdW  Elec       q    Type
REMARK                         _______ _______ _______ _____ _____    ______ ____
ROOT
ATOM      1  C   UNL     1       0.178  10.818  19.613  0.00  0.00    +0.000 C 
ATOM      2  C   UNL     1      -1.135  10.872  19.289  0.00  0.00    +0.000 C 
ENDROOT
BRANCH   1   8
ATOM      3  C   UNL     1       3.134  16.677  18.805  0.00  0.00    +0.000 C 
ATOM      4  N   UNL     1       3.114  15.259  19.149  0.00  0.00    +0.000 NA
ATOM      5  C   UNL     1       2.461  14.424  18.119  0.00  0.00    +0.000 C 
ATOM      6  C   UNL     1       2.388  12.910  18.515  0.00  0.00    +0.000 C 
ATOM      7  N   UNL     1       1.879  12.717  19.894  0.00  0.00    +0.000 N 
ATOM      8  C   UNL     1       0.956  11.821  20.456  0.00  0.00    +0.000 C 
ATOM      9  O   UNL     1       0.727  11.877  21.666  0.00  0.00    +0.000 OA
ATOM     10  C   UNL     1       2.620  13.566  20.839  0.00  0.00    +0.000 C 
ATOM     11  C   UNL     1       2.462  15.040  20.451  0.00  0.00    +0.000 C 
ENDBRANCH   1   8
BRANCH   2  12
ATOM     12  C   UNL     1      -2.231  11.730  19.629  0.00  0.00    +0.000 A 
ATOM     13  C   UNL     1      -2.487  12.698  20.586  0.00  0.00    +0.000 A 
ATOM     14  C   UNL     1      -3.816  13.231  20.540  0.00  0.00    +0.000 A 
ATOM     15  C   UNL     1      -4.555  12.694  19.516  0.00  0.00    +0.000 A 
ATOM     16  S   UNL     1      -3.647  11.584  18.605  0.00  0.00    +0.000 S 
ENDBRANCH   2  12
BRANCH   1  17
ATOM     17  N   UNL     1       0.911   9.793  19.019  0.00  0.00    +0.000 N 
ATOM     18  C   UNL     1       1.302   8.666  19.732  0.00  0.00    +0.000 C 
ATOM     19  O   UNL     1       0.977   8.424  20.889  0.00  0.00    +0.000 OA
ATOM     20  H   UNL     1       1.456  10.054  18.207  0.00  0.00    +0.000 HD
BRANCH  18  21
ATOM     21  C   UNL     1       2.283   7.766  19.075  0.00  0.00    +0.000 A 
ATOM     22  C   UNL     1       2.542   6.545  19.690  0.00  0.00    +0.000 A 
ATOM     23  C   UNL     1       3.420   5.626  19.104  0.00  0.00    +0.000 A 
ATOM     24  C   UNL     1       4.053   5.902  17.879  0.00  0.00    +0.000 A 
ATOM     25  C   UNL     1       3.788   7.151  17.284  0.00  0.00    +0.000 A 
ATOM     26  C   UNL     1       2.912   8.079  17.870  0.00  0.00    +0.000 A 
BRANCH  24  27
ATOM     27  C   UNL     1       4.968   4.871  17.192  0.00  0.00    +0.000 C 
ATOM     28  C   UNL     1       5.401   5.285  15.764  0.00  0.00    +0.000 C 
ATOM     29  C   UNL     1       6.259   4.685  18.018  0.00  0.00    +0.000 C 
ATOM     30  C   UNL     1       4.252   3.510  17.069  0.00  0.00    +0.000 C 
ENDBRANCH  24  27
ENDBRANCH  18  21
ENDBRANCH   1  17
TORSDOF 5
ENDMDL
MODEL 2
REMARK VINA RESULT:      -7.3      0.215      1.211
REMARK  Name = 
REMARK  9 active torsions:
REMARK  status: ('A' for Active; 'I' for Inactive)
REMARK    1  A    between atoms: C_1  and  N_2
REMARK    2  A    between atoms: C_6  and  C_8
REMARK    3  A    between atoms: C_8  and  N_15
REMARK    4  A    between atoms: C_9  and  C_10
REMARK    5  A    between atoms: C_16  and  C_18
REMARK    6  A    between atoms: C_21  and  C_22
REMARK    7  A    between atoms: C_22  and  C_23
REMARK    8  A    between atoms: C_22  and  C_24
REMARK    9  A    between atoms: C_22  and  C_25
REMARK                            x       y       z     vdW  Elec       q    Type
REMARK                         _______ _______ _______ _____ _____    ______ ____
ROOT
ATOM      1  C   UNL     1       0.191  10.815  19.674  0.00  0.00    +0.000 C 
ATOM      2  C   UNL     1      -1.129  10.913  19.393  0.00  0.00    +0.000 C 
ENDROOT
BRANCH   1   8
ATOM      3  C   UNL     1       3.147  16.652  18.721  0.00  0.00    +0.000 C 
ATOM      4  N   UNL     1       3.136  15.231  19.052  0.00  0.00    +0.000 NA
ATOM      5  C   UNL     1       2.406  14.413  18.062  0.00  0.00    +0.000 C 
ATOM      6  C   UNL     1       2.344  12.895  18.448  0.00  0.00    +0.000 C 
ATOM      7  N   UNL     1       1.927  12.694  19.856  0.00  0.00    +0.000 N 
ATOM      8  C   UNL     1       1.035  11.802  20.472  0.00  0.00    +0.000 C 
ATOM      9  O   UNL     1       0.888  11.848  21.695  0.00  0.00    +0.000 OA
ATOM     10  C   UNL     1       2.739  13.526  20.757  0.00  0.00    +0.000 C 
ATOM     11  C   UNL     1       2.571  15.005  20.394  0.00  0.00    +0.000 C 
ENDBRANCH   1   8
BRANCH   2  12
ATOM     12  C   UNL     1      -2.179  11.819  19.753  0.00  0.00    +0.000 A 
ATOM     13  C   UNL     1      -2.368  12.808  20.704  0.00  0.00    +0.000 A 
ATOM     14  C   UNL     1      -3.676  13.393  20.689  0.00  0.00    +0.000 A 
ATOM     15  C   UNL     1      -4.465  12.874  19.696  0.00  0.00    +0.000 A 
ATOM     16  S   UNL     1      -3.630  11.717  18.773  0.00  0.00    +0.000 S 
ENDBRANCH   2  12
BRANCH   1  17
ATOM     17  N   UNL     1       0.864   9.752  19.076  0.00  0.00    +0.000 N 
ATOM     18  C   UNL     1       1.305   8.658  19.811  0.00  0.00    +0.000 C 
ATOM     19  O   UNL     1       1.076   8.480  21.002  0.00  0.00    +0.000 OA
ATOM     20  H   UNL     1       1.342   9.964  18.209  0.00  0.00    +0.000 HD
BRANCH  18  21
ATOM     21  C   UNL     1       2.221   7.714  19.123  0.00  0.00    +0.000 A 
ATOM     22  C   UNL     1       2.825   8.151  17.949  0.00  0.00    +0.000 A 
ATOM     23  C   UNL     1       3.736   7.333  17.270  0.00  0.00    +0.000 A 
ATOM     24  C   UNL     1       4.074   6.058  17.758  0.00  0.00    +0.000 A 
ATOM     25  C   UNL     1       3.437   5.631  18.940  0.00  0.00    +0.000 A 
ATOM     26  C   UNL     1       2.519   6.446  19.622  0.00  0.00    +0.000 A 
BRANCH  24  27
ATOM     27  C   UNL     1       5.125   5.177  17.058  0.00  0.00    +0.000 C 
ATOM     28  C   UNL     1       6.461   5.073  17.833  0.00  0.00    +0.000 C 
ATOM     29  C   UNL     1       4.582   3.740  16.902  0.00  0.00    +0.000 C 
ATOM     30  C   UNL     1       5.457   5.741  15.660  0.00  0.00    +0.000 C 
ENDBRANCH  24  27
ENDBRANCH  18  21
ENDBRANCH   1  17
TORSDOF 5
ENDMDL
MODEL 3
REMARK VINA RESULT:      -7.3      2.252      3.006
REMARK  Name = 
REMARK  9 active torsions:
REMARK  status: ('A' for Active; 'I' for Inactive)
REMARK    1  A    between atoms: C_1  and  N_2
REMARK    2  A    between atoms: C_6  and  C_8
REMARK    3  A    between atoms: C_8  and  N_15
REMARK    4  A    between atoms: C_9  and  C_10
REMARK    5  A    between atoms: C_16  and  C_18
REMARK    6  A    between atoms: C_21  and  C_22
REMARK    7  A    between atoms: C_22  and  C_23
REMARK    8  A    between atoms: C_22  and  C_24
REMARK    9  A    between atoms: C_22  and  C_25
REMARK                            x       y       z     vdW  Elec       q    Type
REMARK                         _______ _______ _______ _____ _____    ______ ____
ROOT
ATOM      1  C   UNL     1      -0.026  12.216  21.173  0.00  0.00    +0.000 C 
ATOM      2  C   UNL     1      -0.823  11.869  22.210  0.00  0.00    +0.000 C 
ENDROOT
BRANCH   1   8
ATOM      3  C   UNL     1       4.472  16.319  18.597  0.00  0.00    +0.000 C 
ATOM      4  N   UNL     1       3.382  15.978  19.505  0.00  0.00    +0.000 NA
ATOM      5  C   UNL     1       3.621  14.724  20.248  0.00  0.00    +0.000 C 
ATOM      6  C   UNL     1       2.425  14.327  21.180  0.00  0.00    +0.000 C 
ATOM      7  N   UNL     1       1.122  14.401  20.478  0.00  0.00    +0.000 N 
ATOM      8  C   UNL     1       0.002  13.555  20.447  0.00  0.00    +0.000 C 
ATOM      9  O   UNL     1      -0.976  13.878  19.771  0.00  0.00    +0.000 OA
ATOM     10  C   UNL     1       0.974  15.700  19.803  0.00  0.00    +0.000 C 
ATOM     11  C   UNL     1       2.101  15.891  18.783  0.00  0.00    +0.000 C 
ENDBRANCH   1   8
BRANCH   2  12
ATOM     12  C   UNL     1      -1.789  12.548  23.021  0.00  0.00    +0.000 A 
ATOM     13  C   UNL     1      -3.063  12.282  23.498  0.00  0.00    +0.000 A 
ATOM     14  C   UNL     1      -3.648  13.361  24.238  0.00  0.00    +0.000 A 
ATOM     15  C   UNL     1      -2.799  14.430  24.356  0.00  0.00    +0.000 A 
ATOM     16  S   UNL     1      -1.302  14.126  23.611  0.00  0.00    +0.000 S 
ENDBRANCH   2  12
BRANCH   1  17
ATOM     17  N   UNL     1       0.773  11.201  20.652  0.00  0.00    +0.000 N 
ATOM     18  C   UNL     1       0.384  10.462  19.541  0.00  0.00    +0.000 C 
ATOM     19  O   UNL     1      -0.623  10.678  18.876  0.00  0.00    +0.000 OA
ATOM     20  H   UNL     1       1.427  10.778  21.299  0.00  0.00    +0.000 HD
BRANCH  18  21
ATOM     21  C   UNL     1       1.186   9.253  19.228  0.00  0.00    +0.000 A 
ATOM     22  C   UNL     1       1.705   9.145  17.942  0.00  0.00    +0.000 A 
ATOM     23  C   UNL     1       2.510   8.056  17.587  0.00  0.00    +0.000 A 
ATOM     24  C   UNL     1       2.825   7.050  18.519  0.00  0.00    +0.000 A 
ATOM     25  C   UNL     1       2.275   7.172  19.809  0.00  0.00    +0.000 A 
ATOM     26  C   UNL     1       1.462   8.261  20.168  0.00  0.00    +0.000 A 
BRANCH  24  27
ATOM     27  C   UNL     1       3.764   5.883  18.161  0.00  0.00    +0.000 C 
ATOM     28  C   UNL     1       4.663   5.430  19.337  0.00  0.00    +0.000 C 
ATOM     29  C   UNL     1       2.931   4.655  17.732  0.00  0.00    +0.000 C 
ATOM     30  C   UNL     1       4.702   6.280  17.002  0.00  0.00    +0.000 C 
ENDBRANCH  24  27
ENDBRANCH  18  21
ENDBRANCH   1  17
TORSDOF 5
ENDMDL
MODEL 4
REMARK VINA RESULT:      -7.3      1.742      2.066
REMARK  Name = 
REMARK  9 active torsions:
REMARK  status: ('A' for Active; 'I' for Inactive)
REMARK    1  A    between atoms: C_1  and  N_2
REMARK    2  A    between atoms: C_6  and  C_8
REMARK    3  A    between atoms: C_8  and  N_15
REMARK    4  A    between atoms: C_9  and  C_10
REMARK    5  A    between atoms: C_16  and  C_18
REMARK    6  A    between atoms: C_21  and  C_22
REMARK    7  A    between atoms: C_22  and  C_23
REMARK    8  A    between atoms: C_22  and  C_24
REMARK    9  A    between atoms: C_22  and  C_25
REMARK                            x       y       z     vdW  Elec       q    Type
REMARK                         _______ _______ _______ _____ _____    ______ ____
ROOT
ATOM      1  C   UNL     1      -0.424  10.215  19.428  0.00  0.00    +0.000 C 
ATOM      2  C   UNL     1      -1.337  10.072  18.439  0.00  0.00    +0.000 C 
ENDROOT
BRANCH   1   8
ATOM      3  C   UNL     1       0.789  16.712  19.577  0.00  0.00    +0.000 C 
ATOM      4  N   UNL     1       1.047  15.325  19.950  0.00  0.00    +0.000 NA
ATOM      5  C   UNL     1       1.115  14.418  18.787  0.00  0.00    +0.000 C 
ATOM      6  C   UNL     1       1.334  12.919  19.191  0.00  0.00    +0.000 C 
ATOM      7  N   UNL     1       0.409  12.490  20.267  0.00  0.00    +0.000 N 
ATOM      8  C   UNL     1      -0.359  11.332  20.462  0.00  0.00    +0.000 C 
ATOM      9  O   UNL     1      -1.046  11.232  21.481  0.00  0.00    +0.000 OA
ATOM     10  C   UNL     1       0.445  13.443  21.387  0.00  0.00    +0.000 C 
ATOM     11  C   UNL     1       0.033  14.837  20.901  0.00  0.00    +0.000 C 
ENDBRANCH   1   8
BRANCH   2  12
ATOM     12  C   UNL     1      -2.526  10.767  18.047  0.00  0.00    +0.000 A 
ATOM     13  C   UNL     1      -3.456  11.590  18.662  0.00  0.00    +0.000 A 
ATOM     14  C   UNL     1      -4.542  11.983  17.815  0.00  0.00    +0.000 A 
ATOM     15  C   UNL     1      -4.413  11.489  16.542  0.00  0.00    +0.000 A 
ATOM     16  S   UNL     1      -2.982  10.589  16.363  0.00  0.00    +0.000 S 
ENDBRANCH   2  12
BRANCH   1  17
ATOM     17  N   UNL     1       0.625   9.298  19.427  0.00  0.00    +0.000 N 
ATOM     18  C   UNL     1       1.561   9.260  18.401  0.00  0.00    +0.000 C 
ATOM     19  O   UNL     1       1.611  10.058  17.471  0.00  0.00    +0.000 OA
ATOM     20  H   UNL     1       0.473   8.452  19.962  0.00  0.00    +0.000 HD
BRANCH  18  21
ATOM     21  C   UNL     1       2.478   8.093  18.374  0.00  0.00    +0.000 A 
ATOM     22  C   UNL     1       2.333   7.143  19.380  0.00  0.00    +0.000 A 
ATOM     23  C   UNL     1       3.131   5.993  19.393  0.00  0.00    +0.000 A 
ATOM     24  C   UNL     1       4.088   5.759  18.390  0.00  0.00    +0.000 A 
ATOM     25  C   UNL     1       4.228   6.743  17.392  0.00  0.00    +0.000 A 
ATOM     26  C   UNL     1       3.434   7.901  17.377  0.00  0.00    +0.000 A 
BRANCH  24  27
ATOM     27  C   UNL     1       4.924   4.466  18.356  0.00  0.00    +0.000 C 
ATOM     28  C   UNL     1       4.508   3.433  19.431  0.00  0.00    +0.000 C 
ATOM     29  C   UNL     1       4.766   3.777  16.984  0.00  0.00    +0.000 C 
ATOM     30  C   UNL     1       6.417   4.782  18.588  0.00  0.00    +0.000 C 
ENDBRANCH  24  27
ENDBRANCH  18  21
ENDBRANCH   1  17
TORSDOF 5
ENDMDL
MODEL 5
REMARK VINA RESULT:      -7.2      2.321      2.986
REMARK  Name = 
REMARK  9 active torsions:
REMARK  status: ('A' for Active; 'I' for Inactive)
REMARK    1  A    between atoms: C_1  and  N_2
REMARK    2  A    between atoms: C_6  and  C_8
REMARK    3  A    between atoms: C_8  and  N_15
REMARK    4  A    between atoms: C_9  and  C_10
REMARK    5  A    between atoms: C_16  and  C_18
REMARK    6  A    between atoms: C_21  and  C_22
REMARK    7  A    between atoms: C_22  and  C_23
REMARK    8  A    between atoms: C_22  and  C_24
REMARK    9  A    between atoms: C_22  and  C_25
REMARK                            x       y       z     vdW  Elec       q    Type
REMARK                         _______ _______ _______ _____ _____    ______ ____
ROOT
ATOM      1  C   UNL     1      -0.057  12.434  21.204  0.00  0.00    +0.000 C 
ATOM      2  C   UNL     1      -0.856  12.045  22.224  0.00  0.00    +0.000 C 
ENDROOT
BRANCH   1   8
ATOM      3  C   UNL     1       4.436  16.637  18.784  0.00  0.00    +0.000 C 
ATOM      4  N   UNL     1       3.347  16.260  19.679  0.00  0.00    +0.000 NA
ATOM      5  C   UNL     1       3.587  14.978  20.373  0.00  0.00    +0.000 C 
ATOM      6  C   UNL     1       2.392  14.545  21.290  0.00  0.00    +0.000 C 
ATOM      7  N   UNL     1       1.088  14.645  20.591  0.00  0.00    +0.000 N 
ATOM      8  C   UNL     1      -0.031  13.800  20.529  0.00  0.00    +0.000 C 
ATOM      9  O   UNL     1      -1.009  14.148  19.865  0.00  0.00    +0.000 OA
ATOM     10  C   UNL     1       0.939  15.968  19.967  0.00  0.00    +0.000 C 
ATOM     11  C   UNL     1       2.066  16.199  18.955  0.00  0.00    +0.000 C 
ENDBRANCH   1   8
BRANCH   2  12
ATOM     12  C   UNL     1      -1.826  12.691  23.058  0.00  0.00    +0.000 A 
ATOM     13  C   UNL     1      -3.130  12.443  23.455  0.00  0.00    +0.000 A 
ATOM     14  C   UNL     1      -3.700  13.474  24.271  0.00  0.00    +0.000 A 
ATOM     15  C   UNL     1      -2.809  14.485  24.527  0.00  0.00    +0.000 A 
ATOM     16  S   UNL     1      -1.296  14.180  23.817  0.00  0.00    +0.000 S 
ENDBRANCH   2  12
BRANCH   1  17
ATOM     17  N   UNL     1       0.746  11.441  20.646  0.00  0.00    +0.000 N 
ATOM     18  C   UNL     1       0.325  10.685  19.558  0.00  0.00    +0.000 C 
ATOM     19  O   UNL     1      -0.720  10.868  18.944  0.00  0.00    +0.000 OA
ATOM     20  H   UNL     1       1.444  11.041  21.261  0.00  0.00    +0.000 HD
BRANCH  18  21
ATOM     21  C   UNL     1       1.148   9.500  19.209  0.00  0.00    +0.000 A 
ATOM     22  C   UNL     1       1.391   8.572  20.216  0.00  0.00    +0.000 A 
ATOM     23  C   UNL     1       2.120   7.407  19.949  0.00  0.00    +0.000 A 
ATOM     24  C   UNL     1       2.614   7.136  18.660  0.00  0.00    +0.000 A 
ATOM     25  C   UNL     1       2.368   8.098  17.661  0.00  0.00    +0.000 A 
ATOM     26  C   UNL     1       1.642   9.271  17.926  0.00  0.00    +0.000 A 
BRANCH  24  27
ATOM     27  C   UNL     1       3.357   5.827  18.338  0.00  0.00    +0.000 C 
ATOM     28  C   UNL     1       2.430   4.700  17.819  0.00  0.00    +0.000 C 
ATOM     29  C   UNL     1       4.413   6.081  17.241  0.00  0.00    +0.000 C 
ATOM     30  C   UNL     1       4.065   5.284  19.597  0.00  0.00    +0.000 C 
ENDBRANCH  24  27
ENDBRANCH  18  21
ENDBRANCH   1  17
TORSDOF 5
ENDMDL
MODEL 6
REMARK VINA RESULT:      -7.2      2.652      4.719
REMARK  Name = 
REMARK  9 active torsions:
REMARK  status: ('A' for Active; 'I' for Inactive)
REMARK    1  A    between atoms: C_1  and  N_2
REMARK    2  A    between atoms: C_6  and  C_8
REMARK    3  A    between atoms: C_8  and  N_15
REMARK    4  A    between atoms: C_9  and  C_10
REMARK    5  A    between atoms: C_16  and  C_18
REMARK    6  A    between atoms: C_21  and  C_22
REMARK    7  A    between atoms: C_22  and  C_23
REMARK    8  A    between atoms: C_22  and  C_24
REMARK    9  A    between atoms: C_22  and  C_25
REMARK                            x       y       z     vdW  Elec       q    Type
REMARK                         _______ _______ _______ _____ _____    ______ ____
ROOT
ATOM      1  C   UNL     1       0.829  11.331  19.337  0.00  0.00    +0.000 C 
ATOM      2  C   UNL     1       1.777  12.294  19.408  0.00  0.00    +0.000 C 
ENDROOT
BRANCH   1   8
ATOM      3  C   UNL     1      -4.201  14.396  22.340  0.00  0.00    +0.000 C 
ATOM      4  N   UNL     1      -3.514  13.223  21.809  0.00  0.00    +0.000 NA
ATOM      5  C   UNL     1      -2.114  13.117  22.269  0.00  0.00    +0.000 C 
ATOM      6  C   UNL     1      -1.359  11.889  21.653  0.00  0.00    +0.000 C 
ATOM      7  N   UNL     1      -1.545  11.798  20.185  0.00  0.00    +0.000 N 
ATOM      8  C   UNL     1      -0.666  11.530  19.124  0.00  0.00    +0.000 C 
ATOM      9  O   UNL     1      -1.105  11.503  17.973  0.00  0.00    +0.000 OA
ATOM     10  C   UNL     1      -2.973  11.880  19.841  0.00  0.00    +0.000 C 
ATOM     11  C   UNL     1      -3.554  13.209  20.336  0.00  0.00    +0.000 C 
ENDBRANCH   1   8
BRANCH   2  12
ATOM     12  C   UNL     1       1.794  13.717  19.245  0.00  0.00    +0.000 A 
ATOM     13  C   UNL     1       1.029  14.785  19.685  0.00  0.00    +0.000 A 
ATOM     14  C   UNL     1       1.439  16.055  19.161  0.00  0.00    +0.000 A 
ATOM     15  C   UNL     1       2.543  15.950  18.353  0.00  0.00    +0.000 A 
ATOM     16  S   UNL     1       3.097  14.347  18.254  0.00  0.00    +0.000 S 
ENDBRANCH   2  12
BRANCH   1  17
ATOM     17  N   UNL     1       1.260  10.031  19.595  0.00  0.00    +0.000 N 
ATOM     18  C   UNL     1       1.780   9.221  18.594  0.00  0.00    +0.000 C 
ATOM     19  O   UNL     1       1.990   9.582  17.441  0.00  0.00    +0.000 OA
ATOM     20  H   UNL     1       0.847   9.582  20.403  0.00  0.00    +0.000 HD
BRANCH  18  21
ATOM     21  C   UNL     1       1.971   7.786  18.925  0.00  0.00    +0.000 A 
ATOM     22  C   UNL     1       1.729   7.396  20.238  0.00  0.00    +0.000 A 
ATOM     23  C   UNL     1       1.844   6.052  20.614  0.00  0.00    +0.000 A 
ATOM     24  C   UNL     1       2.193   5.062  19.678  0.00  0.00    +0.000 A 
ATOM     25  C   UNL     1       2.449   5.484  18.359  0.00  0.00    +0.000 A 
ATOM     26  C   UNL     1       2.340   6.831  17.978  0.00  0.00    +0.000 A 
BRANCH  24  27
ATOM     27  C   UNL     1       2.256   3.572  20.064  0.00  0.00    +0.000 C 
ATOM     28  C   UNL     1       2.149   3.324  21.588  0.00  0.00    +0.000 C 
ATOM     29  C   UNL     1       1.089   2.810  19.401  0.00  0.00    +0.000 C 
ATOM     30  C   UNL     1       3.589   2.950  19.598  0.00  0.00    +0.000 C 
ENDBRANCH  24  27
ENDBRANCH  18  21
ENDBRANCH   1  17
TORSDOF 5
ENDMDL
MODEL 7
REMARK VINA RESULT:      -7.2      2.222      2.753
REMARK  Name = 
REMARK  9 active torsions:
REMARK  status: ('A' for Active; 'I' for Inactive)
REMARK    1  A    between atoms: C_1  and  N_2
REMARK    2  A    between atoms: C_6  and  C_8
REMARK    3  A    between atoms: C_8  and  N_15
REMARK    4  A    between atoms: C_9  and  C_10
REMARK    5  A    between atoms: C_16  and  C_18
REMARK    6  A    between atoms: C_21  and  C_22
REMARK    7  A    between atoms: C_22  and  C_23
REMARK    8  A    between atoms: C_22  and  C_24
REMARK    9  A    between atoms: C_22  and  C_25
REMARK                            x       y       z     vdW  Elec       q    Type
REMARK                         _______ _______ _______ _____ _____    ______ ____
ROOT
ATOM      1  C   UNL     1       0.079  11.999  21.111  0.00  0.00    +0.000 C 
ATOM      2  C   UNL     1      -0.719  11.725  22.169  0.00  0.00    +0.000 C 
ENDROOT
BRANCH   1   8
ATOM      3  C   UNL     1       4.557  15.986  18.325  0.00  0.00    +0.000 C 
ATOM      4  N   UNL     1       3.452  15.693  19.232  0.00  0.00    +0.000 NA
ATOM      5  C   UNL     1       3.697  14.505  20.076  0.00  0.00    +0.000 C 
ATOM      6  C   UNL     1       2.488  14.156  21.008  0.00  0.00    +0.000 C 
ATOM      7  N   UNL     1       1.200  14.147  20.273  0.00  0.00    +0.000 N 
ATOM      8  C   UNL     1       0.098  13.278  20.283  0.00  0.00    +0.000 C 
ATOM      9  O   UNL     1      -0.869  13.526  19.561  0.00  0.00    +0.000 OA
ATOM     10  C   UNL     1       1.043  15.387  19.497  0.00  0.00    +0.000 C 
ATOM     11  C   UNL     1       2.191  15.522  18.491  0.00  0.00    +0.000 C 
ENDBRANCH   1   8
BRANCH   2  12
ATOM     12  C   UNL     1      -1.694  12.457  22.922  0.00  0.00    +0.000 A 
ATOM     13  C   UNL     1      -2.993  12.244  23.354  0.00  0.00    +0.000 A 
ATOM     14  C   UNL     1      -3.572  13.360  24.041  0.00  0.00    +0.000 A 
ATOM     15  C   UNL     1      -2.694  14.406  24.164  0.00  0.00    +0.000 A 
ATOM     16  S   UNL     1      -1.179  14.035  23.489  0.00  0.00    +0.000 S 
ENDBRANCH   2  12
BRANCH   1  17
ATOM     17  N   UNL     1       0.889  10.953  20.672  0.00  0.00    +0.000 N 
ATOM     18  C   UNL     1       0.510  10.127  19.620  0.00  0.00    +0.000 C 
ATOM     19  O   UNL     1      -0.496  10.283  18.937  0.00  0.00    +0.000 OA
ATOM     20  H   UNL     1       1.543  10.587  21.351  0.00  0.00    +0.000 HD
BRANCH  18  21
ATOM     21  C   UNL     1       1.324   8.904  19.404  0.00  0.00    +0.000 A 
ATOM     22  C   UNL     1       1.464   8.031  20.477  0.00  0.00    +0.000 A 
ATOM     23  C   UNL     1       2.178   6.836  20.334  0.00  0.00    +0.000 A 
ATOM     24  C   UNL     1       2.761   6.478  19.105  0.00  0.00    +0.000 A 
ATOM     25  C   UNL     1       2.620   7.387  18.037  0.00  0.00    +0.000 A 
ATOM     26  C   UNL     1       1.909   8.590  18.177  0.00  0.00    +0.000 A 
BRANCH  24  27
ATOM     27  C   UNL     1       3.491   5.136  18.916  0.00  0.00    +0.000 C 
ATOM     28  C   UNL     1       5.023   5.232  19.115  0.00  0.00    +0.000 C 
ATOM     29  C   UNL     1       2.968   4.108  19.942  0.00  0.00    +0.000 C 
ATOM     30  C   UNL     1       3.254   4.588  17.493  0.00  0.00    +0.000 C 
ENDBRANCH  24  27
ENDBRANCH  18  21
ENDBRANCH   1  17
TORSDOF 5
ENDMDL
MODEL 8
REMARK VINA RESULT:      -7.2      2.933      4.605
REMARK  Name = 
REMARK  9 active torsions:
REMARK  status: ('A' for Active; 'I' for Inactive)
REMARK    1  A    between atoms: C_1  and  N_2
REMARK    2  A    between atoms: C_6  and  C_8
REMARK    3  A    between atoms: C_8  and  N_15
REMARK    4  A    between atoms: C_9  and  C_10
REMARK    5  A    between atoms: C_16  and  C_18
REMARK    6  A    between atoms: C_21  and  C_22
REMARK    7  A    between atoms: C_22  and  C_23
REMARK    8  A    between atoms: C_22  and  C_24
REMARK    9  A    between atoms: C_22  and  C_25
REMARK                            x       y       z     vdW  Elec       q    Type
REMARK                         _______ _______ _______ _____ _____    ______ ____
ROOT
ATOM      1  C   UNL     1      -0.694  12.465  19.779  0.00  0.00    +0.000 C 
ATOM      2  C   UNL     1       0.167  13.470  19.493  0.00  0.00    +0.000 C 
ENDROOT
BRANCH   1   8
ATOM      3  C   UNL     1      -3.280  15.510  25.047  0.00  0.00    +0.000 C 
ATOM      4  N   UNL     1      -2.941  14.334  24.253  0.00  0.00    +0.000 NA
ATOM      5  C   UNL     1      -1.529  14.318  23.819  0.00  0.00    +0.000 C 
ATOM      6  C   UNL     1      -1.179  13.085  22.917  0.00  0.00    +0.000 C 
ATOM      7  N   UNL     1      -2.171  12.888  21.833  0.00  0.00    +0.000 N 
ATOM      8  C   UNL     1      -2.048  12.586  20.467  0.00  0.00    +0.000 C 
ATOM      9  O   UNL     1      -3.067  12.462  19.786  0.00  0.00    +0.000 OA
ATOM     10  C   UNL     1      -3.537  12.885  22.379  0.00  0.00    +0.000 C 
ATOM     11  C   UNL     1      -3.822  14.218  23.078  0.00  0.00    +0.000 C 
ENDBRANCH   1   8
BRANCH   2  12
ATOM     12  C   UNL     1       0.139  14.897  19.615  0.00  0.00    +0.000 A 
ATOM     13  C   UNL     1      -0.741  15.914  19.283  0.00  0.00    +0.000 A 
ATOM     14  C   UNL     1      -0.248  17.230  19.565  0.00  0.00    +0.000 A 
ATOM     15  C   UNL     1       0.992  17.206  20.149  0.00  0.00    +0.000 A 
ATOM     16  S   UNL     1       1.541  15.615  20.385  0.00  0.00    +0.000 S 
ENDBRANCH   2  12
BRANCH   1  17
ATOM     17  N   UNL     1      -0.237  11.177  19.511  0.00  0.00    +0.000 N 
ATOM     18  C   UNL     1       0.583  10.492  20.399  0.00  0.00    +0.000 C 
ATOM     19  O   UNL     1       0.905  10.900  21.509  0.00  0.00    +0.000 OA
ATOM     20  H   UNL     1      -0.201  10.916  18.533  0.00  0.00    +0.000 HD
BRANCH  18  21
ATOM     21  C   UNL     1       1.207   9.239  19.903  0.00  0.00    +0.000 A 
ATOM     22  C   UNL     1       1.595   9.203  18.568  0.00  0.00    +0.000 A 
ATOM     23  C   UNL     1       2.231   8.072  18.042  0.00  0.00    +0.000 A 
ATOM     24  C   UNL     1       2.507   6.952  18.846  0.00  0.00    +0.000 A 
ATOM     25  C   UNL     1       2.091   7.006  20.191  0.00  0.00    +0.000 A 
ATOM     26  C   UNL     1       1.447   8.136  20.722  0.00  0.00    +0.000 A 
BRANCH  24  27
ATOM     27  C   UNL     1       3.267   5.730  18.297  0.00  0.00    +0.000 C 
ATOM     28  C   UNL     1       4.230   6.073  17.135  0.00  0.00    +0.000 C 
ATOM     29  C   UNL     1       4.121   5.098  19.418  0.00  0.00    +0.000 C 
ATOM     30  C   UNL     1       2.277   4.673  17.766  0.00  0.00    +0.000 C 
ENDBRANCH  24  27
ENDBRANCH  18  21
ENDBRANCH   1  17
TORSDOF 5
ENDMDL
MODEL 9
REMARK VINA RESULT:      -7.2      2.247      2.909
REMARK  Name = 
REMARK  9 active torsions:
REMARK  status: ('A' for Active; 'I' for Inactive)
REMARK    1  A    between atoms: C_1  and  N_2
REMARK    2  A    between atoms: C_6  and  C_8
REMARK    3  A    between atoms: C_8  and  N_15
REMARK    4  A    between atoms: C_9  and  C_10
REMARK    5  A    between atoms: C_16  and  C_18
REMARK    6  A    between atoms: C_21  and  C_22
REMARK    7  A    between atoms: C_22  and  C_23
REMARK    8  A    between atoms: C_22  and  C_24
REMARK    9  A    between atoms: C_22  and  C_25
REMARK                            x       y       z     vdW  Elec       q    Type
REMARK                         _______ _______ _______ _____ _____    ______ ____
ROOT
ATOM      1  C   UNL     1       0.347  12.678  21.050  0.00  0.00    +0.000 C 
ATOM      2  C   UNL     1      -0.440  12.369  22.106  0.00  0.00    +0.000 C 
ENDROOT
BRANCH   1   8
ATOM      3  C   UNL     1       5.081  16.869  19.117  0.00  0.00    +0.000 C 
ATOM      4  N   UNL     1       3.888  16.504  19.873  0.00  0.00    +0.000 NA
ATOM      5  C   UNL     1       4.046  15.244  20.628  0.00  0.00    +0.000 C 
ATOM      6  C   UNL     1       2.746  14.821  21.394  0.00  0.00    +0.000 C 
ATOM      7  N   UNL     1       1.543  14.886  20.529  0.00  0.00    +0.000 N 
ATOM      8  C   UNL     1       0.450  14.025  20.346  0.00  0.00    +0.000 C 
ATOM      9  O   UNL     1      -0.437  14.343  19.551  0.00  0.00    +0.000 OA
ATOM     10  C   UNL     1       1.465  16.190  19.854  0.00  0.00    +0.000 C 
ATOM     11  C   UNL     1       2.712  16.407  18.990  0.00  0.00    +0.000 C 
ENDBRANCH   1   8
BRANCH   2  12
ATOM     12  C   UNL     1      -1.328  13.100  22.960  0.00  0.00    +0.000 A 
ATOM     13  C   UNL     1      -1.287  14.295  23.661  0.00  0.00    +0.000 A 
ATOM     14  C   UNL     1      -2.454  14.550  24.452  0.00  0.00    +0.000 A 
ATOM     15  C   UNL     1      -3.399  13.565  24.316  0.00  0.00    +0.000 A 
ATOM     16  S   UNL     1      -2.897  12.363  23.224  0.00  0.00    +0.000 S 
ENDBRANCH   2  12
BRANCH   1  17
ATOM     17  N   UNL     1       1.053  11.618  20.485  0.00  0.00    +0.000 N 
ATOM     18  C   UNL     1       0.475  10.772  19.545  0.00  0.00    +0.000 C 
ATOM     19  O   UNL     1      -0.644  10.920  19.069  0.00  0.00    +0.000 OA
ATOM     20  H   UNL     1       1.827  11.262  21.032  0.00  0.00    +0.000 HD
BRANCH  18  21
ATOM     21  C   UNL     1       1.228   9.540  19.202  0.00  0.00    +0.000 A 
ATOM     22  C   UNL     1       1.402   8.595  20.208  0.00  0.00    +0.000 A 
ATOM     23  C   UNL     1       2.061   7.389  19.945  0.00  0.00    +0.000 A 
ATOM     24  C   UNL     1       2.554   7.092  18.662  0.00  0.00    +0.000 A 
ATOM     25  C   UNL     1       2.381   8.071  17.664  0.00  0.00    +0.000 A 
ATOM     26  C   UNL     1       1.725   9.286  17.924  0.00  0.00    +0.000 A 
BRANCH  24  27
ATOM     27  C   UNL     1       3.220   5.741  18.344  0.00  0.00    +0.000 C 
ATOM     28  C   UNL     1       4.227   5.810  17.170  0.00  0.00    +0.000 C 
ATOM     29  C   UNL     1       4.002   5.241  19.578  0.00  0.00    +0.000 C 
ATOM     30  C   UNL     1       2.156   4.690  17.965  0.00  0.00    +0.000 C 
ENDBRANCH  24  27
ENDBRANCH  18  21
ENDBRANCH   1  17
TORSDOF 5
ENDMDL
