MODEL 1
REMARK VINA RESULT:      -7.9      0.000      0.000
REMARK  Name = 
REMARK  5 active torsions:
REMARK  status: ('A' for Active; 'I' for Inactive)
REMARK    1  A    between atoms: C_1  and  C_2
REMARK    2  A    between atoms: C_6  and  N_7
REMARK    3  A    between atoms: C_8  and  C_10
REMARK    4  A    between atoms: C_14  and  S_15
REMARK    5  A    between atoms: S_15  and  O_18
REMARK                            x       y       z     vdW  Elec       q    Type
REMARK                         _______ _______ _______ _____ _____    ______ ____
ROOT
ATOM      1  N   UNL     1       9.163   9.218  19.236  0.00  0.00    +0.000 N 
ATOM      2  C   UNL     1       8.252   8.923  18.237  0.00  0.00    +0.000 C 
ATOM      3  O   UNL     1       7.765   9.725  17.441  0.00  0.00    +0.000 OA
ATOM      4  H   UNL     1       9.670   8.453  19.663  0.00  0.00    +0.000 HD
ENDROOT
BRANCH   1  10
ATOM      5  C   UNL     1      12.333  15.982  19.057  0.00  0.00    +0.000 C 
ATOM      6  C   UNL     1      11.644  14.682  19.234  0.00  0.00    +0.000 A 
ATOM      7  C   UNL     1      11.481  13.629  18.358  0.00  0.00    +0.000 A 
ATOM      8  C   UNL     1      10.747  12.614  19.028  0.00  0.00    +0.000 A 
ATOM      9  C   UNL     1      10.301  11.333  18.655  0.00  0.00    +0.000 A 
ATOM     10  C   UNL     1       9.595  10.531  19.563  0.00  0.00    +0.000 A 
ATOM     11  C   UNL     1       9.299  11.041  20.832  0.00  0.00    +0.000 A 
ATOM     12  C   UNL     1       9.737  12.317  21.233  0.00  0.00    +0.000 A 
ATOM     13  C   UNL     1      10.464  13.077  20.309  0.00  0.00    +0.000 A 
ATOM     14  N   UNL     1      11.025  14.332  20.412  0.00  0.00    +0.000 N 
ATOM     15  H   UNL     1      10.986  14.910  21.239  0.00  0.00    +0.000 HD
ENDBRANCH   1  10
BRANCH   2  16
ATOM     16  C   UNL     1       7.845   7.505  18.063  0.00  0.00    +0.000 A 
ATOM     17  C   UNL     1       8.158   6.617  19.107  0.00  0.00    +0.000 A 
ATOM     18  C   UNL     1       7.950   5.245  18.968  0.00  0.00    +0.000 A 
ATOM     19  C   UNL     1       7.438   4.744  17.775  0.00  0.00    +0.000 A 
ATOM     20  C   UNL     1       7.120   5.631  16.740  0.00  0.00    +0.000 A 
ATOM     21  C   UNL     1       7.312   7.015  16.870  0.00  0.00    +0.000 A 
BRANCH  20  22
ATOM     22  S   UNL     1       6.586   4.969  15.184  0.00  0.00    +0.000 S 
ATOM     23  O   UNL     1       5.222   5.395  14.964  0.00  0.00    +0.000 OA
ATOM     24  O   UNL     1       7.644   5.209  14.230  0.00  0.00    +0.000 OA
BRANCH  22  25
ATOM     25  O   UNL     1       6.488   3.380  15.449  0.00  0.00    +0.000 OA
ATOM     26  H   UNL     1       5.923   3.248  16.242  0.00  0.00    +0.000 HD
ENDBRANCH  22  25
ENDBRANCH  20  22
ENDBRANCH   2  16
TORSDOF 4
ENDMDL
MODEL 2
REMARK VINA RESULT:      -7.9      6.841      8.388
REMARK  Name = 
REMARK  5 active torsions:
REMARK  status: ('A' for Active; 'I' for Inactive)
REMARK    1  A    between atoms: C_1  and  C_2
REMARK    2  A    between atoms: C_6  and  N_7
REMARK    3  A    between atoms: C_8  and  C_10
REMARK    4  A    between atoms: C_14  and  S_15
REMARK    5  A    between atoms: S_15  and  O_18
REMARK                            x       y       z     vdW  Elec       q    Type
REMARK                         _______ _______ _______ _____ _____    ______ ____
ROOT
ATOM      1  N   UNL     1       2.093   7.777  19.407  0.00  0.00    +0.000 N 
ATOM      2  C   UNL     1       2.618   7.694  18.129  0.00  0.00    +0.000 C 
ATOM      3  O   UNL     1       2.535   8.554  17.254  0.00  0.00    +0.000 OA
ATOM      4  H   UNL     1       2.428   7.125  20.105  0.00  0.00    +0.000 HD
ENDROOT
BRANCH   1  10
ATOM      5  C   UNL     1      -2.274  12.192  23.561  0.00  0.00    +0.000 C 
ATOM      6  C   UNL     1      -1.415  11.429  22.625  0.00  0.00    +0.000 A 
ATOM      7  C   UNL     1      -0.700  10.265  22.813  0.00  0.00    +0.000 A 
ATOM      8  C   UNL     1      -0.049   9.950  21.590  0.00  0.00    +0.000 A 
ATOM      9  C   UNL     1       0.790   8.897  21.181  0.00  0.00    +0.000 A 
ATOM     10  C   UNL     1       1.277   8.844  19.868  0.00  0.00    +0.000 A 
ATOM     11  C   UNL     1       0.956   9.878  18.982  0.00  0.00    +0.000 A 
ATOM     12  C   UNL     1       0.116  10.940  19.363  0.00  0.00    +0.000 A 
ATOM     13  C   UNL     1      -0.375  10.945  20.674  0.00  0.00    +0.000 A 
ATOM     14  N   UNL     1      -1.212  11.827  21.324  0.00  0.00    +0.000 N 
ATOM     15  H   UNL     1      -1.616  12.650  20.900  0.00  0.00    +0.000 HD
ENDBRANCH   1  10
BRANCH   2  16
ATOM     16  C   UNL     1       3.396   6.478  17.775  0.00  0.00    +0.000 A 
ATOM     17  C   UNL     1       2.745   5.240  17.910  0.00  0.00    +0.000 A 
ATOM     18  C   UNL     1       3.440   4.041  17.745  0.00  0.00    +0.000 A 
ATOM     19  C   UNL     1       4.801   4.071  17.455  0.00  0.00    +0.000 A 
ATOM     20  C   UNL     1       5.446   5.305  17.314  0.00  0.00    +0.000 A 
ATOM     21  C   UNL     1       4.756   6.518  17.464  0.00  0.00    +0.000 A 
BRANCH  20  22
ATOM     22  S   UNL     1       7.201   5.326  17.069  0.00  0.00    +0.000 S 
ATOM     23  O   UNL     1       7.601   6.695  16.833  0.00  0.00    +0.000 OA
ATOM     24  O   UNL     1       7.789   4.508  18.105  0.00  0.00    +0.000 OA
BRANCH  22  25
ATOM     25  O   UNL     1       7.407   4.582  15.652  0.00  0.00    +0.000 OA
ATOM     26  H   UNL     1       8.369   4.587  15.454  0.00  0.00    +0.000 HD
ENDBRANCH  22  25
ENDBRANCH  20  22
ENDBRANCH   2  16
TORSDOF 4
ENDMDL
MODEL 3
REMARK VINA RESULT:      -7.9      6.362      7.342
REMARK  Name = 
REMARK  5 active torsions:
REMARK  status: ('A' for Active; 'I' for Inactive)
REMARK    1  A    between atoms: C_1  and  C_2
REMARK    2  A    between atoms: C_6  and  N_7
REMARK    3  A    between atoms: C_8  and  C_10
REMARK    4  A    between atoms: C_14  and  S_15
REMARK    5  A    between atoms: S_15  and  O_18
REMARK                            x       y       z     vdW  Elec       q    Type
REMARK                         _______ _______ _______ _____ _____    ______ ____
ROOT
ATOM      1  N   UNL     1       2.232   8.486  17.547  0.00  0.00    +0.000 N 
ATOM      2  C   UNL     1       2.631   7.479  18.408  0.00  0.00    +0.000 C 
ATOM      3  O   UNL     1       2.414   7.432  19.617  0.00  0.00    +0.000 OA
ATOM      4  H   UNL     1       2.254   8.302  16.551  0.00  0.00    +0.000 HD
ENDROOT
BRANCH   1  10
ATOM      5  C   UNL     1       0.858  15.489  19.761  0.00  0.00    +0.000 C 
ATOM      6  C   UNL     1       0.972  14.078  19.321  0.00  0.00    +0.000 A 
ATOM      7  C   UNL     1       2.071  13.358  18.903  0.00  0.00    +0.000 A 
ATOM      8  C   UNL     1       1.640  12.038  18.603  0.00  0.00    +0.000 A 
ATOM      9  C   UNL     1       2.301  10.880  18.155  0.00  0.00    +0.000 A 
ATOM     10  C   UNL     1       1.594   9.686  17.960  0.00  0.00    +0.000 A 
ATOM     11  C   UNL     1       0.210   9.673  18.172  0.00  0.00    +0.000 A 
ATOM     12  C   UNL     1      -0.476  10.816  18.624  0.00  0.00    +0.000 A 
ATOM     13  C   UNL     1       0.269  11.982  18.835  0.00  0.00    +0.000 A 
ATOM     14  N   UNL     1      -0.111  13.231  19.278  0.00  0.00    +0.000 N 
ATOM     15  H   UNL     1      -1.055  13.484  19.534  0.00  0.00    +0.000 HD
ENDBRANCH   1  10
BRANCH   2  16
ATOM     16  C   UNL     1       3.352   6.315  17.831  0.00  0.00    +0.000 A 
ATOM     17  C   UNL     1       2.677   5.082  17.824  0.00  0.00    +0.000 A 
ATOM     18  C   UNL     1       3.328   3.909  17.441  0.00  0.00    +0.000 A 
ATOM     19  C   UNL     1       4.669   3.957  17.072  0.00  0.00    +0.000 A 
ATOM     20  C   UNL     1       5.337   5.186  17.072  0.00  0.00    +0.000 A 
ATOM     21  C   UNL     1       4.692   6.376  17.442  0.00  0.00    +0.000 A 
BRANCH  20  22
ATOM     22  S   UNL     1       7.074   5.212  16.720  0.00  0.00    +0.000 S 
ATOM     23  O   UNL     1       7.296   4.448  15.513  0.00  0.00    +0.000 OA
ATOM     24  O   UNL     1       7.523   6.577  16.874  0.00  0.00    +0.000 OA
BRANCH  22  25
ATOM     25  O   UNL     1       7.725   4.325  17.900  0.00  0.00    +0.000 OA
ATOM     26  H   UNL     1       8.688   4.521  17.919  0.00  0.00    +0.000 HD
ENDBRANCH  22  25
ENDBRANCH  20  22
ENDBRANCH   2  16
TORSDOF 4
ENDMDL
MODEL 4
REMARK VINA RESULT:      -7.9      7.648     10.089
REMARK  Name = 
REMARK  5 active torsions:
REMARK  status: ('A' for Active; 'I' for Inactive)
REMARK    1  A    between atoms: C_1  and  C_2
REMARK    2  A    between atoms: C_6  and  N_7
REMARK    3  A    between atoms: C_8  and  C_10
REMARK    4  A    between atoms: C_14  and  S_15
REMARK    5  A    between atoms: S_15  and  O_18
REMARK                            x       y       z     vdW  Elec       q    Type
REMARK                         _______ _______ _______ _____ _____    ______ ____
ROOT
ATOM      1  N   UNL     1       2.281   7.677  18.984  0.00  0.00    +0.000 N 
ATOM      2  C   UNL     1       1.812   8.865  18.450  0.00  0.00    +0.000 C 
ATOM      3  O   UNL     1       1.858   9.195  17.267  0.00  0.00    +0.000 OA
ATOM      4  H   UNL     1       1.974   7.414  19.912  0.00  0.00    +0.000 HD
ENDROOT
BRANCH   1  10
ATOM      5  C   UNL     1       6.912   4.213  14.252  0.00  0.00    +0.000 C 
ATOM      6  C   UNL     1       5.950   4.755  15.240  0.00  0.00    +0.000 A 
ATOM      7  C   UNL     1       5.724   6.052  15.651  0.00  0.00    +0.000 A 
ATOM      8  C   UNL     1       4.681   6.029  16.615  0.00  0.00    +0.000 A 
ATOM      9  C   UNL     1       4.026   7.028  17.359  0.00  0.00    +0.000 A 
ATOM     10  C   UNL     1       2.992   6.694  18.245  0.00  0.00    +0.000 A 
ATOM     11  C   UNL     1       2.652   5.347  18.415  0.00  0.00    +0.000 A 
ATOM     12  C   UNL     1       3.287   4.329  17.680  0.00  0.00    +0.000 A 
ATOM     13  C   UNL     1       4.295   4.703  16.784  0.00  0.00    +0.000 A 
ATOM     14  N   UNL     1       5.075   3.950  15.933  0.00  0.00    +0.000 N 
ATOM     15  H   UNL     1       5.010   2.947  15.835  0.00  0.00    +0.000 HD
ENDBRANCH   1  10
BRANCH   2  16
ATOM     16  C   UNL     1       1.148   9.824  19.369  0.00  0.00    +0.000 A 
ATOM     17  C   UNL     1       1.262  11.191  19.060  0.00  0.00    +0.000 A 
ATOM     18  C   UNL     1       0.801  12.168  19.942  0.00  0.00    +0.000 A 
ATOM     19  C   UNL     1       0.231  11.786  21.153  0.00  0.00    +0.000 A 
ATOM     20  C   UNL     1       0.112  10.426  21.457  0.00  0.00    +0.000 A 
ATOM     21  C   UNL     1       0.559   9.431  20.573  0.00  0.00    +0.000 A 
BRANCH  20  22
ATOM     22  S   UNL     1      -0.500   9.958  23.053  0.00  0.00    +0.000 S 
ATOM     23  O   UNL     1       0.635   9.776  23.930  0.00  0.00    +0.000 OA
ATOM     24  O   UNL     1      -1.597  10.845  23.368  0.00  0.00    +0.000 OA
BRANCH  22  25
ATOM     25  O   UNL     1      -1.092   8.474  22.825  0.00  0.00    +0.000 OA
ATOM     26  H   UNL     1      -1.667   8.266  23.594  0.00  0.00    +0.000 HD
ENDBRANCH  22  25
ENDBRANCH  20  22
ENDBRANCH   2  16
TORSDOF 4
ENDMDL
MODEL 5
REMARK VINA RESULT:      -7.8      6.815      8.355
REMARK  Name = 
REMARK  5 active torsions:
REMARK  status: ('A' for Active; 'I' for Inactive)
REMARK    1  A    between atoms: C_1  and  C_2
REMARK    2  A    between atoms: C_6  and  N_7
REMARK    3  A    between atoms: C_8  and  C_10
REMARK    4  A    between atoms: C_14  and  S_15
REMARK    5  A    between atoms: S_15  and  O_18
REMARK                            x       y       z     vdW  Elec       q    Type
REMARK                         _______ _______ _______ _____ _____    ______ ____
ROOT
ATOM      1  N   UNL     1       2.220   7.534  19.941  0.00  0.00    +0.000 N 
ATOM      2  C   UNL     1       2.796   7.358  18.694  0.00  0.00    +0.000 C 
ATOM      3  O   UNL     1       2.712   8.132  17.742  0.00  0.00    +0.000 OA
ATOM      4  H   UNL     1       2.553   6.963  20.707  0.00  0.00    +0.000 HD
ENDROOT
BRANCH   1  10
ATOM      5  C   UNL     1      -2.423  12.150  23.542  0.00  0.00    +0.000 C 
ATOM      6  C   UNL     1      -1.513  11.334  22.704  0.00  0.00    +0.000 A 
ATOM      7  C   UNL     1      -0.744  10.235  23.026  0.00  0.00    +0.000 A 
ATOM      8  C   UNL     1      -0.060   9.822  21.851  0.00  0.00    +0.000 A 
ATOM      9  C   UNL     1       0.835   8.774  21.568  0.00  0.00    +0.000 A 
ATOM     10  C   UNL     1       1.345   8.603  20.274  0.00  0.00    +0.000 A 
ATOM     11  C   UNL     1       0.989   9.517  19.277  0.00  0.00    +0.000 A 
ATOM     12  C   UNL     1       0.091  10.571  19.531  0.00  0.00    +0.000 A 
ATOM     13  C   UNL     1      -0.420  10.693  20.829  0.00  0.00    +0.000 A 
ATOM     14  N   UNL     1      -1.308  11.598  21.370  0.00  0.00    +0.000 N 
ATOM     15  H   UNL     1      -1.746  12.348  20.854  0.00  0.00    +0.000 HD
ENDBRANCH   1  10
BRANCH   2  16
ATOM     16  C   UNL     1       3.633   6.151  18.480  0.00  0.00    +0.000 A 
ATOM     17  C   UNL     1       3.445   5.075  19.365  0.00  0.00    +0.000 A 
ATOM     18  C   UNL     1       4.287   3.963  19.334  0.00  0.00    +0.000 A 
ATOM     19  C   UNL     1       5.337   3.922  18.422  0.00  0.00    +0.000 A 
ATOM     20  C   UNL     1       5.520   4.991  17.537  0.00  0.00    +0.000 A 
ATOM     21  C   UNL     1       4.673   6.110  17.548  0.00  0.00    +0.000 A 
BRANCH  20  22
ATOM     22  S   UNL     1       6.934   4.981  16.469  0.00  0.00    +0.000 S 
ATOM     23  O   UNL     1       6.612   4.175  15.312  0.00  0.00    +0.000 OA
ATOM     24  O   UNL     1       7.404   6.343  16.366  0.00  0.00    +0.000 OA
BRANCH  22  25
ATOM     25  O   UNL     1       8.032   4.122  17.282  0.00  0.00    +0.000 OA
ATOM     26  H   UNL     1       8.254   4.623  18.097  0.00  0.00    +0.000 HD
ENDBRANCH  22  25
ENDBRANCH  20  22
ENDBRANCH   2  16
TORSDOF 4
ENDMDL
MODEL 6
REMARK VINA RESULT:      -7.8      6.744      7.994
REMARK  Name = 
REMARK  5 active torsions:
REMARK  status: ('A' for Active; 'I' for Inactive)
REMARK    1  A    between atoms: C_1  and  C_2
REMARK    2  A    between atoms: C_6  and  N_7
REMARK    3  A    between atoms: C_8  and  C_10
REMARK    4  A    between atoms: C_14  and  S_15
REMARK    5  A    between atoms: S_15  and  O_18
REMARK                            x       y       z     vdW  Elec       q    Type
REMARK                         _______ _______ _______ _____ _____    ______ ____
ROOT
ATOM      1  N   UNL     1       2.295   8.053  18.094  0.00  0.00    +0.000 N 
ATOM      2  C   UNL     1       2.784   6.911  18.705  0.00  0.00    +0.000 C 
ATOM      3  O   UNL     1       2.673   6.623  19.894  0.00  0.00    +0.000 OA
ATOM      4  H   UNL     1       2.233   8.067  17.083  0.00  0.00    +0.000 HD
ENDROOT
BRANCH   1  10
ATOM      5  C   UNL     1      -1.521  12.150  23.043  0.00  0.00    +0.000 C 
ATOM      6  C   UNL     1      -0.732  11.474  21.985  0.00  0.00    +0.000 A 
ATOM      7  C   UNL     1      -0.313  10.164  21.881  0.00  0.00    +0.000 A 
ATOM      8  C   UNL     1       0.406  10.032  20.663  0.00  0.00    +0.000 A 
ATOM      9  C   UNL     1       1.045   8.952  20.026  0.00  0.00    +0.000 A 
ATOM     10  C   UNL     1       1.673   9.127  18.786  0.00  0.00    +0.000 A 
ATOM     11  C   UNL     1       1.698  10.402  18.210  0.00  0.00    +0.000 A 
ATOM     12  C   UNL     1       1.062  11.499  18.823  0.00  0.00    +0.000 A 
ATOM     13  C   UNL     1       0.421  11.279  20.047  0.00  0.00    +0.000 A 
ATOM     14  N   UNL     1      -0.284  12.136  20.866  0.00  0.00    +0.000 N 
ATOM     15  H   UNL     1      -0.445  13.113  20.668  0.00  0.00    +0.000 HD
ENDBRANCH   1  10
BRANCH   2  16
ATOM     16  C   UNL     1       3.472   5.908  17.852  0.00  0.00    +0.000 A 
ATOM     17  C   UNL     1       2.875   4.640  17.746  0.00  0.00    +0.000 A 
ATOM     18  C   UNL     1       3.525   3.593  17.093  0.00  0.00    +0.000 A 
ATOM     19  C   UNL     1       4.788   3.801  16.548  0.00  0.00    +0.000 A 
ATOM     20  C   UNL     1       5.378   5.066  16.648  0.00  0.00    +0.000 A 
ATOM     21  C   UNL     1       4.731   6.133  17.291  0.00  0.00    +0.000 A 
BRANCH  20  22
ATOM     22  S   UNL     1       7.036   5.282  16.061  0.00  0.00    +0.000 S 
ATOM     23  O   UNL     1       7.887   4.356  16.774  0.00  0.00    +0.000 OA
ATOM     24  O   UNL     1       6.977   5.336  14.618  0.00  0.00    +0.000 OA
BRANCH  22  25
ATOM     25  O   UNL     1       7.458   6.740  16.609  0.00  0.00    +0.000 OA
ATOM     26  H   UNL     1       6.795   7.004  17.284  0.00  0.00    +0.000 HD
ENDBRANCH  22  25
ENDBRANCH  20  22
ENDBRANCH   2  16
TORSDOF 4
ENDMDL
MODEL 7
REMARK VINA RESULT:      -7.8      0.911      1.698
REMARK  Name = 
REMARK  5 active torsions:
REMARK  status: ('A' for Active; 'I' for Inactive)
REMARK    1  A    between atoms: C_1  and  C_2
REMARK    2  A    between atoms: C_6  and  N_7
REMARK    3  A    between atoms: C_8  and  C_10
REMARK    4  A    between atoms: C_14  and  S_15
REMARK    5  A    between atoms: S_15  and  O_18
REMARK                            x       y       z     vdW  Elec       q    Type
REMARK                         _______ _______ _______ _____ _____    ______ ____
ROOT
ATOM      1  N   UNL     1       9.197   9.218  19.130  0.00  0.00    +0.000 N 
ATOM      2  C   UNL     1       8.197   8.926  18.218  0.00  0.00    +0.000 C 
ATOM      3  O   UNL     1       7.611   9.736  17.502  0.00  0.00    +0.000 OA
ATOM      4  H   UNL     1       9.765   8.456  19.478  0.00  0.00    +0.000 HD
ENDROOT
BRANCH   1  10
ATOM      5  C   UNL     1      10.217  15.809  22.498  0.00  0.00    +0.000 C 
ATOM      6  C   UNL     1      10.118  14.552  21.720  0.00  0.00    +0.000 A 
ATOM      7  C   UNL     1       9.486  13.363  22.017  0.00  0.00    +0.000 A 
ATOM      8  C   UNL     1       9.688  12.477  20.926  0.00  0.00    +0.000 A 
ATOM      9  C   UNL     1       9.277  11.158  20.658  0.00  0.00    +0.000 A 
ATOM     10  C   UNL     1       9.626  10.533  19.453  0.00  0.00    +0.000 A 
ATOM     11  C   UNL     1      10.430  11.223  18.538  0.00  0.00    +0.000 A 
ATOM     12  C   UNL     1      10.851  12.544  18.778  0.00  0.00    +0.000 A 
ATOM     13  C   UNL     1      10.459  13.145  19.980  0.00  0.00    +0.000 A 
ATOM     14  N   UNL     1      10.701  14.406  20.482  0.00  0.00    +0.000 N 
ATOM     15  H   UNL     1      11.232  15.120  20.004  0.00  0.00    +0.000 HD
ENDBRANCH   1  10
BRANCH   2  16
ATOM     16  C   UNL     1       7.812   7.503  18.041  0.00  0.00    +0.000 A 
ATOM     17  C   UNL     1       8.153   6.613  19.075  0.00  0.00    +0.000 A 
ATOM     18  C   UNL     1       7.966   5.239  18.931  0.00  0.00    +0.000 A 
ATOM     19  C   UNL     1       7.448   4.737  17.741  0.00  0.00    +0.000 A 
ATOM     20  C   UNL     1       7.103   5.623  16.715  0.00  0.00    +0.000 A 
ATOM     21  C   UNL     1       7.273   7.010  16.851  0.00  0.00    +0.000 A 
BRANCH  20  22
ATOM     22  S   UNL     1       6.562   4.962  15.163  0.00  0.00    +0.000 S 
ATOM     23  O   UNL     1       5.194   5.381  14.952  0.00  0.00    +0.000 OA
ATOM     24  O   UNL     1       7.611   5.209  14.201  0.00  0.00    +0.000 OA
BRANCH  22  25
ATOM     25  O   UNL     1       6.473   3.372  15.425  0.00  0.00    +0.000 OA
ATOM     26  H   UNL     1       7.389   3.046  15.566  0.00  0.00    +0.000 HD
ENDBRANCH  22  25
ENDBRANCH  20  22
ENDBRANCH   2  16
TORSDOF 4
ENDMDL
MODEL 8
REMARK VINA RESULT:      -7.8      6.376      7.372
REMARK  Name = 
REMARK  5 active torsions:
REMARK  status: ('A' for Active; 'I' for Inactive)
REMARK    1  A    between atoms: C_1  and  C_2
REMARK    2  A    between atoms: C_6  and  N_7
REMARK    3  A    between atoms: C_8  and  C_10
REMARK    4  A    between atoms: C_14  and  S_15
REMARK    5  A    between atoms: S_15  and  O_18
REMARK                            x       y       z     vdW  Elec       q    Type
REMARK                         _______ _______ _______ _____ _____    ______ ____
ROOT
ATOM      1  N   UNL     1       2.235   8.544  17.537  0.00  0.00    +0.000 N 
ATOM      2  C   UNL     1       2.639   7.521  18.378  0.00  0.00    +0.000 C 
ATOM      3  O   UNL     1       2.405   7.438  19.582  0.00  0.00    +0.000 OA
ATOM      4  H   UNL     1       2.275   8.386  16.538  0.00  0.00    +0.000 HD
ENDROOT
BRANCH   1  10
ATOM      5  C   UNL     1       0.695  15.472  19.875  0.00  0.00    +0.000 C 
ATOM      6  C   UNL     1       0.843  14.072  19.411  0.00  0.00    +0.000 A 
ATOM      7  C   UNL     1       1.959  13.385  18.980  0.00  0.00    +0.000 A 
ATOM      8  C   UNL     1       1.559  12.062  18.656  0.00  0.00    +0.000 A 
ATOM      9  C   UNL     1       2.247  10.927  18.188  0.00  0.00    +0.000 A 
ATOM     10  C   UNL     1       1.568   9.720  17.972  0.00  0.00    +0.000 A 
ATOM     11  C   UNL     1       0.186   9.671  18.184  0.00  0.00    +0.000 A 
ATOM     12  C   UNL     1      -0.527  10.789  18.657  0.00  0.00    +0.000 A 
ATOM     13  C   UNL     1       0.190  11.969  18.888  0.00  0.00    +0.000 A 
ATOM     14  N   UNL     1      -0.220  13.200  19.353  0.00  0.00    +0.000 N 
ATOM     15  H   UNL     1      -1.169  13.426  19.614  0.00  0.00    +0.000 HD
ENDBRANCH   1  10
BRANCH   2  16
ATOM     16  C   UNL     1       3.390   6.387  17.781  0.00  0.00    +0.000 A 
ATOM     17  C   UNL     1       2.807   5.112  17.876  0.00  0.00    +0.000 A 
ATOM     18  C   UNL     1       3.505   3.971  17.480  0.00  0.00    +0.000 A 
ATOM     19  C   UNL     1       4.803   4.094  16.994  0.00  0.00    +0.000 A 
ATOM     20  C   UNL     1       5.380   5.365  16.894  0.00  0.00    +0.000 A 
ATOM     21  C   UNL     1       4.685   6.523  17.276  0.00  0.00    +0.000 A 
BRANCH  20  22
ATOM     22  S   UNL     1       7.075   5.495  16.392  0.00  0.00    +0.000 S 
ATOM     23  O   UNL     1       7.503   6.857  16.618  0.00  0.00    +0.000 OA
ATOM     24  O   UNL     1       7.774   4.355  16.940  0.00  0.00    +0.000 OA
BRANCH  22  25
ATOM     25  O   UNL     1       7.021   5.336  14.787  0.00  0.00    +0.000 OA
ATOM     26  H   UNL     1       7.907   5.033  14.491  0.00  0.00    +0.000 HD
ENDBRANCH  22  25
ENDBRANCH  20  22
ENDBRANCH   2  16
TORSDOF 4
ENDMDL
MODEL 9
REMARK VINA RESULT:      -7.8      6.966      8.505
REMARK  Name = 
REMARK  5 active torsions:
REMARK  status: ('A' for Active; 'I' for Inactive)
REMARK    1  A    between atoms: C_1  and  C_2
REMARK    2  A    between atoms: C_6  and  N_7
REMARK    3  A    between atoms: C_8  and  C_10
REMARK    4  A    between atoms: C_14  and  S_15
REMARK    5  A    between atoms: S_15  and  O_18
REMARK                            x       y       z     vdW  Elec       q    Type
REMARK                         _______ _______ _______ _____ _____    ______ ____
ROOT
ATOM      1  N   UNL     1       2.019   7.918  19.513  0.00  0.00    +0.000 N 
ATOM      2  C   UNL     1       2.522   7.812  18.227  0.00  0.00    +0.000 C 
ATOM      3  O   UNL     1       2.385   8.638  17.327  0.00  0.00    +0.000 OA
ATOM      4  H   UNL     1       2.395   7.304  20.225  0.00  0.00    +0.000 HD
ENDROOT
BRANCH   1  10
ATOM      5  C   UNL     1      -2.424  12.303  23.619  0.00  0.00    +0.000 C 
ATOM      6  C   UNL     1      -1.558  11.540  22.688  0.00  0.00    +0.000 A 
ATOM      7  C   UNL     1      -0.785  10.419  22.901  0.00  0.00    +0.000 A 
ATOM      8  C   UNL     1      -0.157  10.083  21.672  0.00  0.00    +0.000 A 
ATOM      9  C   UNL     1       0.718   9.052  21.280  0.00  0.00    +0.000 A 
ATOM     10  C   UNL     1       1.168   8.965  19.956  0.00  0.00    +0.000 A 
ATOM     11  C   UNL     1       0.775   9.946  19.038  0.00  0.00    +0.000 A 
ATOM     12  C   UNL     1      -0.103  10.985  19.402  0.00  0.00    +0.000 A 
ATOM     13  C   UNL     1      -0.554  11.022  20.727  0.00  0.00    +0.000 A 
ATOM     14  N   UNL     1      -1.411  11.893  21.367  0.00  0.00    +0.000 N 
ATOM     15  H   UNL     1      -1.865  12.678  20.922  0.00  0.00    +0.000 HD
ENDBRANCH   1  10
BRANCH   2  16
ATOM     16  C   UNL     1       3.342   6.619  17.897  0.00  0.00    +0.000 A 
ATOM     17  C   UNL     1       2.716   5.364  17.996  0.00  0.00    +0.000 A 
ATOM     18  C   UNL     1       3.445   4.184  17.851  0.00  0.00    +0.000 A 
ATOM     19  C   UNL     1       4.816   4.248  17.620  0.00  0.00    +0.000 A 
ATOM     20  C   UNL     1       5.437   5.497  17.515  0.00  0.00    +0.000 A 
ATOM     21  C   UNL     1       4.713   6.693  17.645  0.00  0.00    +0.000 A 
BRANCH  20  22
ATOM     22  S   UNL     1       7.199   5.562  17.344  0.00  0.00    +0.000 S 
ATOM     23  O   UNL     1       7.756   4.418  18.032  0.00  0.00    +0.000 OA
ATOM     24  O   UNL     1       7.486   5.856  15.959  0.00  0.00    +0.000 OA
BRANCH  22  25
ATOM     25  O   UNL     1       7.632   6.835  18.237  0.00  0.00    +0.000 OA
ATOM     26  H   UNL     1       8.604   6.943  18.144  0.00  0.00    +0.000 HD
ENDBRANCH  22  25
ENDBRANCH  20  22
ENDBRANCH   2  16
TORSDOF 4
ENDMDL
