MODEL 1
REMARK VINA RESULT:      -8.3      0.000      0.000
REMARK  Name = 
REMARK  5 active torsions:
REMARK  status: ('A' for Active; 'I' for Inactive)
REMARK    1  A    between atoms: C_1  and  O_2
REMARK    2  A    between atoms: O_2  and  C_3
REMARK    3  A    between atoms: C_8  and  C_9
REMARK    4  A    between atoms: N_12  and  C_13
REMARK    5  A    between atoms: N_17  and  C_18
REMARK                            x       y       z     vdW  Elec       q    Type
REMARK                         _______ _______ _______ _____ _____    ______ ____
ROOT
ATOM      1  C   UNL     1       4.377   3.553  18.165  0.00  0.00    +0.000 C 
ATOM      2  C   UNL     1       2.877   3.485  17.845  0.00  0.00    +0.000 C 
ATOM      3  C   UNL     1       2.159   4.836  17.912  0.00  0.00    +0.000 C 
ATOM      4  N   UNL     1       2.463   5.664  19.090  0.00  0.00    +0.000 NA
ATOM      5  C   UNL     1       3.884   5.674  19.471  0.00  0.00    +0.000 C 
ATOM      6  C   UNL     1       4.542   4.295  19.493  0.00  0.00    +0.000 C 
ENDROOT
BRANCH   4   7
ATOM      7  C   UNL     1       1.944   7.065  18.975  0.00  0.00    +0.000 C 
ATOM      8  C   UNL     1       2.826   7.862  17.981  0.00  0.00    +0.000 C 
ATOM      9  C   UNL     1       2.206   9.169  17.477  0.00  0.00    +0.000 C 
ATOM     10  C   UNL     1       1.849  10.155  18.587  0.00  0.00    +0.000 C 
ATOM     11  N   UNL     1       0.632   9.715  19.272  0.00  0.00    +0.000 N 
ATOM     12  C   UNL     1       0.777   8.860  20.449  0.00  0.00    +0.000 C 
ATOM     13  C   UNL     1       1.871   7.802  20.337  0.00  0.00    +0.000 C 
BRANCH  11  14
ATOM     14  C   UNL     1      -0.569  10.384  19.057  0.00  0.00    +0.000 A 
ATOM     15  C   UNL     1      -1.420  10.067  17.988  0.00  0.00    +0.000 A 
ATOM     16  C   UNL     1      -2.638  10.726  17.802  0.00  0.00    +0.000 A 
ATOM     17  C   UNL     1      -2.999  11.709  18.702  0.00  0.00    +0.000 A 
ATOM     18  N   UNL     1      -2.236  12.067  19.749  0.00  0.00    +0.000 NA
ATOM     19  C   UNL     1      -1.062  11.399  19.896  0.00  0.00    +0.000 A 
ENDBRANCH  11  14
ENDBRANCH   4   7
BRANCH   1  25
ATOM     20  C   UNL     1       6.571   4.520  17.283  0.00  0.00    +0.000 A 
ATOM     21  C   UNL     1       7.355   4.914  16.195  0.00  0.00    +0.000 A 
ATOM     22  C   UNL     1       6.799   4.969  14.922  0.00  0.00    +0.000 A 
ATOM     23  C   UNL     1       5.471   4.620  14.780  0.00  0.00    +0.000 A 
ATOM     24  N   UNL     1       4.696   4.193  15.799  0.00  0.00    +0.000 NA
ATOM     25  C   UNL     1       5.247   4.115  17.040  0.00  0.00    +0.000 A 
BRANCH  20  27
ATOM     26  C   UNL     1       7.755   5.623  19.010  0.00  0.00    +0.000 C 
ATOM     27  O   UNL     1       7.036   4.472  18.569  0.00  0.00    +0.000 OA
ENDBRANCH  20  27
ENDBRANCH   1  25
TORSDOF 4
ENDMDL
MODEL 2
REMARK VINA RESULT:      -7.8      1.205      1.921
REMARK  Name = 
REMARK  5 active torsions:
REMARK  status: ('A' for Active; 'I' for Inactive)
REMARK    1  A    between atoms: C_1  and  O_2
REMARK    2  A    between atoms: O_2  and  C_3
REMARK    3  A    between atoms: C_8  and  C_9
REMARK    4  A    between atoms: N_12  and  C_13
REMARK    5  A    between atoms: N_17  and  C_18
REMARK                            x       y       z     vdW  Elec       q    Type
REMARK                         _______ _______ _______ _____ _____    ______ ____
ROOT
ATOM      1  C   UNL     1       4.166   3.684  18.760  0.00  0.00    +0.000 C 
ATOM      2  C   UNL     1       3.131   3.928  17.654  0.00  0.00    +0.000 C 
ATOM      3  C   UNL     1       2.466   5.306  17.709  0.00  0.00    +0.000 C 
ATOM      4  N   UNL     1       2.008   5.742  19.037  0.00  0.00    +0.000 NA
ATOM      5  C   UNL     1       2.945   5.439  20.129  0.00  0.00    +0.000 C 
ATOM      6  C   UNL     1       3.510   4.020  20.101  0.00  0.00    +0.000 C 
ENDROOT
BRANCH   4   7
ATOM      7  C   UNL     1       1.609   7.186  19.078  0.00  0.00    +0.000 C 
ATOM      8  C   UNL     1       2.470   7.988  18.071  0.00  0.00    +0.000 C 
ATOM      9  C   UNL     1       1.929   9.380  17.728  0.00  0.00    +0.000 C 
ATOM     10  C   UNL     1       1.759  10.295  18.938  0.00  0.00    +0.000 C 
ATOM     11  N   UNL     1       0.571   9.901  19.697  0.00  0.00    +0.000 N 
ATOM     12  C   UNL     1       0.739   8.941  20.787  0.00  0.00    +0.000 C 
ATOM     13  C   UNL     1       1.720   7.809  20.494  0.00  0.00    +0.000 C 
BRANCH  11  14
ATOM     14  C   UNL     1      -0.580  10.683  19.646  0.00  0.00    +0.000 A 
ATOM     15  C   UNL     1      -1.448  10.664  18.546  0.00  0.00    +0.000 A 
ATOM     16  C   UNL     1      -2.615  11.431  18.521  0.00  0.00    +0.000 A 
ATOM     17  C   UNL     1      -2.909  12.219  19.616  0.00  0.00    +0.000 A 
ATOM     18  N   UNL     1      -2.125  12.289  20.705  0.00  0.00    +0.000 NA
ATOM     19  C   UNL     1      -1.002  11.525  20.690  0.00  0.00    +0.000 A 
ENDBRANCH  11  14
ENDBRANCH   4   7
BRANCH   1  25
ATOM     20  C   UNL     1       6.113   4.417  17.278  0.00  0.00    +0.000 A 
ATOM     21  C   UNL     1       7.281   5.169  17.118  0.00  0.00    +0.000 A 
ATOM     22  C   UNL     1       7.855   5.800  18.214  0.00  0.00    +0.000 A 
ATOM     23  C   UNL     1       7.236   5.662  19.440  0.00  0.00    +0.000 A 
ATOM     24  N   UNL     1       6.086   4.980  19.625  0.00  0.00    +0.000 NA
ATOM     25  C   UNL     1       5.509   4.383  18.546  0.00  0.00    +0.000 A 
BRANCH  20  27
ATOM     26  C   UNL     1       6.105   3.898  14.969  0.00  0.00    +0.000 C 
ATOM     27  O   UNL     1       5.507   3.740  16.254  0.00  0.00    +0.000 OA
ENDBRANCH  20  27
ENDBRANCH   1  25
TORSDOF 4
ENDMDL
MODEL 3
REMARK VINA RESULT:      -7.2      3.602      9.448
REMARK  Name = 
REMARK  5 active torsions:
REMARK  status: ('A' for Active; 'I' for Inactive)
REMARK    1  A    between atoms: C_1  and  O_2
REMARK    2  A    between atoms: O_2  and  C_3
REMARK    3  A    between atoms: C_8  and  C_9
REMARK    4  A    between atoms: N_12  and  C_13
REMARK    5  A    between atoms: N_17  and  C_18
REMARK                            x       y       z     vdW  Elec       q    Type
REMARK                         _______ _______ _______ _____ _____    ______ ____
ROOT
ATOM      1  C   UNL     1      -1.620  12.726  19.319  0.00  0.00    +0.000 C 
ATOM      2  C   UNL     1      -2.126  11.645  18.353  0.00  0.00    +0.000 C 
ATOM      3  C   UNL     1      -1.337  10.334  18.410  0.00  0.00    +0.000 C 
ATOM      4  N   UNL     1       0.128  10.468  18.413  0.00  0.00    +0.000 NA
ATOM      5  C   UNL     1       0.633  11.557  19.263  0.00  0.00    +0.000 C 
ATOM      6  C   UNL     1      -0.112  12.881  19.105  0.00  0.00    +0.000 C 
ENDROOT
BRANCH   4   7
ATOM      7  C   UNL     1       0.837   9.186  18.730  0.00  0.00    +0.000 C 
ATOM      8  C   UNL     1       0.958   9.031  20.266  0.00  0.00    +0.000 C 
ATOM      9  C   UNL     1       1.309   7.618  20.744  0.00  0.00    +0.000 C 
ATOM     10  C   UNL     1       2.620   7.078  20.175  0.00  0.00    +0.000 C 
ATOM     11  N   UNL     1       2.428   6.677  18.780  0.00  0.00    +0.000 N 
ATOM     12  C   UNL     1       2.697   7.666  17.738  0.00  0.00    +0.000 C 
ATOM     13  C   UNL     1       2.235   9.083  18.069  0.00  0.00    +0.000 C 
BRANCH  11  14
ATOM     14  C   UNL     1       2.375   5.327  18.444  0.00  0.00    +0.000 A 
ATOM     15  C   UNL     1       3.254   4.754  17.515  0.00  0.00    +0.000 A 
ATOM     16  C   UNL     1       3.210   3.391  17.209  0.00  0.00    +0.000 A 
ATOM     17  C   UNL     1       2.275   2.603  17.849  0.00  0.00    +0.000 A 
ATOM     18  N   UNL     1       1.400   3.082  18.751  0.00  0.00    +0.000 NA
ATOM     19  C   UNL     1       1.480   4.411  19.022  0.00  0.00    +0.000 A 
ENDBRANCH  11  14
ENDBRANCH   4   7
BRANCH   1  25
ATOM     20  C   UNL     1      -3.267  12.911  21.262  0.00  0.00    +0.000 A 
ATOM     21  C   UNL     1      -3.612  12.583  22.577  0.00  0.00    +0.000 A 
ATOM     22  C   UNL     1      -2.690  11.942  23.396  0.00  0.00    +0.000 A 
ATOM     23  C   UNL     1      -1.451  11.644  22.868  0.00  0.00    +0.000 A 
ATOM     24  N   UNL     1      -1.098  11.906  21.591  0.00  0.00    +0.000 NA
ATOM     25  C   UNL     1      -2.009  12.510  20.781  0.00  0.00    +0.000 A 
BRANCH  20  27
ATOM     26  C   UNL     1      -5.304  12.877  20.057  0.00  0.00    +0.000 C 
ATOM     27  O   UNL     1      -4.107  13.571  20.405  0.00  0.00    +0.000 OA
ENDBRANCH  20  27
ENDBRANCH   1  25
TORSDOF 4
ENDMDL
MODEL 4
REMARK VINA RESULT:      -7.2      1.460      2.362
REMARK  Name = 
REMARK  5 active torsions:
REMARK  status: ('A' for Active; 'I' for Inactive)
REMARK    1  A    between atoms: C_1  and  O_2
REMARK    2  A    between atoms: O_2  and  C_3
REMARK    3  A    between atoms: C_8  and  C_9
REMARK    4  A    between atoms: N_12  and  C_13
REMARK    5  A    between atoms: N_17  and  C_18
REMARK                            x       y       z     vdW  Elec       q    Type
REMARK                         _______ _______ _______ _____ _____    ______ ____
ROOT
ATOM      1  C   UNL     1       3.964   3.660  18.589  0.00  0.00    +0.000 C 
ATOM      2  C   UNL     1       2.942   4.075  17.522  0.00  0.00    +0.000 C 
ATOM      3  C   UNL     1       2.327   5.459  17.746  0.00  0.00    +0.000 C 
ATOM      4  N   UNL     1       1.880   5.745  19.119  0.00  0.00    +0.000 NA
ATOM      5  C   UNL     1       2.802   5.276  20.164  0.00  0.00    +0.000 C 
ATOM      6  C   UNL     1       3.316   3.852  19.962  0.00  0.00    +0.000 C 
ENDROOT
BRANCH   4   7
ATOM      7  C   UNL     1       1.533   7.186  19.337  0.00  0.00    +0.000 C 
ATOM      8  C   UNL     1       2.022   8.023  18.129  0.00  0.00    +0.000 C 
ATOM      9  C   UNL     1       1.414   9.426  18.030  0.00  0.00    +0.000 C 
ATOM     10  C   UNL     1       1.664  10.299  19.258  0.00  0.00    +0.000 C 
ATOM     11  N   UNL     1       0.788   9.878  20.354  0.00  0.00    +0.000 N 
ATOM     12  C   UNL     1       1.295   8.881  21.294  0.00  0.00    +0.000 C 
ATOM     13  C   UNL     1       2.112   7.760  20.656  0.00  0.00    +0.000 C 
BRANCH  11  14
ATOM     14  C   UNL     1      -0.306  10.661  20.712  0.00  0.00    +0.000 A 
ATOM     15  C   UNL     1      -0.669  10.869  22.050  0.00  0.00    +0.000 A 
ATOM     16  C   UNL     1      -1.751  11.682  22.397  0.00  0.00    +0.000 A 
ATOM     17  C   UNL     1      -2.468  12.291  21.386  0.00  0.00    +0.000 A 
ATOM     18  N   UNL     1      -2.179  12.138  20.082  0.00  0.00    +0.000 NA
ATOM     19  C   UNL     1      -1.118  11.342  19.788  0.00  0.00    +0.000 A 
ENDBRANCH  11  14
ENDBRANCH   4   7
BRANCH   1  25
ATOM     20  C   UNL     1       6.023   4.337  17.238  0.00  0.00    +0.000 A 
ATOM     21  C   UNL     1       7.213   5.065  17.150  0.00  0.00    +0.000 A 
ATOM     22  C   UNL     1       7.723   5.700  18.277  0.00  0.00    +0.000 A 
ATOM     23  C   UNL     1       7.017   5.588  19.458  0.00  0.00    +0.000 A 
ATOM     24  N   UNL     1       5.843   4.930  19.570  0.00  0.00    +0.000 NA
ATOM     25  C   UNL     1       5.332   4.330  18.461  0.00  0.00    +0.000 A 
BRANCH  20  27
ATOM     26  C   UNL     1       5.756   4.195  14.890  0.00  0.00    +0.000 C 
ATOM     27  O   UNL     1       5.476   3.658  16.182  0.00  0.00    +0.000 OA
ENDBRANCH  20  27
ENDBRANCH   1  25
TORSDOF 4
ENDMDL
MODEL 5
REMARK VINA RESULT:      -7.1      3.762      9.267
REMARK  Name = 
REMARK  5 active torsions:
REMARK  status: ('A' for Active; 'I' for Inactive)
REMARK    1  A    between atoms: C_1  and  O_2
REMARK    2  A    between atoms: O_2  and  C_3
REMARK    3  A    between atoms: C_8  and  C_9
REMARK    4  A    between atoms: N_12  and  C_13
REMARK    5  A    between atoms: N_17  and  C_18
REMARK                            x       y       z     vdW  Elec       q    Type
REMARK                         _______ _______ _______ _____ _____    ______ ____
ROOT
ATOM      1  C   UNL     1      -0.786  13.075  18.886  0.00  0.00    +0.000 C 
ATOM      2  C   UNL     1      -1.545  11.969  18.140  0.00  0.00    +0.000 C 
ATOM      3  C   UNL     1      -0.995  10.560  18.378  0.00  0.00    +0.000 C 
ATOM      4  N   UNL     1       0.468  10.421  18.288  0.00  0.00    +0.000 NA
ATOM      5  C   UNL     1       1.218  11.517  18.920  0.00  0.00    +0.000 C 
ATOM      6  C   UNL     1       0.704  12.915  18.578  0.00  0.00    +0.000 C 
ENDROOT
BRANCH   4   7
ATOM      7  C   UNL     1       0.965   9.096  18.782  0.00  0.00    +0.000 C 
ATOM      8  C   UNL     1       1.079   9.131  20.326  0.00  0.00    +0.000 C 
ATOM      9  C   UNL     1       1.205   7.757  20.992  0.00  0.00    +0.000 C 
ATOM     10  C   UNL     1       2.405   6.942  20.513  0.00  0.00    +0.000 C 
ATOM     11  N   UNL     1       2.133   6.394  19.183  0.00  0.00    +0.000 N 
ATOM     12  C   UNL     1       2.544   7.177  18.019  0.00  0.00    +0.000 C 
ATOM     13  C   UNL     1       2.320   8.682  18.152  0.00  0.00    +0.000 C 
BRANCH  11  14
ATOM     14  C   UNL     1       1.860   5.037  19.031  0.00  0.00    +0.000 A 
ATOM     15  C   UNL     1       1.323   4.263  20.069  0.00  0.00    +0.000 A 
ATOM     16  C   UNL     1       1.025   2.909  19.894  0.00  0.00    +0.000 A 
ATOM     17  C   UNL     1       1.268   2.336  18.662  0.00  0.00    +0.000 A 
ATOM     18  N   UNL     1       1.781   3.014  17.621  0.00  0.00    +0.000 NA
ATOM     19  C   UNL     1       2.052   4.328  17.832  0.00  0.00    +0.000 A 
ENDBRANCH  11  14
ENDBRANCH   4   7
BRANCH   1  25
ATOM     20  C   UNL     1      -1.026  14.394  21.061  0.00  0.00    +0.000 A 
ATOM     21  C   UNL     1      -1.430  14.437  22.398  0.00  0.00    +0.000 A 
ATOM     22  C   UNL     1      -1.816  13.268  23.044  0.00  0.00    +0.000 A 
ATOM     23  C   UNL     1      -1.789  12.091  22.325  0.00  0.00    +0.000 A 
ATOM     24  N   UNL     1      -1.447  12.018  21.021  0.00  0.00    +0.000 NA
ATOM     25  C   UNL     1      -1.093  13.166  20.381  0.00  0.00    +0.000 A 
BRANCH  20  27
ATOM     26  C   UNL     1      -1.561  16.540  20.218  0.00  0.00    +0.000 C 
ATOM     27  O   UNL     1      -0.601  15.495  20.366  0.00  0.00    +0.000 OA
ENDBRANCH  20  27
ENDBRANCH   1  25
TORSDOF 4
ENDMDL
MODEL 6
REMARK VINA RESULT:      -6.8      2.500      4.305
REMARK  Name = 
REMARK  5 active torsions:
REMARK  status: ('A' for Active; 'I' for Inactive)
REMARK    1  A    between atoms: C_1  and  O_2
REMARK    2  A    between atoms: O_2  and  C_3
REMARK    3  A    between atoms: C_8  and  C_9
REMARK    4  A    between atoms: N_12  and  C_13
REMARK    5  A    between atoms: N_17  and  C_18
REMARK                            x       y       z     vdW  Elec       q    Type
REMARK                         _______ _______ _______ _____ _____    ______ ____
ROOT
ATOM      1  C   UNL     1       3.814   3.863  18.467  0.00  0.00    +0.000 C 
ATOM      2  C   UNL     1       4.861   4.909  18.873  0.00  0.00    +0.000 C 
ATOM      3  C   UNL     1       4.277   6.284  19.210  0.00  0.00    +0.000 C 
ATOM      4  N   UNL     1       3.277   6.803  18.263  0.00  0.00    +0.000 NA
ATOM      5  C   UNL     1       2.314   5.797  17.790  0.00  0.00    +0.000 C 
ATOM      6  C   UNL     1       2.943   4.471  17.365  0.00  0.00    +0.000 C 
ENDROOT
BRANCH   4   7
ATOM      7  C   UNL     1       2.557   8.014  18.773  0.00  0.00    +0.000 C 
ATOM      8  C   UNL     1       1.775   7.647  20.059  0.00  0.00    +0.000 C 
ATOM      9  C   UNL     1       1.310   8.845  20.893  0.00  0.00    +0.000 C 
ATOM     10  C   UNL     1       0.411   9.818  20.134  0.00  0.00    +0.000 C 
ATOM     11  N   UNL     1       1.217  10.629  19.219  0.00  0.00    +0.000 N 
ATOM     12  C   UNL     1       1.395  10.149  17.850  0.00  0.00    +0.000 C 
ATOM     13  C   UNL     1       1.601   8.641  17.725  0.00  0.00    +0.000 C 
BRANCH  11  14
ATOM     14  C   UNL     1       1.471  11.966  19.512  0.00  0.00    +0.000 A 
ATOM     15  C   UNL     1       2.044  12.840  18.578  0.00  0.00    +0.000 A 
ATOM     16  C   UNL     1       2.266  14.187  18.875  0.00  0.00    +0.000 A 
ATOM     17  C   UNL     1       1.903  14.654  20.123  0.00  0.00    +0.000 A 
ATOM     18  N   UNL     1       1.349  13.877  21.069  0.00  0.00    +0.000 NA
ATOM     19  C   UNL     1       1.147  12.575  20.738  0.00  0.00    +0.000 A 
ENDBRANCH  11  14
ENDBRANCH   4   7
BRANCH   1  25
ATOM     20  C   UNL     1       3.610   2.431  20.572  0.00  0.00    +0.000 A 
ATOM     21  C   UNL     1       2.855   2.022  21.675  0.00  0.00    +0.000 A 
ATOM     22  C   UNL     1       1.521   2.396  21.780  0.00  0.00    +0.000 A 
ATOM     23  C   UNL     1       0.986   3.175  20.775  0.00  0.00    +0.000 A 
ATOM     24  N   UNL     1       1.695   3.624  19.717  0.00  0.00    +0.000 NA
ATOM     25  C   UNL     1       3.008   3.279  19.628  0.00  0.00    +0.000 A 
BRANCH  20  27
ATOM     26  C   UNL     1       5.409   1.041  21.232  0.00  0.00    +0.000 C 
ATOM     27  O   UNL     1       4.919   2.076  20.381  0.00  0.00    +0.000 OA
ENDBRANCH  20  27
ENDBRANCH   1  25
TORSDOF 4
ENDMDL
MODEL 7
REMARK VINA RESULT:      -6.8      3.498      9.584
REMARK  Name = 
REMARK  5 active torsions:
REMARK  status: ('A' for Active; 'I' for Inactive)
REMARK    1  A    between atoms: C_1  and  O_2
REMARK    2  A    between atoms: O_2  and  C_3
REMARK    3  A    between atoms: C_8  and  C_9
REMARK    4  A    between atoms: N_12  and  C_13
REMARK    5  A    between atoms: N_17  and  C_18
REMARK                            x       y       z     vdW  Elec       q    Type
REMARK                         _______ _______ _______ _____ _____    ______ ____
ROOT
ATOM      1  C   UNL     1      -1.246  12.505  22.288  0.00  0.00    +0.000 C 
ATOM      2  C   UNL     1       0.066  13.021  21.680  0.00  0.00    +0.000 C 
ATOM      3  C   UNL     1       0.812  11.989  20.830  0.00  0.00    +0.000 C 
ATOM      4  N   UNL     1       0.935  10.644  21.417  0.00  0.00    +0.000 NA
ATOM      5  C   UNL     1      -0.285  10.164  22.085  0.00  0.00    +0.000 C 
ATOM      6  C   UNL     1      -0.947  11.187  23.006  0.00  0.00    +0.000 C 
ENDROOT
BRANCH   4   7
ATOM      7  C   UNL     1       1.435   9.620  20.445  0.00  0.00    +0.000 C 
ATOM      8  C   UNL     1       1.050  10.044  19.005  0.00  0.00    +0.000 C 
ATOM      9  C   UNL     1       1.809   9.310  17.895  0.00  0.00    +0.000 C 
ATOM     10  C   UNL     1       1.647   7.792  17.930  0.00  0.00    +0.000 C 
ATOM     11  N   UNL     1       2.462   7.230  19.008  0.00  0.00    +0.000 N 
ATOM     12  C   UNL     1       1.841   7.056  20.320  0.00  0.00    +0.000 C 
ATOM     13  C   UNL     1       0.912   8.191  20.742  0.00  0.00    +0.000 C 
BRANCH  11  14
ATOM     14  C   UNL     1       3.632   6.538  18.709  0.00  0.00    +0.000 A 
ATOM     15  C   UNL     1       4.093   5.474  19.497  0.00  0.00    +0.000 A 
ATOM     16  C   UNL     1       5.253   4.768  19.168  0.00  0.00    +0.000 A 
ATOM     17  C   UNL     1       5.949   5.137  18.034  0.00  0.00    +0.000 A 
ATOM     18  N   UNL     1       5.569   6.145  17.231  0.00  0.00    +0.000 NA
ATOM     19  C   UNL     1       4.434   6.803  17.585  0.00  0.00    +0.000 A 
ENDBRANCH  11  14
ENDBRANCH   4   7
BRANCH   1  25
ATOM     20  C   UNL     1      -3.731  12.670  21.722  0.00  0.00    +0.000 A 
ATOM     21  C   UNL     1      -4.742  12.685  20.756  0.00  0.00    +0.000 A 
ATOM     22  C   UNL     1      -4.444  12.378  19.434  0.00  0.00    +0.000 A 
ATOM     23  C   UNL     1      -3.136  12.070  19.120  0.00  0.00    +0.000 A 
ATOM     24  N   UNL     1      -2.126  12.087  20.017  0.00  0.00    +0.000 NA
ATOM     25  C   UNL     1      -2.414  12.413  21.306  0.00  0.00    +0.000 A 
BRANCH  20  27
ATOM     26  C   UNL     1      -4.740  14.085  23.330  0.00  0.00    +0.000 C 
ATOM     27  O   UNL     1      -3.952  12.929  23.048  0.00  0.00    +0.000 OA
ENDBRANCH  20  27
ENDBRANCH   1  25
TORSDOF 4
ENDMDL
MODEL 8
REMARK VINA RESULT:      -6.7      2.270      3.420
REMARK  Name = 
REMARK  5 active torsions:
REMARK  status: ('A' for Active; 'I' for Inactive)
REMARK    1  A    between atoms: C_1  and  O_2
REMARK    2  A    between atoms: O_2  and  C_3
REMARK    3  A    between atoms: C_8  and  C_9
REMARK    4  A    between atoms: N_12  and  C_13
REMARK    5  A    between atoms: N_17  and  C_18
REMARK                            x       y       z     vdW  Elec       q    Type
REMARK                         _______ _______ _______ _____ _____    ______ ____
ROOT
ATOM      1  C   UNL     1       4.250   4.450  18.475  0.00  0.00    +0.000 C 
ATOM      2  C   UNL     1       3.281   4.976  17.407  0.00  0.00    +0.000 C 
ATOM      3  C   UNL     1       2.681   6.348  17.725  0.00  0.00    +0.000 C 
ATOM      4  N   UNL     1       2.181   6.525  19.098  0.00  0.00    +0.000 NA
ATOM      5  C   UNL     1       3.051   5.950  20.135  0.00  0.00    +0.000 C 
ATOM      6  C   UNL     1       3.549   4.538  19.832  0.00  0.00    +0.000 C 
ENDROOT
BRANCH   4   7
ATOM      7  C   UNL     1       1.850   7.949  19.425  0.00  0.00    +0.000 C 
ATOM      8  C   UNL     1       1.200   8.018  20.829  0.00  0.00    +0.000 C 
ATOM      9  C   UNL     1       1.157   9.419  21.450  0.00  0.00    +0.000 C 
ATOM     10  C   UNL     1       0.413  10.450  20.605  0.00  0.00    +0.000 C 
ATOM     11  N   UNL     1       1.245  10.859  19.472  0.00  0.00    +0.000 N 
ATOM     12  C   UNL     1       1.103  10.126  18.215  0.00  0.00    +0.000 C 
ATOM     13  C   UNL     1       0.927   8.617  18.373  0.00  0.00    +0.000 C 
BRANCH  11  14
ATOM     14  C   UNL     1       1.848  12.114  19.466  0.00  0.00    +0.000 A 
ATOM     15  C   UNL     1       2.452  12.647  18.319  0.00  0.00    +0.000 A 
ATOM     16  C   UNL     1       3.026  13.921  18.320  0.00  0.00    +0.000 A 
ATOM     17  C   UNL     1       2.987  14.660  19.485  0.00  0.00    +0.000 A 
ATOM     18  N   UNL     1       2.427  14.215  20.622  0.00  0.00    +0.000 NA
ATOM     19  C   UNL     1       1.876  12.974  20.578  0.00  0.00    +0.000 A 
ENDBRANCH  11  14
ENDBRANCH   4   7
BRANCH   1  25
ATOM     20  C   UNL     1       6.174   5.626  17.274  0.00  0.00    +0.000 A 
ATOM     21  C   UNL     1       7.389   6.313  17.343  0.00  0.00    +0.000 A 
ATOM     22  C   UNL     1       8.068   6.401  18.553  0.00  0.00    +0.000 A 
ATOM     23  C   UNL     1       7.502   5.800  19.658  0.00  0.00    +0.000 A 
ATOM     24  N   UNL     1       6.310   5.166  19.639  0.00  0.00    +0.000 NA
ATOM     25  C   UNL     1       5.633   5.102  18.460  0.00  0.00    +0.000 A 
BRANCH  20  27
ATOM     26  C   UNL     1       6.138   4.777  15.064  0.00  0.00    +0.000 C 
ATOM     27  O   UNL     1       5.463   5.468  16.114  0.00  0.00    +0.000 OA
ENDBRANCH  20  27
ENDBRANCH   1  25
TORSDOF 4
ENDMDL
MODEL 9
REMARK VINA RESULT:      -6.7      3.389      9.300
REMARK  Name = 
REMARK  5 active torsions:
REMARK  status: ('A' for Active; 'I' for Inactive)
REMARK    1  A    between atoms: C_1  and  O_2
REMARK    2  A    between atoms: O_2  and  C_3
REMARK    3  A    between atoms: C_8  and  C_9
REMARK    4  A    between atoms: N_12  and  C_13
REMARK    5  A    between atoms: N_17  and  C_18
REMARK                            x       y       z     vdW  Elec       q    Type
REMARK                         _______ _______ _______ _____ _____    ______ ____
ROOT
ATOM      1  C   UNL     1      -1.169  12.812  19.173  0.00  0.00    +0.000 C 
ATOM      2  C   UNL     1      -1.880  11.670  18.435  0.00  0.00    +0.000 C 
ATOM      3  C   UNL     1      -1.137  10.332  18.484  0.00  0.00    +0.000 C 
ATOM      4  N   UNL     1       0.306  10.392  18.203  0.00  0.00    +0.000 NA
ATOM      5  C   UNL     1       0.996  11.531  18.827  0.00  0.00    +0.000 C 
ATOM      6  C   UNL     1       0.276  12.870  18.671  0.00  0.00    +0.000 C 
ENDROOT
BRANCH   4   7
ATOM      7  C   UNL     1       1.021   9.113  18.517  0.00  0.00    +0.000 C 
ATOM      8  C   UNL     1       1.088   8.924  20.053  0.00  0.00    +0.000 C 
ATOM      9  C   UNL     1       1.443   7.506  20.511  0.00  0.00    +0.000 C 
ATOM     10  C   UNL     1       2.781   6.998  19.980  0.00  0.00    +0.000 C 
ATOM     11  N   UNL     1       2.647   6.626  18.570  0.00  0.00    +0.000 N 
ATOM     12  C   UNL     1       2.939   7.642  17.561  0.00  0.00    +0.000 C 
ATOM     13  C   UNL     1       2.445   9.045  17.906  0.00  0.00    +0.000 C 
BRANCH  11  14
ATOM     14  C   UNL     1       2.626   5.284  18.202  0.00  0.00    +0.000 A 
ATOM     15  C   UNL     1       3.786   4.596  17.820  0.00  0.00    +0.000 A 
ATOM     16  C   UNL     1       3.756   3.241  17.482  0.00  0.00    +0.000 A 
ATOM     17  C   UNL     1       2.548   2.576  17.534  0.00  0.00    +0.000 A 
ATOM     18  N   UNL     1       1.395   3.168  17.890  0.00  0.00    +0.000 NA
ATOM     19  C   UNL     1       1.469   4.485  18.214  0.00  0.00    +0.000 A 
ENDBRANCH  11  14
ENDBRANCH   4   7
BRANCH   1  25
ATOM     20  C   UNL     1      -1.517  13.926  21.445  0.00  0.00    +0.000 A 
ATOM     21  C   UNL     1      -1.728  13.801  22.822  0.00  0.00    +0.000 A 
ATOM     22  C   UNL     1      -1.632  12.554  23.428  0.00  0.00    +0.000 A 
ATOM     23  C   UNL     1      -1.331  11.468  22.632  0.00  0.00    +0.000 A 
ATOM     24  N   UNL     1      -1.163  11.543  21.294  0.00  0.00    +0.000 NA
ATOM     25  C   UNL     1      -1.283  12.760  20.697  0.00  0.00    +0.000 A 
BRANCH  20  27
ATOM     26  C   UNL     1      -1.986  16.243  21.556  0.00  0.00    +0.000 C 
ATOM     27  O   UNL     1      -1.562  15.123  20.782  0.00  0.00    +0.000 OA
ENDBRANCH  20  27
ENDBRANCH   1  25
TORSDOF 4
ENDMDL
