MODEL 1
REMARK VINA RESULT:      -7.7      0.000      0.000
REMARK  Name = 
REMARK  5 active torsions:
REMARK  status: ('A' for Active; 'I' for Inactive)
REMARK    1  A    between atoms: C_2  and  C_3
REMARK    2  A    between atoms: C_7  and  C_8
REMARK    3  A    between atoms: N_10  and  C_11
REMARK    4  A    between atoms: C_11  and  C_12
REMARK    5  A    between atoms: C_24  and  C_26
REMARK                            x       y       z     vdW  Elec       q    Type
REMARK                         _______ _______ _______ _____ _____    ______ ____
ROOT
ATOM      1  C   UNL     1      -1.337  11.070  18.874  0.00  0.00    +0.000 A 
ATOM      2  N   UNL     1      -0.867   9.884  19.313  0.00  0.00    +0.000 NA
ATOM      3  N   UNL     1       0.110  10.188  20.199  0.00  0.00    +0.000 N 
ATOM      4  C   UNL     1       0.256  11.530  20.359  0.00  0.00    +0.000 A 
ATOM      5  C   UNL     1      -0.640  12.147  19.507  0.00  0.00    +0.000 A 
ATOM      6  C   UNL     1      -0.803  13.638  19.430  0.00  0.00    +0.000 C 
ATOM      7  N   UNL     1       0.232  14.298  20.250  0.00  0.00    +0.000 N 
ATOM      8  C   UNL     1       0.952  15.436  19.880  0.00  0.00    +0.000 C 
ATOM      9  O   UNL     1       1.787  15.918  20.660  0.00  0.00    +0.000 OA
ATOM     10  C   UNL     1       0.564  13.649  21.535  0.00  0.00    +0.000 C 
ATOM     11  C   UNL     1       1.167  12.251  21.290  0.00  0.00    +0.000 C 
ENDROOT
BRANCH   1  16
ATOM     12  C   UNL     1      -3.355  10.644  15.699  0.00  0.00    +0.000 A 
ATOM     13  C   UNL     1      -4.596  11.162  16.085  0.00  0.00    +0.000 A 
ATOM     14  C   UNL     1      -4.761  11.682  17.367  0.00  0.00    +0.000 A 
ATOM     15  C   UNL     1      -3.691  11.674  18.266  0.00  0.00    +0.000 A 
ATOM     16  C   UNL     1      -2.446  11.128  17.912  0.00  0.00    +0.000 A 
ATOM     17  C   UNL     1      -2.288  10.624  16.609  0.00  0.00    +0.000 A 
BRANCH  12  19
ATOM     18  N   UNL     1      -3.047   9.729  13.287  0.00  0.00    +0.000 NA
ATOM     19  C   UNL     1      -3.178  10.129  14.370  0.00  0.00    +0.000 C 
ENDBRANCH  12  19
ENDBRANCH   1  16
BRANCH   8  20
ATOM     20  C   UNL     1       0.725  16.058  18.474  0.00  0.00    +0.000 C 
ATOM     21  C   UNL     1      -0.378  17.130  18.278  0.00  0.00    +0.000 C 
ATOM     22  C   UNL     1       0.612  17.974  17.459  0.00  0.00    +0.000 C 
ATOM     23  C   UNL     1       1.756  17.152  18.055  0.00  0.00    +0.000 C 
ENDBRANCH   8  20
BRANCH   3  24
ATOM     24  C   UNL     1       0.882   9.124  20.842  0.00  0.00    +0.000 C 
BRANCH  24  25
ATOM     25  C   UNL     1       1.712   8.351  19.847  0.00  0.00    +0.000 A 
ATOM     26  C   UNL     1       2.139   8.941  18.647  0.00  0.00    +0.000 A 
ATOM     27  C   UNL     1       2.818   8.183  17.691  0.00  0.00    +0.000 A 
ATOM     28  C   UNL     1       3.089   6.840  17.939  0.00  0.00    +0.000 A 
ATOM     29  F   UNL     1       3.698   6.106  17.001  0.00  0.00    +0.000 F 
ATOM     30  C   UNL     1       2.727   6.250  19.142  0.00  0.00    +0.000 A 
ATOM     31  C   UNL     1       2.050   7.013  20.086  0.00  0.00    +0.000 A 
ATOM     32  F   UNL     1       1.696   6.434  21.243  0.00  0.00    +0.000 F 
ENDBRANCH  24  25
ENDBRANCH   3  24
TORSDOF 5
ENDMDL
MODEL 2
REMARK VINA RESULT:      -7.6      1.177      1.620
REMARK  Name = 
REMARK  5 active torsions:
REMARK  status: ('A' for Active; 'I' for Inactive)
REMARK    1  A    between atoms: C_2  and  C_3
REMARK    2  A    between atoms: C_7  and  C_8
REMARK    3  A    between atoms: N_10  and  C_11
REMARK    4  A    between atoms: C_11  and  C_12
REMARK    5  A    between atoms: C_24  and  C_26
REMARK                            x       y       z     vdW  Elec       q    Type
REMARK                         _______ _______ _______ _____ _____    ______ ____
ROOT
ATOM      1  C   UNL     1      -1.254  10.727  18.701  0.00  0.00    +0.000 A 
ATOM      2  N   UNL     1      -0.733   9.562  19.137  0.00  0.00    +0.000 NA
ATOM      3  N   UNL     1       0.156   9.902  20.100  0.00  0.00    +0.000 N 
ATOM      4  C   UNL     1       0.195  11.245  20.310  0.00  0.00    +0.000 A 
ATOM      5  C   UNL     1      -0.681  11.827  19.414  0.00  0.00    +0.000 A 
ATOM      6  C   UNL     1      -0.942  13.306  19.370  0.00  0.00    +0.000 C 
ATOM      7  N   UNL     1      -0.017  14.006  20.281  0.00  0.00    +0.000 N 
ATOM      8  C   UNL     1       0.644  15.203  19.998  0.00  0.00    +0.000 C 
ATOM      9  O   UNL     1       1.387  15.714  20.850  0.00  0.00    +0.000 OA
ATOM     10  C   UNL     1       0.269  13.337  21.567  0.00  0.00    +0.000 C 
ATOM     11  C   UNL     1       0.986  11.994  21.325  0.00  0.00    +0.000 C 
ENDROOT
BRANCH   1  16
ATOM     12  C   UNL     1      -4.464  11.513  16.853  0.00  0.00    +0.000 A 
ATOM     13  C   UNL     1      -4.260  10.841  15.642  0.00  0.00    +0.000 A 
ATOM     14  C   UNL     1      -3.094  10.104  15.447  0.00  0.00    +0.000 A 
ATOM     15  C   UNL     1      -2.127  10.047  16.454  0.00  0.00    +0.000 A 
ATOM     16  C   UNL     1      -2.294  10.742  17.663  0.00  0.00    +0.000 A 
ATOM     17  C   UNL     1      -3.484  11.466  17.855  0.00  0.00    +0.000 A 
BRANCH  12  19
ATOM     18  N   UNL     1      -6.660  12.853  17.214  0.00  0.00    +0.000 NA
ATOM     19  C   UNL     1      -5.676  12.253  17.064  0.00  0.00    +0.000 C 
ENDBRANCH  12  19
ENDBRANCH   1  16
BRANCH   8  20
ATOM     20  C   UNL     1       0.473  15.856  18.598  0.00  0.00    +0.000 C 
ATOM     21  C   UNL     1      -0.638  16.914  18.376  0.00  0.00    +0.000 C 
ATOM     22  C   UNL     1       0.374  17.795  17.625  0.00  0.00    +0.000 C 
ATOM     23  C   UNL     1       1.503  16.976  18.255  0.00  0.00    +0.000 C 
ENDBRANCH   8  20
BRANCH   3  24
ATOM     24  C   UNL     1       0.955   8.871  20.766  0.00  0.00    +0.000 C 
BRANCH  24  25
ATOM     25  C   UNL     1       1.803   8.098  19.787  0.00  0.00    +0.000 A 
ATOM     26  C   UNL     1       2.287   8.700  18.614  0.00  0.00    +0.000 A 
ATOM     27  C   UNL     1       2.984   7.944  17.671  0.00  0.00    +0.000 A 
ATOM     28  C   UNL     1       3.216   6.591  17.903  0.00  0.00    +0.000 A 
ATOM     29  F   UNL     1       3.843   5.861  16.973  0.00  0.00    +0.000 F 
ATOM     30  C   UNL     1       2.797   5.987  19.079  0.00  0.00    +0.000 A 
ATOM     31  C   UNL     1       2.103   6.749  20.013  0.00  0.00    +0.000 A 
ATOM     32  F   UNL     1       1.694   6.157  21.145  0.00  0.00    +0.000 F 
ENDBRANCH  24  25
ENDBRANCH   3  24
TORSDOF 5
ENDMDL
MODEL 3
REMARK VINA RESULT:      -7.4      1.094      1.388
REMARK  Name = 
REMARK  5 active torsions:
REMARK  status: ('A' for Active; 'I' for Inactive)
REMARK    1  A    between atoms: C_2  and  C_3
REMARK    2  A    between atoms: C_7  and  C_8
REMARK    3  A    between atoms: N_10  and  C_11
REMARK    4  A    between atoms: C_11  and  C_12
REMARK    5  A    between atoms: C_24  and  C_26
REMARK                            x       y       z     vdW  Elec       q    Type
REMARK                         _______ _______ _______ _____ _____    ______ ____
ROOT
ATOM      1  C   UNL     1      -1.347  11.564  19.208  0.00  0.00    +0.000 A 
ATOM      2  N   UNL     1      -0.777  10.443  19.695  0.00  0.00    +0.000 NA
ATOM      3  N   UNL     1       0.256  10.866  20.460  0.00  0.00    +0.000 N 
ATOM      4  C   UNL     1       0.344  12.222  20.498  0.00  0.00    +0.000 A 
ATOM      5  C   UNL     1      -0.656  12.722  19.685  0.00  0.00    +0.000 A 
ATOM      6  C   UNL     1      -0.903  14.192  19.504  0.00  0.00    +0.000 C 
ATOM      7  N   UNL     1       0.162  14.966  20.169  0.00  0.00    +0.000 N 
ATOM      8  C   UNL     1       0.785  16.101  19.644  0.00  0.00    +0.000 C 
ATOM      9  O   UNL     1       1.658  16.685  20.302  0.00  0.00    +0.000 OA
ATOM     10  C   UNL     1       0.640  14.444  21.466  0.00  0.00    +0.000 C 
ATOM     11  C   UNL     1       1.294  13.061  21.280  0.00  0.00    +0.000 C 
ENDROOT
BRANCH   1  16
ATOM     12  C   UNL     1      -3.577  10.912  16.219  0.00  0.00    +0.000 A 
ATOM     13  C   UNL     1      -4.833  11.265  16.725  0.00  0.00    +0.000 A 
ATOM     14  C   UNL     1      -4.944  11.748  18.027  0.00  0.00    +0.000 A 
ATOM     15  C   UNL     1      -3.804  11.870  18.826  0.00  0.00    +0.000 A 
ATOM     16  C   UNL     1      -2.538  11.488  18.351  0.00  0.00    +0.000 A 
ATOM     17  C   UNL     1      -2.438  11.020  17.029  0.00  0.00    +0.000 A 
BRANCH  12  19
ATOM     18  N   UNL     1      -3.376  10.034  13.782  0.00  0.00    +0.000 NA
ATOM     19  C   UNL     1      -3.459  10.436  14.869  0.00  0.00    +0.000 C 
ENDBRANCH  12  19
ENDBRANCH   1  16
BRANCH   8  20
ATOM     20  C   UNL     1       0.402  16.590  18.219  0.00  0.00    +0.000 C 
ATOM     21  C   UNL     1      -0.733  17.631  18.045  0.00  0.00    +0.000 C 
ATOM     22  C   UNL     1       0.151  18.404  17.052  0.00  0.00    +0.000 C 
ATOM     23  C   UNL     1       1.365  17.648  17.597  0.00  0.00    +0.000 C 
ENDBRANCH   8  20
BRANCH   3  24
ATOM     24  C   UNL     1       1.138   9.897  21.113  0.00  0.00    +0.000 C 
BRANCH  24  25
ATOM     25  C   UNL     1       1.547   8.787  20.176  0.00  0.00    +0.000 A 
ATOM     26  C   UNL     1       1.560   7.449  20.600  0.00  0.00    +0.000 A 
ATOM     27  C   UNL     1       2.038   6.447  19.754  0.00  0.00    +0.000 A 
ATOM     28  C   UNL     1       2.485   6.775  18.477  0.00  0.00    +0.000 A 
ATOM     29  F   UNL     1       2.986   5.817  17.687  0.00  0.00    +0.000 F 
ATOM     30  C   UNL     1       2.428   8.082  18.015  0.00  0.00    +0.000 A 
ATOM     31  C   UNL     1       1.952   9.073  18.866  0.00  0.00    +0.000 A 
ATOM     32  F   UNL     1       1.908  10.335  18.416  0.00  0.00    +0.000 F 
ENDBRANCH  24  25
ENDBRANCH   3  24
TORSDOF 5
ENDMDL
MODEL 4
REMARK VINA RESULT:      -7.4      1.412      1.994
REMARK  Name = 
REMARK  5 active torsions:
REMARK  status: ('A' for Active; 'I' for Inactive)
REMARK    1  A    between atoms: C_2  and  C_3
REMARK    2  A    between atoms: C_7  and  C_8
REMARK    3  A    between atoms: N_10  and  C_11
REMARK    4  A    between atoms: C_11  and  C_12
REMARK    5  A    between atoms: C_24  and  C_26
REMARK                            x       y       z     vdW  Elec       q    Type
REMARK                         _______ _______ _______ _____ _____    ______ ____
ROOT
ATOM      1  C   UNL     1      -1.179  10.867  18.845  0.00  0.00    +0.000 A 
ATOM      2  N   UNL     1      -0.606   9.747  19.332  0.00  0.00    +0.000 NA
ATOM      3  N   UNL     1       0.260  10.169  20.283  0.00  0.00    +0.000 N 
ATOM      4  C   UNL     1       0.234  11.520  20.436  0.00  0.00    +0.000 A 
ATOM      5  C   UNL     1      -0.663  12.022  19.512  0.00  0.00    +0.000 A 
ATOM      6  C   UNL     1      -0.995  13.483  19.405  0.00  0.00    +0.000 C 
ATOM      7  N   UNL     1      -0.109  14.264  20.289  0.00  0.00    +0.000 N 
ATOM      8  C   UNL     1       0.497  15.478  19.958  0.00  0.00    +0.000 C 
ATOM      9  O   UNL     1       1.209  16.059  20.790  0.00  0.00    +0.000 OA
ATOM     10  C   UNL     1       0.201  13.664  21.603  0.00  0.00    +0.000 C 
ATOM     11  C   UNL     1       0.982  12.348  21.422  0.00  0.00    +0.000 C 
ENDROOT
BRANCH   1  16
ATOM     12  C   UNL     1      -4.388  11.462  16.926  0.00  0.00    +0.000 A 
ATOM     13  C   UNL     1      -4.167  10.705  15.770  0.00  0.00    +0.000 A 
ATOM     14  C   UNL     1      -2.989   9.975  15.636  0.00  0.00    +0.000 A 
ATOM     15  C   UNL     1      -2.027  10.007  16.650  0.00  0.00    +0.000 A 
ATOM     16  C   UNL     1      -2.213  10.788  17.803  0.00  0.00    +0.000 A 
ATOM     17  C   UNL     1      -3.415  11.505  17.934  0.00  0.00    +0.000 A 
BRANCH  12  19
ATOM     18  N   UNL     1      -6.606  12.793  17.174  0.00  0.00    +0.000 NA
ATOM     19  C   UNL     1      -5.613  12.197  17.075  0.00  0.00    +0.000 C 
ENDBRANCH  12  19
ENDBRANCH   1  16
BRANCH   8  20
ATOM     20  C   UNL     1       0.302  16.063  18.532  0.00  0.00    +0.000 C 
ATOM     21  C   UNL     1      -0.790  17.134  18.283  0.00  0.00    +0.000 C 
ATOM     22  C   UNL     1       0.220  17.951  17.462  0.00  0.00    +0.000 C 
ATOM     23  C   UNL     1       1.347  17.140  18.105  0.00  0.00    +0.000 C 
ENDBRANCH   8  20
BRANCH   3  24
ATOM     24  C   UNL     1       1.103   9.207  20.995  0.00  0.00    +0.000 C 
BRANCH  24  25
ATOM     25  C   UNL     1       1.640   8.140  20.073  0.00  0.00    +0.000 A 
ATOM     26  C   UNL     1       1.614   6.785  20.440  0.00  0.00    +0.000 A 
ATOM     27  C   UNL     1       2.207   5.822  19.622  0.00  0.00    +0.000 A 
ATOM     28  C   UNL     1       2.810   6.205  18.428  0.00  0.00    +0.000 A 
ATOM     29  F   UNL     1       3.417   5.284  17.670  0.00  0.00    +0.000 F 
ATOM     30  C   UNL     1       2.798   7.530  18.016  0.00  0.00    +0.000 A 
ATOM     31  C   UNL     1       2.206   8.482  18.838  0.00  0.00    +0.000 A 
ATOM     32  F   UNL     1       2.206   9.762  18.438  0.00  0.00    +0.000 F 
ENDBRANCH  24  25
ENDBRANCH   3  24
TORSDOF 5
ENDMDL
MODEL 5
REMARK VINA RESULT:      -7.4      2.365      3.015
REMARK  Name = 
REMARK  5 active torsions:
REMARK  status: ('A' for Active; 'I' for Inactive)
REMARK    1  A    between atoms: C_2  and  C_3
REMARK    2  A    between atoms: C_7  and  C_8
REMARK    3  A    between atoms: N_10  and  C_11
REMARK    4  A    between atoms: C_11  and  C_12
REMARK    5  A    between atoms: C_24  and  C_26
REMARK                            x       y       z     vdW  Elec       q    Type
REMARK                         _______ _______ _______ _____ _____    ______ ____
ROOT
ATOM      1  C   UNL     1      -0.929  10.264  18.243  0.00  0.00    +0.000 A 
ATOM      2  N   UNL     1       0.168   9.549  17.919  0.00  0.00    +0.000 NA
ATOM      3  N   UNL     1       0.973   9.610  19.006  0.00  0.00    +0.000 N 
ATOM      4  C   UNL     1       0.410  10.317  20.021  0.00  0.00    +0.000 A 
ATOM      5  C   UNL     1      -0.811  10.783  19.571  0.00  0.00    +0.000 A 
ATOM      6  C   UNL     1      -1.751  11.578  20.432  0.00  0.00    +0.000 C 
ATOM      7  N   UNL     1      -1.099  11.908  21.713  0.00  0.00    +0.000 N 
ATOM      8  C   UNL     1      -1.173  13.143  22.363  0.00  0.00    +0.000 C 
ATOM      9  O   UNL     1      -0.598  13.302  23.450  0.00  0.00    +0.000 OA
ATOM     10  C   UNL     1      -0.252  10.855  22.309  0.00  0.00    +0.000 C 
ATOM     11  C   UNL     1       0.947  10.546  21.391  0.00  0.00    +0.000 C 
ENDROOT
BRANCH   1  16
ATOM     12  C   UNL     1      -4.236  11.304  16.720  0.00  0.00    +0.000 A 
ATOM     13  C   UNL     1      -4.166  10.698  15.461  0.00  0.00    +0.000 A 
ATOM     14  C   UNL     1      -3.059   9.921  15.127  0.00  0.00    +0.000 A 
ATOM     15  C   UNL     1      -2.017   9.760  16.043  0.00  0.00    +0.000 A 
ATOM     16  C   UNL     1      -2.049  10.388  17.300  0.00  0.00    +0.000 A 
ATOM     17  C   UNL     1      -3.181  11.153  17.632  0.00  0.00    +0.000 A 
BRANCH  12  19
ATOM     18  N   UNL     1      -6.320  12.707  17.382  0.00  0.00    +0.000 NA
ATOM     19  C   UNL     1      -5.387  12.085  17.075  0.00  0.00    +0.000 C 
ENDBRANCH  12  19
ENDBRANCH   1  16
BRANCH   8  20
ATOM     20  C   UNL     1      -1.940  14.314  21.689  0.00  0.00    +0.000 C 
ATOM     21  C   UNL     1      -2.063  15.673  22.422  0.00  0.00    +0.000 C 
ATOM     22  C   UNL     1      -1.705  16.395  21.113  0.00  0.00    +0.000 C 
ATOM     23  C   UNL     1      -1.153  15.073  20.576  0.00  0.00    +0.000 C 
ENDBRANCH   8  20
BRANCH   3  24
ATOM     24  C   UNL     1       2.292   8.975  18.985  0.00  0.00    +0.000 C 
BRANCH  24  25
ATOM     25  C   UNL     1       2.197   7.475  19.114  0.00  0.00    +0.000 A 
ATOM     26  C   UNL     1       2.439   6.637  18.014  0.00  0.00    +0.000 A 
ATOM     27  C   UNL     1       2.248   5.258  18.123  0.00  0.00    +0.000 A 
ATOM     28  C   UNL     1       1.832   4.712  19.334  0.00  0.00    +0.000 A 
ATOM     29  F   UNL     1       1.605   3.396  19.419  0.00  0.00    +0.000 F 
ATOM     30  C   UNL     1       1.641   5.513  20.450  0.00  0.00    +0.000 A 
ATOM     31  C   UNL     1       1.833   6.885  20.331  0.00  0.00    +0.000 A 
ATOM     32  F   UNL     1       1.639   7.654  21.412  0.00  0.00    +0.000 F 
ENDBRANCH  24  25
ENDBRANCH   3  24
TORSDOF 5
ENDMDL
MODEL 6
REMARK VINA RESULT:      -7.3      2.691      3.369
REMARK  Name = 
REMARK  5 active torsions:
REMARK  status: ('A' for Active; 'I' for Inactive)
REMARK    1  A    between atoms: C_2  and  C_3
REMARK    2  A    between atoms: C_7  and  C_8
REMARK    3  A    between atoms: N_10  and  C_11
REMARK    4  A    between atoms: C_11  and  C_12
REMARK    5  A    between atoms: C_24  and  C_26
REMARK                            x       y       z     vdW  Elec       q    Type
REMARK                         _______ _______ _______ _____ _____    ______ ____
ROOT
ATOM      1  C   UNL     1      -0.949  10.301  18.237  0.00  0.00    +0.000 A 
ATOM      2  N   UNL     1       0.147   9.595  17.893  0.00  0.00    +0.000 NA
ATOM      3  N   UNL     1       0.964   9.648  18.971  0.00  0.00    +0.000 N 
ATOM      4  C   UNL     1       0.409  10.342  20.001  0.00  0.00    +0.000 A 
ATOM      5  C   UNL     1      -0.819  10.806  19.569  0.00  0.00    +0.000 A 
ATOM      6  C   UNL     1      -1.753  11.588  20.449  0.00  0.00    +0.000 C 
ATOM      7  N   UNL     1      -1.088  11.907  21.726  0.00  0.00    +0.000 N 
ATOM      8  C   UNL     1      -1.161  13.134  22.390  0.00  0.00    +0.000 C 
ATOM      9  O   UNL     1      -0.575  13.285  23.472  0.00  0.00    +0.000 OA
ATOM     10  C   UNL     1      -0.230  10.852  22.302  0.00  0.00    +0.000 C 
ATOM     11  C   UNL     1       0.960  10.558  21.367  0.00  0.00    +0.000 C 
ENDROOT
BRANCH   1  16
ATOM     12  C   UNL     1      -4.259  11.376  16.744  0.00  0.00    +0.000 A 
ATOM     13  C   UNL     1      -4.218  10.748  15.494  0.00  0.00    +0.000 A 
ATOM     14  C   UNL     1      -3.129   9.947  15.157  0.00  0.00    +0.000 A 
ATOM     15  C   UNL     1      -2.077   9.782  16.061  0.00  0.00    +0.000 A 
ATOM     16  C   UNL     1      -2.080  10.431  17.307  0.00  0.00    +0.000 A 
ATOM     17  C   UNL     1      -3.194  11.220  17.643  0.00  0.00    +0.000 A 
BRANCH  12  19
ATOM     18  N   UNL     1      -6.296  12.852  17.392  0.00  0.00    +0.000 NA
ATOM     19  C   UNL     1      -5.392  12.182  17.102  0.00  0.00    +0.000 C 
ENDBRANCH  12  19
ENDBRANCH   1  16
BRANCH   8  20
ATOM     20  C   UNL     1      -1.941  14.309  21.737  0.00  0.00    +0.000 C 
ATOM     21  C   UNL     1      -3.451  14.486  22.034  0.00  0.00    +0.000 C 
ATOM     22  C   UNL     1      -3.219  15.991  22.239  0.00  0.00    +0.000 C 
ATOM     23  C   UNL     1      -1.725  15.704  22.402  0.00  0.00    +0.000 C 
ENDBRANCH   8  20
BRANCH   3  24
ATOM     24  C   UNL     1       2.286   9.020  18.930  0.00  0.00    +0.000 C 
BRANCH  24  25
ATOM     25  C   UNL     1       2.212   7.535  19.186  0.00  0.00    +0.000 A 
ATOM     26  C   UNL     1       1.653   7.032  20.372  0.00  0.00    +0.000 A 
ATOM     27  C   UNL     1       1.684   5.663  20.640  0.00  0.00    +0.000 A 
ATOM     28  C   UNL     1       2.255   4.791  19.717  0.00  0.00    +0.000 A 
ATOM     29  F   UNL     1       2.324   3.484  20.000  0.00  0.00    +0.000 F 
ATOM     30  C   UNL     1       2.761   5.258  18.513  0.00  0.00    +0.000 A 
ATOM     31  C   UNL     1       2.727   6.624  18.256  0.00  0.00    +0.000 A 
ATOM     32  F   UNL     1       3.225   7.069  17.094  0.00  0.00    +0.000 F 
ENDBRANCH  24  25
ENDBRANCH   3  24
TORSDOF 5
ENDMDL
MODEL 7
REMARK VINA RESULT:      -7.2      1.598      2.728
REMARK  Name = 
REMARK  5 active torsions:
REMARK  status: ('A' for Active; 'I' for Inactive)
REMARK    1  A    between atoms: C_2  and  C_3
REMARK    2  A    between atoms: C_7  and  C_8
REMARK    3  A    between atoms: N_10  and  C_11
REMARK    4  A    between atoms: C_11  and  C_12
REMARK    5  A    between atoms: C_24  and  C_26
REMARK                            x       y       z     vdW  Elec       q    Type
REMARK                         _______ _______ _______ _____ _____    ______ ____
ROOT
ATOM      1  C   UNL     1      -0.900  11.274  18.027  0.00  0.00    +0.000 A 
ATOM      2  N   UNL     1      -0.100  10.203  17.846  0.00  0.00    +0.000 NA
ATOM      3  N   UNL     1       1.132  10.603  18.240  0.00  0.00    +0.000 N 
ATOM      4  C   UNL     1       1.134  11.885  18.693  0.00  0.00    +0.000 A 
ATOM      5  C   UNL     1      -0.152  12.373  18.554  0.00  0.00    +0.000 A 
ATOM      6  C   UNL     1      -0.554  13.753  18.988  0.00  0.00    +0.000 C 
ATOM      7  N   UNL     1       0.640  14.516  19.401  0.00  0.00    +0.000 N 
ATOM      8  C   UNL     1       0.892  15.854  19.088  0.00  0.00    +0.000 C 
ATOM      9  O   UNL     1       1.922  16.402  19.507  0.00  0.00    +0.000 OA
ATOM     10  C   UNL     1       1.669  13.769  20.151  0.00  0.00    +0.000 C 
ATOM     11  C   UNL     1       2.270  12.653  19.273  0.00  0.00    +0.000 C 
ENDROOT
BRANCH   1  16
ATOM     12  C   UNL     1      -4.659  11.508  18.417  0.00  0.00    +0.000 A 
ATOM     13  C   UNL     1      -5.096  11.120  17.146  0.00  0.00    +0.000 A 
ATOM     14  C   UNL     1      -4.167  10.749  16.177  0.00  0.00    +0.000 A 
ATOM     15  C   UNL     1      -2.801  10.775  16.473  0.00  0.00    +0.000 A 
ATOM     16  C   UNL     1      -2.338  11.194  17.732  0.00  0.00    +0.000 A 
ATOM     17  C   UNL     1      -3.288  11.547  18.706  0.00  0.00    +0.000 A 
BRANCH  12  19
ATOM     18  N   UNL     1      -6.404  12.140  20.235  0.00  0.00    +0.000 NA
ATOM     19  C   UNL     1      -5.618  11.868  19.423  0.00  0.00    +0.000 C 
ENDBRANCH  12  19
ENDBRANCH   1  16
BRANCH   8  20
ATOM     20  C   UNL     1      -0.106  16.626  18.180  0.00  0.00    +0.000 C 
ATOM     21  C   UNL     1      -1.158  17.566  18.822  0.00  0.00    +0.000 C 
ATOM     22  C   UNL     1      -0.828  18.631  17.763  0.00  0.00    +0.000 C 
ATOM     23  C   UNL     1       0.477  17.886  17.470  0.00  0.00    +0.000 C 
ENDBRANCH   8  20
BRANCH   3  24
ATOM     24  C   UNL     1       2.274   9.694  18.130  0.00  0.00    +0.000 C 
BRANCH  24  25
ATOM     25  C   UNL     1       2.073   8.437  18.940  0.00  0.00    +0.000 A 
ATOM     26  C   UNL     1       1.400   8.469  20.172  0.00  0.00    +0.000 A 
ATOM     27  C   UNL     1       1.312   7.318  20.957  0.00  0.00    +0.000 A 
ATOM     28  C   UNL     1       1.877   6.129  20.506  0.00  0.00    +0.000 A 
ATOM     29  F   UNL     1       1.830   5.040  21.283  0.00  0.00    +0.000 F 
ATOM     30  C   UNL     1       2.497   6.058  19.267  0.00  0.00    +0.000 A 
ATOM     31  C   UNL     1       2.581   7.211  18.493  0.00  0.00    +0.000 A 
ATOM     32  F   UNL     1       3.189   7.138  17.300  0.00  0.00    +0.000 F 
ENDBRANCH  24  25
ENDBRANCH   3  24
TORSDOF 5
ENDMDL
MODEL 8
REMARK VINA RESULT:      -7.2      5.314      9.199
REMARK  Name = 
REMARK  5 active torsions:
REMARK  status: ('A' for Active; 'I' for Inactive)
REMARK    1  A    between atoms: C_2  and  C_3
REMARK    2  A    between atoms: C_7  and  C_8
REMARK    3  A    between atoms: N_10  and  C_11
REMARK    4  A    between atoms: C_11  and  C_12
REMARK    5  A    between atoms: C_24  and  C_26
REMARK                            x       y       z     vdW  Elec       q    Type
REMARK                         _______ _______ _______ _____ _____    ______ ____
ROOT
ATOM      1  C   UNL     1       3.285   7.196  17.987  0.00  0.00    +0.000 A 
ATOM      2  N   UNL     1       4.438   7.723  17.527  0.00  0.00    +0.000 NA
ATOM      3  N   UNL     1       5.175   6.668  17.106  0.00  0.00    +0.000 N 
ATOM      4  C   UNL     1       4.516   5.489  17.259  0.00  0.00    +0.000 A 
ATOM      5  C   UNL     1       3.297   5.772  17.846  0.00  0.00    +0.000 A 
ATOM      6  C   UNL     1       2.265   4.720  18.137  0.00  0.00    +0.000 C 
ATOM      7  N   UNL     1       2.823   3.382  17.864  0.00  0.00    +0.000 N 
ATOM      8  C   UNL     1       2.641   2.252  18.665  0.00  0.00    +0.000 C 
ATOM      9  O   UNL     1       3.142   1.169  18.326  0.00  0.00    +0.000 OA
ATOM     10  C   UNL     1       3.694   3.264  16.677  0.00  0.00    +0.000 C 
ATOM     11  C   UNL     1       4.959   4.127  16.852  0.00  0.00    +0.000 C 
ENDROOT
BRANCH   1  16
ATOM     12  C   UNL     1       0.953   8.986  20.373  0.00  0.00    +0.000 A 
ATOM     13  C   UNL     1       0.218   9.789  19.494  0.00  0.00    +0.000 A 
ATOM     14  C   UNL     1       0.459   9.717  18.124  0.00  0.00    +0.000 A 
ATOM     15  C   UNL     1       1.441   8.853  17.632  0.00  0.00    +0.000 A 
ATOM     16  C   UNL     1       2.215   8.064  18.498  0.00  0.00    +0.000 A 
ATOM     17  C   UNL     1       1.949   8.131  19.877  0.00  0.00    +0.000 A 
BRANCH  12  19
ATOM     18  N   UNL     1       0.468   9.107  22.922  0.00  0.00    +0.000 NA
ATOM     19  C   UNL     1       0.689   9.041  21.783  0.00  0.00    +0.000 C 
ENDBRANCH  12  19
ENDBRANCH   1  16
BRANCH   8  20
ATOM     20  C   UNL     1       1.847   2.379  19.994  0.00  0.00    +0.000 C 
ATOM     21  C   UNL     1       2.594   2.740  21.303  0.00  0.00    +0.000 C 
ATOM     22  C   UNL     1       1.487   3.753  21.637  0.00  0.00    +0.000 C 
ATOM     23  C   UNL     1       1.052   3.710  20.171  0.00  0.00    +0.000 C 
ENDBRANCH   8  20
BRANCH   3  24
ATOM     24  C   UNL     1       6.528   6.871  16.585  0.00  0.00    +0.000 C 
BRANCH  24  25
ATOM     25  C   UNL     1       7.334   7.801  17.459  0.00  0.00    +0.000 A 
ATOM     26  C   UNL     1       7.363   9.183  17.213  0.00  0.00    +0.000 A 
ATOM     27  C   UNL     1       8.193  10.015  17.967  0.00  0.00    +0.000 A 
ATOM     28  C   UNL     1       8.980   9.474  18.978  0.00  0.00    +0.000 A 
ATOM     29  F   UNL     1       9.808  10.269  19.666  0.00  0.00    +0.000 F 
ATOM     30  C   UNL     1       8.925   8.120  19.278  0.00  0.00    +0.000 A 
ATOM     31  C   UNL     1       8.097   7.299  18.521  0.00  0.00    +0.000 A 
ATOM     32  F   UNL     1       8.055   5.990  18.811  0.00  0.00    +0.000 F 
ENDBRANCH  24  25
ENDBRANCH   3  24
TORSDOF 5
ENDMDL
MODEL 9
REMARK VINA RESULT:      -7.1      1.073      1.856
REMARK  Name = 
REMARK  5 active torsions:
REMARK  status: ('A' for Active; 'I' for Inactive)
REMARK    1  A    between atoms: C_2  and  C_3
REMARK    2  A    between atoms: C_7  and  C_8
REMARK    3  A    between atoms: N_10  and  C_11
REMARK    4  A    between atoms: C_11  and  C_12
REMARK    5  A    between atoms: C_24  and  C_26
REMARK                            x       y       z     vdW  Elec       q    Type
REMARK                         _______ _______ _______ _____ _____    ______ ____
ROOT
ATOM      1  C   UNL     1      -0.794  11.140  17.944  0.00  0.00    +0.000 A 
ATOM      2  N   UNL     1       0.060  10.102  17.837  0.00  0.00    +0.000 NA
ATOM      3  N   UNL     1       1.204  10.512  18.432  0.00  0.00    +0.000 N 
ATOM      4  C   UNL     1       1.095  11.769  18.940  0.00  0.00    +0.000 A 
ATOM      5  C   UNL     1      -0.171  12.229  18.629  0.00  0.00    +0.000 A 
ATOM      6  C   UNL     1      -0.680  13.575  19.062  0.00  0.00    +0.000 C 
ATOM      7  N   UNL     1       0.411  14.346  19.688  0.00  0.00    +0.000 N 
ATOM      8  C   UNL     1       0.661  15.705  19.481  0.00  0.00    +0.000 C 
ATOM      9  O   UNL     1       1.598  16.257  20.077  0.00  0.00    +0.000 OA
ATOM     10  C   UNL     1       1.340  13.588  20.550  0.00  0.00    +0.000 C 
ATOM     11  C   UNL     1       2.103  12.536  19.722  0.00  0.00    +0.000 C 
ENDROOT
BRANCH   1  16
ATOM     12  C   UNL     1      -3.712  10.533  15.609  0.00  0.00    +0.000 A 
ATOM     13  C   UNL     1      -4.801  10.761  16.458  0.00  0.00    +0.000 A 
ATOM     14  C   UNL     1      -4.581  11.148  17.778  0.00  0.00    +0.000 A 
ATOM     15  C   UNL     1      -3.275  11.296  18.254  0.00  0.00    +0.000 A 
ATOM     16  C   UNL     1      -2.167  11.038  17.429  0.00  0.00    +0.000 A 
ATOM     17  C   UNL     1      -2.403  10.667  16.094  0.00  0.00    +0.000 A 
BRANCH  12  19
ATOM     18  N   UNL     1      -4.117   9.873  13.129  0.00  0.00    +0.000 NA
ATOM     19  C   UNL     1      -3.939  10.157  14.242  0.00  0.00    +0.000 C 
ENDBRANCH  12  19
ENDBRANCH   1  16
BRANCH   8  20
ATOM     20  C   UNL     1      -0.213  16.496  18.469  0.00  0.00    +0.000 C 
ATOM     21  C   UNL     1      -1.301  17.468  18.991  0.00  0.00    +0.000 C 
ATOM     22  C   UNL     1      -0.833  18.516  17.969  0.00  0.00    +0.000 C 
ATOM     23  C   UNL     1       0.475  17.736  17.820  0.00  0.00    +0.000 C 
ENDBRANCH   8  20
BRANCH   3  24
ATOM     24  C   UNL     1       2.381   9.641  18.455  0.00  0.00    +0.000 C 
BRANCH  24  25
ATOM     25  C   UNL     1       2.098   8.333  19.151  0.00  0.00    +0.000 A 
ATOM     26  C   UNL     1       1.420   8.298  20.381  0.00  0.00    +0.000 A 
ATOM     27  C   UNL     1       1.256   7.090  21.061  0.00  0.00    +0.000 A 
ATOM     28  C   UNL     1       1.751   5.913  20.507  0.00  0.00    +0.000 A 
ATOM     29  F   UNL     1       1.633   4.765  21.186  0.00  0.00    +0.000 F 
ATOM     30  C   UNL     1       2.373   5.913  19.267  0.00  0.00    +0.000 A 
ATOM     31  C   UNL     1       2.532   7.122  18.598  0.00  0.00    +0.000 A 
ATOM     32  F   UNL     1       3.142   7.116  17.404  0.00  0.00    +0.000 F 
ENDBRANCH  24  25
ENDBRANCH   3  24
TORSDOF 5
ENDMDL
