MODEL 1
REMARK VINA RESULT:      -8.4      0.000      0.000
REMARK  Name = 
REMARK  9 active torsions:
REMARK  status: ('A' for Active; 'I' for Inactive)
REMARK    1  A    between atoms: C_1  and  C_2
REMARK    2  A    between atoms: C_7  and  C_8
REMARK    3  A    between atoms: C_8  and  C_9
REMARK    4  A    between atoms: C_8  and  N_11
REMARK    5  A    between atoms: C_15  and  C_17
REMARK    6  A    between atoms: C_17  and  N_18
REMARK    7  A    between atoms: N_18  and  C_19
REMARK    8  A    between atoms: C_19  and  C_20
REMARK    9  A    between atoms: C_19  and  C_26
REMARK                            x       y       z     vdW  Elec       q    Type
REMARK                         _______ _______ _______ _____ _____    ______ ____
ROOT
ATOM      1  N   UNL     1      -0.537  11.796  20.838  0.00  0.00    +0.000 NA
ATOM      2  C   UNL     1       0.076  12.784  19.975  0.00  0.00    +0.000 C 
ATOM      3  C   UNL     1       1.014  12.123  18.941  0.00  0.00    +0.000 C 
ATOM      4  N   UNL     1       0.781  10.696  18.635  0.00  0.00    +0.000 N 
ATOM      5  C   UNL     1       1.817  10.029  17.980  0.00  0.00    +0.000 C 
ATOM      6  O   UNL     1       2.848  10.621  17.647  0.00  0.00    +0.000 OA
ATOM      7  C   UNL     1      -0.395   9.999  19.191  0.00  0.00    +0.000 C 
ATOM      8  C   UNL     1      -1.316  10.827  20.104  0.00  0.00    +0.000 C 
ENDROOT
BRANCH   1   9
ATOM      9  C   UNL     1      -0.499  11.863  22.306  0.00  0.00    +0.000 C 
BRANCH   9  16
ATOM     10  C   UNL     1      -0.387  14.910  22.893  0.00  0.00    +0.000 C 
ATOM     11  C   UNL     1      -1.524  14.031  23.316  0.00  0.00    +0.000 A 
ATOM     12  N   UNL     1      -2.536  14.749  23.889  0.00  0.00    +0.000 NA
ATOM     13  C   UNL     1      -3.737  14.169  24.047  0.00  0.00    +0.000 A 
ATOM     14  C   UNL     1      -3.981  12.880  23.662  0.00  0.00    +0.000 A 
ATOM     15  C   UNL     1      -2.919  12.135  23.146  0.00  0.00    +0.000 A 
ATOM     16  C   UNL     1      -1.640  12.679  22.957  0.00  0.00    +0.000 A 
ENDBRANCH   9  16
BRANCH   9  17
ATOM     17  C   UNL     1      -0.371  10.502  22.893  0.00  0.00    +0.000 C 
ATOM     18  N   UNL     1      -0.277   9.418  23.324  0.00  0.00    +0.000 NA
ENDBRANCH   9  17
ENDBRANCH   1   9
BRANCH   5  19
ATOM     19  C   UNL     1       1.679   8.521  17.691  0.00  0.00    +0.000 C 
BRANCH  19  20
ATOM     20  N   UNL     1       2.524   7.714  18.603  0.00  0.00    +0.000 NA
ATOM     21  H   UNL     1       1.926   7.466  19.399  0.00  0.00    +0.000 HD
BRANCH  20  22
ATOM     22  C   UNL     1       2.977   6.432  18.017  0.00  0.00    +0.000 C 
BRANCH  22  23
ATOM     23  C   UNL     1       4.496   6.300  17.994  0.00  0.00    +0.000 A 
ATOM     24  C   UNL     1       5.312   6.750  16.956  0.00  0.00    +0.000 A 
ATOM     25  C   UNL     1       6.687   6.475  16.967  0.00  0.00    +0.000 A 
ATOM     26  C   UNL     1       7.270   5.759  18.016  0.00  0.00    +0.000 A 
ATOM     27  C   UNL     1       6.483   5.338  19.071  0.00  0.00    +0.000 A 
ATOM     28  C   UNL     1       5.118   5.615  19.043  0.00  0.00    +0.000 A 
ENDBRANCH  22  23
BRANCH  22  29
ATOM     29  C   UNL     1       2.267   5.236  18.656  0.00  0.00    +0.000 A 
ATOM     30  C   UNL     1       1.950   4.103  17.885  0.00  0.00    +0.000 A 
ATOM     31  C   UNL     1       1.242   3.033  18.440  0.00  0.00    +0.000 A 
ATOM     32  C   UNL     1       0.843   3.078  19.774  0.00  0.00    +0.000 A 
ATOM     33  C   UNL     1       1.165   4.181  20.558  0.00  0.00    +0.000 A 
ATOM     34  C   UNL     1       1.878   5.249  20.006  0.00  0.00    +0.000 A 
ENDBRANCH  22  29
ENDBRANCH  20  22
ENDBRANCH  19  20
ENDBRANCH   5  19
TORSDOF 8
ENDMDL
MODEL 2
REMARK VINA RESULT:      -8.0      0.722      1.128
REMARK  Name = 
REMARK  9 active torsions:
REMARK  status: ('A' for Active; 'I' for Inactive)
REMARK    1  A    between atoms: C_1  and  C_2
REMARK    2  A    between atoms: C_7  and  C_8
REMARK    3  A    between atoms: C_8  and  C_9
REMARK    4  A    between atoms: C_8  and  N_11
REMARK    5  A    between atoms: C_15  and  C_17
REMARK    6  A    between atoms: C_17  and  N_18
REMARK    7  A    between atoms: N_18  and  C_19
REMARK    8  A    between atoms: C_19  and  C_20
REMARK    9  A    between atoms: C_19  and  C_26
REMARK                            x       y       z     vdW  Elec       q    Type
REMARK                         _______ _______ _______ _____ _____    ______ ____
ROOT
ATOM      1  N   UNL     1      -0.871  12.230  20.401  0.00  0.00    +0.000 NA
ATOM      2  C   UNL     1      -0.123  13.075  19.493  0.00  0.00    +0.000 C 
ATOM      3  C   UNL     1       0.879  12.251  18.655  0.00  0.00    +0.000 C 
ATOM      4  N   UNL     1       0.604  10.807  18.504  0.00  0.00    +0.000 N 
ATOM      5  C   UNL     1       1.665  10.022  18.051  0.00  0.00    +0.000 C 
ATOM      6  O   UNL     1       2.754  10.526  17.759  0.00  0.00    +0.000 OA
ATOM      7  C   UNL     1      -0.657  10.232  19.013  0.00  0.00    +0.000 C 
ATOM      8  C   UNL     1      -1.622  11.206  19.714  0.00  0.00    +0.000 C 
ENDROOT
BRANCH   1   9
ATOM      9  C   UNL     1      -0.978  12.482  21.845  0.00  0.00    +0.000 C 
BRANCH   9  16
ATOM     10  C   UNL     1      -1.263  14.617  24.082  0.00  0.00    +0.000 C 
ATOM     11  C   UNL     1      -2.434  13.982  23.396  0.00  0.00    +0.000 A 
ATOM     12  N   UNL     1      -3.619  14.531  23.799  0.00  0.00    +0.000 NA
ATOM     13  C   UNL     1      -4.725  14.293  23.075  0.00  0.00    +0.000 A 
ATOM     14  C   UNL     1      -4.710  13.514  21.952  0.00  0.00    +0.000 A 
ATOM     15  C   UNL     1      -3.508  12.900  21.595  0.00  0.00    +0.000 A 
ATOM     16  C   UNL     1      -2.317  13.104  22.307  0.00  0.00    +0.000 A 
ENDBRANCH   9  16
BRANCH   9  17
ATOM     17  C   UNL     1      -0.622  11.265  22.622  0.00  0.00    +0.000 C 
ATOM     18  N   UNL     1      -0.313  10.303  23.215  0.00  0.00    +0.000 NA
ENDBRANCH   9  17
ENDBRANCH   1   9
BRANCH   5  19
ATOM     19  C   UNL     1       1.478   8.496  17.936  0.00  0.00    +0.000 C 
BRANCH  19  20
ATOM     20  N   UNL     1       2.523   7.763  18.691  0.00  0.00    +0.000 NA
ATOM     21  H   UNL     1       2.102   7.517  19.592  0.00  0.00    +0.000 HD
BRANCH  20  22
ATOM     22  C   UNL     1       2.924   6.483  18.063  0.00  0.00    +0.000 C 
BRANCH  22  23
ATOM     23  C   UNL     1       4.437   6.300  18.015  0.00  0.00    +0.000 A 
ATOM     24  C   UNL     1       5.250   6.715  16.961  0.00  0.00    +0.000 A 
ATOM     25  C   UNL     1       6.615   6.393  16.950  0.00  0.00    +0.000 A 
ATOM     26  C   UNL     1       7.191   5.665  17.995  0.00  0.00    +0.000 A 
ATOM     27  C   UNL     1       6.408   5.279  19.066  0.00  0.00    +0.000 A 
ATOM     28  C   UNL     1       5.054   5.602  19.059  0.00  0.00    +0.000 A 
ENDBRANCH  22  23
BRANCH  22  29
ATOM     29  C   UNL     1       2.181   5.295  18.679  0.00  0.00    +0.000 A 
ATOM     30  C   UNL     1       1.857   5.293  20.048  0.00  0.00    +0.000 A 
ATOM     31  C   UNL     1       1.239   4.185  20.637  0.00  0.00    +0.000 A 
ATOM     32  C   UNL     1       0.932   3.066  19.866  0.00  0.00    +0.000 A 
ATOM     33  C   UNL     1       1.227   3.058  18.506  0.00  0.00    +0.000 A 
ATOM     34  C   UNL     1       1.839   4.167  17.916  0.00  0.00    +0.000 A 
ENDBRANCH  22  29
ENDBRANCH  20  22
ENDBRANCH  19  20
ENDBRANCH   5  19
TORSDOF 8
ENDMDL
MODEL 3
REMARK VINA RESULT:      -7.9      3.085      9.335
REMARK  Name = 
REMARK  9 active torsions:
REMARK  status: ('A' for Active; 'I' for Inactive)
REMARK    1  A    between atoms: C_1  and  C_2
REMARK    2  A    between atoms: C_7  and  C_8
REMARK    3  A    between atoms: C_8  and  C_9
REMARK    4  A    between atoms: C_8  and  N_11
REMARK    5  A    between atoms: C_15  and  C_17
REMARK    6  A    between atoms: C_17  and  N_18
REMARK    7  A    between atoms: N_18  and  C_19
REMARK    8  A    between atoms: C_19  and  C_20
REMARK    9  A    between atoms: C_19  and  C_26
REMARK                            x       y       z     vdW  Elec       q    Type
REMARK                         _______ _______ _______ _____ _____    ______ ____
ROOT
ATOM      1  N   UNL     1       3.125   4.068  18.820  0.00  0.00    +0.000 NA
ATOM      2  C   UNL     1       2.309   4.102  20.017  0.00  0.00    +0.000 C 
ATOM      3  C   UNL     1       1.924   5.549  20.394  0.00  0.00    +0.000 C 
ATOM      4  N   UNL     1       1.967   6.560  19.317  0.00  0.00    +0.000 N 
ATOM      5  C   UNL     1       1.955   7.895  19.725  0.00  0.00    +0.000 C 
ATOM      6  O   UNL     1       1.874   8.198  20.919  0.00  0.00    +0.000 OA
ATOM      7  C   UNL     1       2.221   6.151  17.922  0.00  0.00    +0.000 C 
ATOM      8  C   UNL     1       2.459   4.650  17.679  0.00  0.00    +0.000 C 
ENDROOT
BRANCH   1   9
ATOM      9  C   UNL     1       4.421   3.380  18.740  0.00  0.00    +0.000 C 
BRANCH   9  16
ATOM     10  C   UNL     1       5.545   3.815  15.878  0.00  0.00    +0.000 C 
ATOM     11  C   UNL     1       6.187   4.378  17.109  0.00  0.00    +0.000 A 
ATOM     12  N   UNL     1       7.251   5.182  16.806  0.00  0.00    +0.000 NA
ATOM     13  C   UNL     1       7.743   5.993  17.755  0.00  0.00    +0.000 A 
ATOM     14  C   UNL     1       7.223   6.040  19.018  0.00  0.00    +0.000 A 
ATOM     15  C   UNL     1       6.186   5.160  19.335  0.00  0.00    +0.000 A 
ATOM     16  C   UNL     1       5.626   4.286  18.392  0.00  0.00    +0.000 A 
ENDBRANCH   9  16
BRANCH   9  17
ATOM     17  C   UNL     1       4.661   2.562  19.959  0.00  0.00    +0.000 C 
ATOM     18  N   UNL     1       4.847   1.890  20.899  0.00  0.00    +0.000 NA
ENDBRANCH   9  17
ENDBRANCH   1   9
BRANCH   5  19
ATOM     19  C   UNL     1       2.070   9.008  18.664  0.00  0.00    +0.000 C 
BRANCH  19  20
ATOM     20  N   UNL     1       0.745   9.355  18.096  0.00  0.00    +0.000 NA
ATOM     21  H   UNL     1       0.208   8.482  18.074  0.00  0.00    +0.000 HD
BRANCH  20  22
ATOM     22  C   UNL     1      -0.034  10.294  18.934  0.00  0.00    +0.000 C 
BRANCH  22  23
ATOM     23  C   UNL     1       0.749  11.552  19.291  0.00  0.00    +0.000 A 
ATOM     24  C   UNL     1       1.104  11.920  20.589  0.00  0.00    +0.000 A 
ATOM     25  C   UNL     1       1.717  13.159  20.831  0.00  0.00    +0.000 A 
ATOM     26  C   UNL     1       1.996  14.040  19.783  0.00  0.00    +0.000 A 
ATOM     27  C   UNL     1       1.686  13.676  18.488  0.00  0.00    +0.000 A 
ATOM     28  C   UNL     1       1.073  12.446  18.264  0.00  0.00    +0.000 A 
ENDBRANCH  22  23
BRANCH  22  29
ATOM     29  C   UNL     1      -1.413  10.579  18.331  0.00  0.00    +0.000 A 
ATOM     30  C   UNL     1      -2.278  11.503  18.944  0.00  0.00    +0.000 A 
ATOM     31  C   UNL     1      -3.565  11.722  18.442  0.00  0.00    +0.000 A 
ATOM     32  C   UNL     1      -4.003  11.023  17.319  0.00  0.00    +0.000 A 
ATOM     33  C   UNL     1      -3.154  10.120  16.688  0.00  0.00    +0.000 A 
ATOM     34  C   UNL     1      -1.865   9.905  17.186  0.00  0.00    +0.000 A 
ENDBRANCH  22  29
ENDBRANCH  20  22
ENDBRANCH  19  20
ENDBRANCH   5  19
TORSDOF 8
ENDMDL
MODEL 4
REMARK VINA RESULT:      -7.9      1.929      2.668
REMARK  Name = 
REMARK  9 active torsions:
REMARK  status: ('A' for Active; 'I' for Inactive)
REMARK    1  A    between atoms: C_1  and  C_2
REMARK    2  A    between atoms: C_7  and  C_8
REMARK    3  A    between atoms: C_8  and  C_9
REMARK    4  A    between atoms: C_8  and  N_11
REMARK    5  A    between atoms: C_15  and  C_17
REMARK    6  A    between atoms: C_17  and  N_18
REMARK    7  A    between atoms: N_18  and  C_19
REMARK    8  A    between atoms: C_19  and  C_20
REMARK    9  A    between atoms: C_19  and  C_26
REMARK                            x       y       z     vdW  Elec       q    Type
REMARK                         _______ _______ _______ _____ _____    ______ ____
ROOT
ATOM      1  N   UNL     1      -0.595  11.437  20.900  0.00  0.00    +0.000 NA
ATOM      2  C   UNL     1      -0.197  10.761  22.118  0.00  0.00    +0.000 C 
ATOM      3  C   UNL     1       0.550   9.445  21.812  0.00  0.00    +0.000 C 
ATOM      4  N   UNL     1       1.176   9.319  20.479  0.00  0.00    +0.000 N 
ATOM      5  C   UNL     1       1.541   8.030  20.090  0.00  0.00    +0.000 C 
ATOM      6  O   UNL     1       1.381   7.065  20.842  0.00  0.00    +0.000 OA
ATOM      7  C   UNL     1       1.202  10.472  19.559  0.00  0.00    +0.000 C 
ATOM      8  C   UNL     1       0.529  11.764  20.056  0.00  0.00    +0.000 C 
ENDROOT
BRANCH   1   9
ATOM      9  C   UNL     1      -1.971  11.879  20.628  0.00  0.00    +0.000 C 
BRANCH   9  16
ATOM     10  C   UNL     1      -3.184  12.304  23.455  0.00  0.00    +0.000 C 
ATOM     11  C   UNL     1      -3.002  13.412  22.462  0.00  0.00    +0.000 A 
ATOM     12  N   UNL     1      -3.334  14.628  22.989  0.00  0.00    +0.000 NA
ATOM     13  C   UNL     1      -2.950  15.742  22.346  0.00  0.00    +0.000 A 
ATOM     14  C   UNL     1      -2.244  15.703  21.176  0.00  0.00    +0.000 A 
ATOM     15  C   UNL     1      -1.977  14.455  20.610  0.00  0.00    +0.000 A 
ATOM     16  C   UNL     1      -2.351  13.253  21.228  0.00  0.00    +0.000 A 
ENDBRANCH   9  16
BRANCH   9  17
ATOM     17  C   UNL     1      -2.275  11.793  19.175  0.00  0.00    +0.000 C 
ATOM     18  N   UNL     1      -2.506  11.691  18.032  0.00  0.00    +0.000 NA
ENDBRANCH   9  17
ENDBRANCH   1   9
BRANCH   5  19
ATOM     19  C   UNL     1       2.134   7.808  18.684  0.00  0.00    +0.000 C 
BRANCH  19  20
ATOM     20  N   UNL     1       3.360   6.975  18.737  0.00  0.00    +0.000 NA
ATOM     21  H   UNL     1       3.445   6.658  19.709  0.00  0.00    +0.000 HD
BRANCH  20  22
ATOM     22  C   UNL     1       3.283   5.748  17.912  0.00  0.00    +0.000 C 
BRANCH  22  23
ATOM     23  C   UNL     1       4.615   5.392  17.262  0.00  0.00    +0.000 A 
ATOM     24  C   UNL     1       5.775   6.159  17.367  0.00  0.00    +0.000 A 
ATOM     25  C   UNL     1       6.920   5.816  16.632  0.00  0.00    +0.000 A 
ATOM     26  C   UNL     1       6.928   4.697  15.793  0.00  0.00    +0.000 A 
ATOM     27  C   UNL     1       5.799   3.905  15.706  0.00  0.00    +0.000 A 
ATOM     28  C   UNL     1       4.670   4.263  16.438  0.00  0.00    +0.000 A 
ENDBRANCH  22  23
BRANCH  22  29
ATOM     29  C   UNL     1       2.646   4.588  18.683  0.00  0.00    +0.000 A 
ATOM     30  C   UNL     1       1.515   3.929  18.167  0.00  0.00    +0.000 A 
ATOM     31  C   UNL     1       0.884   2.913  18.892  0.00  0.00    +0.000 A 
ATOM     32  C   UNL     1       1.377   2.540  20.141  0.00  0.00    +0.000 A 
ATOM     33  C   UNL     1       2.506   3.167  20.658  0.00  0.00    +0.000 A 
ATOM     34  C   UNL     1       3.141   4.178  19.931  0.00  0.00    +0.000 A 
ENDBRANCH  22  29
ENDBRANCH  20  22
ENDBRANCH  19  20
ENDBRANCH   5  19
TORSDOF 8
ENDMDL
MODEL 5
REMARK VINA RESULT:      -7.9      3.120      9.234
REMARK  Name = 
REMARK  9 active torsions:
REMARK  status: ('A' for Active; 'I' for Inactive)
REMARK    1  A    between atoms: C_1  and  C_2
REMARK    2  A    between atoms: C_7  and  C_8
REMARK    3  A    between atoms: C_8  and  C_9
REMARK    4  A    between atoms: C_8  and  N_11
REMARK    5  A    between atoms: C_15  and  C_17
REMARK    6  A    between atoms: C_17  and  N_18
REMARK    7  A    between atoms: N_18  and  C_19
REMARK    8  A    between atoms: C_19  and  C_20
REMARK    9  A    between atoms: C_19  and  C_26
REMARK                            x       y       z     vdW  Elec       q    Type
REMARK                         _______ _______ _______ _____ _____    ______ ____
ROOT
ATOM      1  N   UNL     1       3.159   4.079  18.795  0.00  0.00    +0.000 NA
ATOM      2  C   UNL     1       2.349   4.111  19.996  0.00  0.00    +0.000 C 
ATOM      3  C   UNL     1       1.961   5.557  20.374  0.00  0.00    +0.000 C 
ATOM      4  N   UNL     1       1.994   6.567  19.295  0.00  0.00    +0.000 N 
ATOM      5  C   UNL     1       1.980   7.902  19.702  0.00  0.00    +0.000 C 
ATOM      6  O   UNL     1       1.904   8.207  20.896  0.00  0.00    +0.000 OA
ATOM      7  C   UNL     1       2.243   6.158  17.900  0.00  0.00    +0.000 C 
ATOM      8  C   UNL     1       2.485   4.657  17.657  0.00  0.00    +0.000 C 
ENDROOT
BRANCH   1   9
ATOM      9  C   UNL     1       4.457   3.396  18.709  0.00  0.00    +0.000 C 
BRANCH   9  16
ATOM     10  C   UNL     1       5.642   3.847  15.874  0.00  0.00    +0.000 C 
ATOM     11  C   UNL     1       6.252   4.412  17.121  0.00  0.00    +0.000 A 
ATOM     12  N   UNL     1       7.316   5.224  16.845  0.00  0.00    +0.000 NA
ATOM     13  C   UNL     1       7.780   6.037  17.807  0.00  0.00    +0.000 A 
ATOM     14  C   UNL     1       7.232   6.076  19.058  0.00  0.00    +0.000 A 
ATOM     15  C   UNL     1       6.194   5.188  19.349  0.00  0.00    +0.000 A 
ATOM     16  C   UNL     1       5.663   4.311  18.391  0.00  0.00    +0.000 A 
ENDBRANCH   9  16
BRANCH   9  17
ATOM     17  C   UNL     1       4.690   2.551  19.910  0.00  0.00    +0.000 C 
ATOM     18  N   UNL     1       4.841   1.892  20.867  0.00  0.00    +0.000 NA
ENDBRANCH   9  17
ENDBRANCH   1   9
BRANCH   5  19
ATOM     19  C   UNL     1       2.085   9.014  18.639  0.00  0.00    +0.000 C 
BRANCH  19  20
ATOM     20  N   UNL     1       0.757   9.352  18.073  0.00  0.00    +0.000 NA
ATOM     21  H   UNL     1       0.209   8.486  18.100  0.00  0.00    +0.000 HD
BRANCH  20  22
ATOM     22  C   UNL     1       0.001  10.340  18.876  0.00  0.00    +0.000 C 
BRANCH  22  23
ATOM     23  C   UNL     1       0.781  11.628  19.111  0.00  0.00    +0.000 A 
ATOM     24  C   UNL     1       1.263  12.455  18.097  0.00  0.00    +0.000 A 
ATOM     25  C   UNL     1       2.078  13.555  18.408  0.00  0.00    +0.000 A 
ATOM     26  C   UNL     1       2.412  13.852  19.732  0.00  0.00    +0.000 A 
ATOM     27  C   UNL     1       1.912  13.065  20.752  0.00  0.00    +0.000 A 
ATOM     28  C   UNL     1       1.110  11.974  20.426  0.00  0.00    +0.000 A 
ENDBRANCH  22  23
BRANCH  22  29
ATOM     29  C   UNL     1      -1.405  10.567  18.314  0.00  0.00    +0.000 A 
ATOM     30  C   UNL     1      -1.820   9.899  17.147  0.00  0.00    +0.000 A 
ATOM     31  C   UNL     1      -3.076  10.149  16.586  0.00  0.00    +0.000 A 
ATOM     32  C   UNL     1      -3.936  11.067  17.185  0.00  0.00    +0.000 A 
ATOM     33  C   UNL     1      -3.552  11.722  18.350  0.00  0.00    +0.000 A 
ATOM     34  C   UNL     1      -2.299  11.468  18.915  0.00  0.00    +0.000 A 
ENDBRANCH  22  29
ENDBRANCH  20  22
ENDBRANCH  19  20
ENDBRANCH   5  19
TORSDOF 8
ENDMDL
MODEL 6
REMARK VINA RESULT:      -7.8      2.214      3.103
REMARK  Name = 
REMARK  9 active torsions:
REMARK  status: ('A' for Active; 'I' for Inactive)
REMARK    1  A    between atoms: C_1  and  C_2
REMARK    2  A    between atoms: C_7  and  C_8
REMARK    3  A    between atoms: C_8  and  C_9
REMARK    4  A    between atoms: C_8  and  N_11
REMARK    5  A    between atoms: C_15  and  C_17
REMARK    6  A    between atoms: C_17  and  N_18
REMARK    7  A    between atoms: N_18  and  C_19
REMARK    8  A    between atoms: C_19  and  C_20
REMARK    9  A    between atoms: C_19  and  C_26
REMARK                            x       y       z     vdW  Elec       q    Type
REMARK                         _______ _______ _______ _____ _____    ______ ____
ROOT
ATOM      1  N   UNL     1      -0.914  11.591  19.891  0.00  0.00    +0.000 NA
ATOM      2  C   UNL     1      -0.415  11.247  21.207  0.00  0.00    +0.000 C 
ATOM      3  C   UNL     1       0.475   9.986  21.159  0.00  0.00    +0.000 C 
ATOM      4  N   UNL     1       1.085   9.641  19.857  0.00  0.00    +0.000 N 
ATOM      5  C   UNL     1       1.592   8.347  19.739  0.00  0.00    +0.000 C 
ATOM      6  O   UNL     1       1.561   7.558  20.689  0.00  0.00    +0.000 OA
ATOM      7  C   UNL     1       0.958  10.559  18.709  0.00  0.00    +0.000 C 
ATOM      8  C   UNL     1       0.147  11.847  18.946  0.00  0.00    +0.000 C 
ENDROOT
BRANCH   1   9
ATOM      9  C   UNL     1      -2.336  11.808  19.592  0.00  0.00    +0.000 C 
BRANCH   9  16
ATOM     10  C   UNL     1      -5.271  12.189  20.533  0.00  0.00    +0.000 C 
ATOM     11  C   UNL     1      -4.284  13.312  20.441  0.00  0.00    +0.000 A 
ATOM     12  N   UNL     1      -4.800  14.484  20.917  0.00  0.00    +0.000 NA
ATOM     13  C   UNL     1      -3.966  15.501  21.184  0.00  0.00    +0.000 A 
ATOM     14  C   UNL     1      -2.616  15.410  20.989  0.00  0.00    +0.000 A 
ATOM     15  C   UNL     1      -2.111  14.233  20.432  0.00  0.00    +0.000 A 
ATOM     16  C   UNL     1      -2.927  13.133  20.128  0.00  0.00    +0.000 A 
ENDBRANCH   9  16
BRANCH   9  17
ATOM     17  C   UNL     1      -2.606  11.615  18.142  0.00  0.00    +0.000 C 
ATOM     18  N   UNL     1      -2.838  11.436  17.008  0.00  0.00    +0.000 NA
ENDBRANCH   9  17
ENDBRANCH   1   9
BRANCH   5  19
ATOM     19  C   UNL     1       2.179   7.888  18.389  0.00  0.00    +0.000 C 
BRANCH  19  20
ATOM     20  N   UNL     1       3.383   7.043  18.580  0.00  0.00    +0.000 NA
ATOM     21  H   UNL     1       3.444   6.860  19.587  0.00  0.00    +0.000 HD
BRANCH  20  22
ATOM     22  C   UNL     1       3.289   5.717  17.928  0.00  0.00    +0.000 C 
BRANCH  22  23
ATOM     23  C   UNL     1       4.640   5.201  17.447  0.00  0.00    +0.000 A 
ATOM     24  C   UNL     1       5.858   5.474  18.071  0.00  0.00    +0.000 A 
ATOM     25  C   UNL     1       7.063   5.059  17.484  0.00  0.00    +0.000 A 
ATOM     26  C   UNL     1       7.070   4.355  16.276  0.00  0.00    +0.000 A 
ATOM     27  C   UNL     1       5.871   4.044  15.664  0.00  0.00    +0.000 A 
ATOM     28  C   UNL     1       4.685   4.468  16.256  0.00  0.00    +0.000 A 
ENDBRANCH  22  23
BRANCH  22  29
ATOM     29  C   UNL     1       2.523   4.714  18.796  0.00  0.00    +0.000 A 
ATOM     30  C   UNL     1       2.823   4.584  20.164  0.00  0.00    +0.000 A 
ATOM     31  C   UNL     1       2.178   3.626  20.951  0.00  0.00    +0.000 A 
ATOM     32  C   UNL     1       1.222   2.786  20.384  0.00  0.00    +0.000 A 
ATOM     33  C   UNL     1       0.897   2.914  19.037  0.00  0.00    +0.000 A 
ATOM     34  C   UNL     1       1.537   3.876  18.251  0.00  0.00    +0.000 A 
ENDBRANCH  22  29
ENDBRANCH  20  22
ENDBRANCH  19  20
ENDBRANCH   5  19
TORSDOF 8
ENDMDL
MODEL 7
REMARK VINA RESULT:      -7.8      2.959      9.780
REMARK  Name = 
REMARK  9 active torsions:
REMARK  status: ('A' for Active; 'I' for Inactive)
REMARK    1  A    between atoms: C_1  and  C_2
REMARK    2  A    between atoms: C_7  and  C_8
REMARK    3  A    between atoms: C_8  and  C_9
REMARK    4  A    between atoms: C_8  and  N_11
REMARK    5  A    between atoms: C_15  and  C_17
REMARK    6  A    between atoms: C_17  and  N_18
REMARK    7  A    between atoms: N_18  and  C_19
REMARK    8  A    between atoms: C_19  and  C_20
REMARK    9  A    between atoms: C_19  and  C_26
REMARK                            x       y       z     vdW  Elec       q    Type
REMARK                         _______ _______ _______ _____ _____    ______ ____
ROOT
ATOM      1  N   UNL     1       3.125   3.892  18.868  0.00  0.00    +0.000 NA
ATOM      2  C   UNL     1       2.375   3.773  20.102  0.00  0.00    +0.000 C 
ATOM      3  C   UNL     1       1.938   5.156  20.631  0.00  0.00    +0.000 C 
ATOM      4  N   UNL     1       1.870   6.261  19.652  0.00  0.00    +0.000 N 
ATOM      5  C   UNL     1       1.814   7.551  20.182  0.00  0.00    +0.000 C 
ATOM      6  O   UNL     1       1.783   7.740  21.402  0.00  0.00    +0.000 OA
ATOM      7  C   UNL     1       2.068   5.994  18.214  0.00  0.00    +0.000 C 
ATOM      8  C   UNL     1       2.368   4.537  17.821  0.00  0.00    +0.000 C 
ENDROOT
BRANCH   1   9
ATOM      9  C   UNL     1       4.448   3.287  18.659  0.00  0.00    +0.000 C 
BRANCH   9  16
ATOM     10  C   UNL     1       5.367   4.019  15.785  0.00  0.00    +0.000 C 
ATOM     11  C   UNL     1       6.055   4.514  17.020  0.00  0.00    +0.000 A 
ATOM     12  N   UNL     1       7.056   5.398  16.727  0.00  0.00    +0.000 NA
ATOM     13  C   UNL     1       7.564   6.155  17.712  0.00  0.00    +0.000 A 
ATOM     14  C   UNL     1       7.122   6.067  19.003  0.00  0.00    +0.000 A 
ATOM     15  C   UNL     1       6.153   5.108  19.302  0.00  0.00    +0.000 A 
ATOM     16  C   UNL     1       5.581   4.284  18.322  0.00  0.00    +0.000 A 
ENDBRANCH   9  16
BRANCH   9  17
ATOM     17  C   UNL     1       4.802   2.390  19.791  0.00  0.00    +0.000 C 
ATOM     18  N   UNL     1       5.094   1.711  20.699  0.00  0.00    +0.000 NA
ENDBRANCH   9  17
ENDBRANCH   1   9
BRANCH   5  19
ATOM     19  C   UNL     1       1.814   8.760  19.225  0.00  0.00    +0.000 C 
BRANCH  19  20
ATOM     20  N   UNL     1       1.001   9.877  19.763  0.00  0.00    +0.000 NA
ATOM     21  H   UNL     1       1.582  10.334  20.473  0.00  0.00    +0.000 HD
BRANCH  20  22
ATOM     22  C   UNL     1       0.687  10.921  18.760  0.00  0.00    +0.000 C 
BRANCH  22  23
ATOM     23  C   UNL     1      -0.796  10.971  18.409  0.00  0.00    +0.000 A 
ATOM     24  C   UNL     1      -1.708  11.873  18.956  0.00  0.00    +0.000 A 
ATOM     25  C   UNL     1      -3.075  11.763  18.664  0.00  0.00    +0.000 A 
ATOM     26  C   UNL     1      -3.551  10.760  17.814  0.00  0.00    +0.000 A 
ATOM     27  C   UNL     1      -2.658   9.881  17.234  0.00  0.00    +0.000 A 
ATOM     28  C   UNL     1      -1.304  10.001  17.538  0.00  0.00    +0.000 A 
ENDBRANCH  22  23
BRANCH  22  29
ATOM     29  C   UNL     1       1.270  12.280  19.157  0.00  0.00    +0.000 A 
ATOM     30  C   UNL     1       1.692  13.187  18.169  0.00  0.00    +0.000 A 
ATOM     31  C   UNL     1       2.288  14.403  18.519  0.00  0.00    +0.000 A 
ATOM     32  C   UNL     1       2.468  14.730  19.861  0.00  0.00    +0.000 A 
ATOM     33  C   UNL     1       2.038  13.854  20.853  0.00  0.00    +0.000 A 
ATOM     34  C   UNL     1       1.436  12.641  20.504  0.00  0.00    +0.000 A 
ENDBRANCH  22  29
ENDBRANCH  20  22
ENDBRANCH  19  20
ENDBRANCH   5  19
TORSDOF 8
ENDMDL
MODEL 8
REMARK VINA RESULT:      -7.8      2.530      4.194
REMARK  Name = 
REMARK  9 active torsions:
REMARK  status: ('A' for Active; 'I' for Inactive)
REMARK    1  A    between atoms: C_1  and  C_2
REMARK    2  A    between atoms: C_7  and  C_8
REMARK    3  A    between atoms: C_8  and  C_9
REMARK    4  A    between atoms: C_8  and  N_11
REMARK    5  A    between atoms: C_15  and  C_17
REMARK    6  A    between atoms: C_17  and  N_18
REMARK    7  A    between atoms: N_18  and  C_19
REMARK    8  A    between atoms: C_19  and  C_20
REMARK    9  A    between atoms: C_19  and  C_26
REMARK                            x       y       z     vdW  Elec       q    Type
REMARK                         _______ _______ _______ _____ _____    ______ ____
ROOT
ATOM      1  N   UNL     1      -1.654  12.261  19.977  0.00  0.00    +0.000 NA
ATOM      2  C   UNL     1      -1.548  12.003  21.399  0.00  0.00    +0.000 C 
ATOM      3  C   UNL     1      -0.654  10.776  21.683  0.00  0.00    +0.000 C 
ATOM      4  N   UNL     1       0.312  10.388  20.633  0.00  0.00    +0.000 N 
ATOM      5  C   UNL     1       0.859   9.110  20.742  0.00  0.00    +0.000 C 
ATOM      6  O   UNL     1       0.573   8.369  21.688  0.00  0.00    +0.000 OA
ATOM      7  C   UNL     1       0.500  11.242  19.444  0.00  0.00    +0.000 C 
ATOM      8  C   UNL     1      -0.371  12.508  19.362  0.00  0.00    +0.000 C 
ENDROOT
BRANCH   1   9
ATOM      9  C   UNL     1      -2.934  12.408  19.271  0.00  0.00    +0.000 C 
BRANCH   9  16
ATOM     10  C   UNL     1      -5.314  12.552  17.282  0.00  0.00    +0.000 C 
ATOM     11  C   UNL     1      -4.266  11.483  17.236  0.00  0.00    +0.000 A 
ATOM     12  N   UNL     1      -4.430  10.656  16.160  0.00  0.00    +0.000 NA
ATOM     13  C   UNL     1      -3.422   9.844  15.804  0.00  0.00    +0.000 A 
ATOM     14  C   UNL     1      -2.237   9.809  16.485  0.00  0.00    +0.000 A 
ATOM     15  C   UNL     1      -2.111  10.604  17.626  0.00  0.00    +0.000 A 
ATOM     16  C   UNL     1      -3.126  11.473  18.054  0.00  0.00    +0.000 A 
ENDBRANCH   9  16
BRANCH   9  17
ATOM     17  C   UNL     1      -4.074  12.336  20.224  0.00  0.00    +0.000 C 
ATOM     18  N   UNL     1      -4.948  12.274  21.001  0.00  0.00    +0.000 NA
ENDBRANCH   9  17
ENDBRANCH   1   9
BRANCH   5  19
ATOM     19  C   UNL     1       1.820   8.606  19.646  0.00  0.00    +0.000 C 
BRANCH  19  20
ATOM     20  N   UNL     1       2.421   7.300  20.010  0.00  0.00    +0.000 NA
ATOM     21  H   UNL     1       1.760   6.853  20.654  0.00  0.00    +0.000 HD
BRANCH  20  22
ATOM     22  C   UNL     1       2.569   6.372  18.866  0.00  0.00    +0.000 C 
BRANCH  22  23
ATOM     23  C   UNL     1       4.006   6.280  18.365  0.00  0.00    +0.000 A 
ATOM     24  C   UNL     1       4.460   6.820  17.162  0.00  0.00    +0.000 A 
ATOM     25  C   UNL     1       5.772   6.578  16.728  0.00  0.00    +0.000 A 
ATOM     26  C   UNL     1       6.652   5.807  17.492  0.00  0.00    +0.000 A 
ATOM     27  C   UNL     1       6.231   5.296  18.704  0.00  0.00    +0.000 A 
ATOM     28  C   UNL     1       4.924   5.541  19.119  0.00  0.00    +0.000 A 
ENDBRANCH  22  23
BRANCH  22  29
ATOM     29  C   UNL     1       1.931   5.011  19.156  0.00  0.00    +0.000 A 
ATOM     30  C   UNL     1       1.634   4.634  20.478  0.00  0.00    +0.000 A 
ATOM     31  C   UNL     1       1.113   3.368  20.763  0.00  0.00    +0.000 A 
ATOM     32  C   UNL     1       0.881   2.462  19.730  0.00  0.00    +0.000 A 
ATOM     33  C   UNL     1       1.149   2.824  18.414  0.00  0.00    +0.000 A 
ATOM     34  C   UNL     1       1.664   4.093  18.128  0.00  0.00    +0.000 A 
ENDBRANCH  22  29
ENDBRANCH  20  22
ENDBRANCH  19  20
ENDBRANCH   5  19
TORSDOF 8
ENDMDL
MODEL 9
REMARK VINA RESULT:      -7.7      2.085      3.220
REMARK  Name = 
REMARK  9 active torsions:
REMARK  status: ('A' for Active; 'I' for Inactive)
REMARK    1  A    between atoms: C_1  and  C_2
REMARK    2  A    between atoms: C_7  and  C_8
REMARK    3  A    between atoms: C_8  and  C_9
REMARK    4  A    between atoms: C_8  and  N_11
REMARK    5  A    between atoms: C_15  and  C_17
REMARK    6  A    between atoms: C_17  and  N_18
REMARK    7  A    between atoms: N_18  and  C_19
REMARK    8  A    between atoms: C_19  and  C_20
REMARK    9  A    between atoms: C_19  and  C_26
REMARK                            x       y       z     vdW  Elec       q    Type
REMARK                         _______ _______ _______ _____ _____    ______ ____
ROOT
ATOM      1  N   UNL     1      -0.157  12.191  20.374  0.00  0.00    +0.000 NA
ATOM      2  C   UNL     1      -0.512  12.133  18.971  0.00  0.00    +0.000 C 
ATOM      3  C   UNL     1       0.161  10.933  18.270  0.00  0.00    +0.000 C 
ATOM      4  N   UNL     1       0.593   9.808  19.126  0.00  0.00    +0.000 N 
ATOM      5  C   UNL     1       1.488   8.905  18.551  0.00  0.00    +0.000 C 
ATOM      6  O   UNL     1       1.859   9.029  17.380  0.00  0.00    +0.000 OA
ATOM      7  C   UNL     1       0.248   9.791  20.561  0.00  0.00    +0.000 C 
ATOM      8  C   UNL     1      -0.543  10.999  21.092  0.00  0.00    +0.000 C 
ENDROOT
BRANCH   1   9
ATOM      9  C   UNL     1       0.391  13.390  21.025  0.00  0.00    +0.000 C 
BRANCH   9  16
ATOM     10  C   UNL     1       2.764  14.064  19.140  0.00  0.00    +0.000 C 
ATOM     11  C   UNL     1       1.607  14.988  19.369  0.00  0.00    +0.000 A 
ATOM     12  N   UNL     1       1.676  16.097  18.575  0.00  0.00    +0.000 NA
ATOM     13  C   UNL     1       0.585  16.866  18.436  0.00  0.00    +0.000 A 
ATOM     14  C   UNL     1      -0.594  16.584  19.068  0.00  0.00    +0.000 A 
ATOM     15  C   UNL     1      -0.628  15.489  19.935  0.00  0.00    +0.000 A 
ATOM     16  C   UNL     1       0.475  14.645  20.127  0.00  0.00    +0.000 A 
ENDBRANCH   9  16
BRANCH   9  17
ATOM     17  C   UNL     1      -0.309  13.659  22.310  0.00  0.00    +0.000 C 
ATOM     18  N   UNL     1      -0.858  13.838  23.328  0.00  0.00    +0.000 NA
ENDBRANCH   9  17
ENDBRANCH   1   9
BRANCH   5  19
ATOM     19  C   UNL     1       2.041   7.746  19.404  0.00  0.00    +0.000 C 
BRANCH  19  20
ATOM     20  N   UNL     1       3.258   7.157  18.796  0.00  0.00    +0.000 NA
ATOM     21  H   UNL     1       3.880   6.922  19.576  0.00  0.00    +0.000 HD
BRANCH  20  22
ATOM     22  C   UNL     1       3.009   5.887  18.076  0.00  0.00    +0.000 C 
BRANCH  22  23
ATOM     23  C   UNL     1       4.218   5.420  17.273  0.00  0.00    +0.000 A 
ATOM     24  C   UNL     1       4.340   4.159  16.691  0.00  0.00    +0.000 A 
ATOM     25  C   UNL     1       5.542   3.776  16.076  0.00  0.00    +0.000 A 
ATOM     26  C   UNL     1       6.633   4.648  16.022  0.00  0.00    +0.000 A 
ATOM     27  C   UNL     1       6.516   5.915  16.561  0.00  0.00    +0.000 A 
ATOM     28  C   UNL     1       5.319   6.277  17.172  0.00  0.00    +0.000 A 
ENDBRANCH  22  23
BRANCH  22  29
ATOM     29  C   UNL     1       2.436   4.813  19.005  0.00  0.00    +0.000 A 
ATOM     30  C   UNL     1       1.396   3.975  18.565  0.00  0.00    +0.000 A 
ATOM     31  C   UNL     1       0.818   3.037  19.426  0.00  0.00    +0.000 A 
ATOM     32  C   UNL     1       1.275   2.920  20.737  0.00  0.00    +0.000 A 
ATOM     33  C   UNL     1       2.317   3.726  21.184  0.00  0.00    +0.000 A 
ATOM     34  C   UNL     1       2.899   4.661  20.322  0.00  0.00    +0.000 A 
ENDBRANCH  22  29
ENDBRANCH  20  22
ENDBRANCH  19  20
ENDBRANCH   5  19
TORSDOF 8
ENDMDL
