MODEL 1
REMARK VINA RESULT:      -9.3      0.000      0.000
REMARK  Name = 
REMARK  5 active torsions:
REMARK  status: ('A' for Active; 'I' for Inactive)
REMARK    1  A    between atoms: C_1  and  C_2
REMARK    2  A    between atoms: C_4  and  C_5
REMARK    3  A    between atoms: C_5  and  N_6
REMARK    4  A    between atoms: C_10  and  C_11
REMARK    5  A    between atoms: N_13  and  C_14
REMARK                            x       y       z     vdW  Elec       q    Type
REMARK                         _______ _______ _______ _____ _____    ______ ____
ROOT
ATOM      1  N   UNL     1       5.148   5.253  17.092  0.00  0.00    +0.000 N 
ATOM      2  C   UNL     1       5.044   6.636  16.995  0.00  0.00    +0.000 C 
ATOM      3  O   UNL     1       5.904   7.442  16.684  0.00  0.00    +0.000 OA
ATOM      4  C   UNL     1       3.637   6.956  17.424  0.00  0.00    +0.000 C 
ATOM      5  C   UNL     1       3.302   8.247  17.616  0.00  0.00    +0.000 C 
ATOM      6  C   UNL     1       2.960   5.674  17.673  0.00  0.00    +0.000 A 
ATOM      7  C   UNL     1       1.653   5.324  17.968  0.00  0.00    +0.000 A 
ATOM      8  C   UNL     1       1.342   3.971  18.156  0.00  0.00    +0.000 A 
ATOM      9  C   UNL     1       2.333   2.985  18.023  0.00  0.00    +0.000 A 
ATOM     10  C   UNL     1       3.642   3.335  17.682  0.00  0.00    +0.000 A 
ATOM     11  C   UNL     1       3.929   4.679  17.495  0.00  0.00    +0.000 A 
ENDROOT
BRANCH   5  12
ATOM     12  C   UNL     1       2.108   8.642  18.396  0.00  0.00    +0.000 C 
ATOM     13  O   UNL     1       1.896   8.103  19.477  0.00  0.00    +0.000 OA
ATOM     14  N   UNL     1       1.347   9.643  17.822  0.00  0.00    +0.000 N 
ATOM     15  H   UNL     1       1.600   9.973  16.901  0.00  0.00    +0.000 HD
BRANCH  14  16
ATOM     16  C   UNL     1       0.167  10.188  18.394  0.00  0.00    +0.000 A 
ATOM     17  C   UNL     1      -1.103  10.016  17.830  0.00  0.00    +0.000 A 
ATOM     18  C   UNL     1      -2.234  10.616  18.385  0.00  0.00    +0.000 A 
ATOM     19  C   UNL     1      -2.115  11.391  19.532  0.00  0.00    +0.000 A 
ATOM     20  C   UNL     1      -0.864  11.545  20.130  0.00  0.00    +0.000 A 
ATOM     21  C   UNL     1       0.271  10.942  19.570  0.00  0.00    +0.000 A 
ENDBRANCH  14  16
ENDBRANCH   5  12
BRANCH   1  22
ATOM     22  C   UNL     1       6.369   4.521  16.852  0.00  0.00    +0.000 C 
BRANCH  22  26
ATOM     23  C   UNL     1       7.070   3.846  11.841  0.00  0.00    +0.000 C 
ATOM     24  C   UNL     1       7.076   4.290  13.253  0.00  0.00    +0.000 A 
ATOM     25  C   UNL     1       6.259   3.841  14.313  0.00  0.00    +0.000 A 
ATOM     26  C   UNL     1       6.710   4.536  15.411  0.00  0.00    +0.000 A 
ATOM     27  O   UNL     1       7.715   5.368  15.027  0.00  0.00    +0.000 OA
ATOM     28  N   UNL     1       7.949   5.216  13.670  0.00  0.00    +0.000 NA
ENDBRANCH  22  26
ENDBRANCH   1  22
TORSDOF 4
ENDMDL
MODEL 2
REMARK VINA RESULT:      -9.2      1.775      2.119
REMARK  Name = 
REMARK  5 active torsions:
REMARK  status: ('A' for Active; 'I' for Inactive)
REMARK    1  A    between atoms: C_1  and  C_2
REMARK    2  A    between atoms: C_4  and  C_5
REMARK    3  A    between atoms: C_5  and  N_6
REMARK    4  A    between atoms: C_10  and  C_11
REMARK    5  A    between atoms: N_13  and  C_14
REMARK                            x       y       z     vdW  Elec       q    Type
REMARK                         _______ _______ _______ _____ _____    ______ ____
ROOT
ATOM      1  N   UNL     1       4.760   5.667  18.027  0.00  0.00    +0.000 N 
ATOM      2  C   UNL     1       4.377   6.850  17.403  0.00  0.00    +0.000 C 
ATOM      3  O   UNL     1       4.994   7.511  16.586  0.00  0.00    +0.000 OA
ATOM      4  C   UNL     1       3.040   7.196  18.003  0.00  0.00    +0.000 C 
ATOM      5  C   UNL     1       2.506   8.402  17.729  0.00  0.00    +0.000 C 
ATOM      6  C   UNL     1       2.680   6.099  18.914  0.00  0.00    +0.000 A 
ATOM      7  C   UNL     1       1.542   5.796  19.644  0.00  0.00    +0.000 A 
ATOM      8  C   UNL     1       1.537   4.642  20.440  0.00  0.00    +0.000 A 
ATOM      9  C   UNL     1       2.656   3.795  20.476  0.00  0.00    +0.000 A 
ATOM     10  C   UNL     1       3.786   4.077  19.705  0.00  0.00    +0.000 A 
ATOM     11  C   UNL     1       3.771   5.221  18.921  0.00  0.00    +0.000 A 
ENDROOT
BRANCH   5  12
ATOM     12  C   UNL     1       1.425   8.989  18.552  0.00  0.00    +0.000 C 
ATOM     13  O   UNL     1       0.352   9.258  18.023  0.00  0.00    +0.000 OA
ATOM     14  N   UNL     1       1.734   9.142  19.890  0.00  0.00    +0.000 N 
ATOM     15  H   UNL     1       2.674   8.927  20.195  0.00  0.00    +0.000 HD
BRANCH  14  16
ATOM     16  C   UNL     1       0.851   9.672  20.867  0.00  0.00    +0.000 A 
ATOM     17  C   UNL     1       0.525  11.032  20.942  0.00  0.00    +0.000 A 
ATOM     18  C   UNL     1      -0.300  11.528  21.953  0.00  0.00    +0.000 A 
ATOM     19  C   UNL     1      -0.829  10.663  22.902  0.00  0.00    +0.000 A 
ATOM     20  C   UNL     1      -0.546   9.300  22.824  0.00  0.00    +0.000 A 
ATOM     21  C   UNL     1       0.283   8.804  21.809  0.00  0.00    +0.000 A 
ENDBRANCH  14  16
ENDBRANCH   5  12
BRANCH   1  22
ATOM     22  C   UNL     1       6.032   5.021  17.808  0.00  0.00    +0.000 C 
BRANCH  22  26
ATOM     23  C   UNL     1       6.335   3.691  12.890  0.00  0.00    +0.000 C 
ATOM     24  C   UNL     1       6.476   4.296  14.233  0.00  0.00    +0.000 A 
ATOM     25  C   UNL     1       5.693   4.059  15.383  0.00  0.00    +0.000 A 
ATOM     26  C   UNL     1       6.277   4.831  16.360  0.00  0.00    +0.000 A 
ATOM     27  O   UNL     1       7.327   5.508  15.822  0.00  0.00    +0.000 OA
ATOM     28  N   UNL     1       7.456   5.173  14.484  0.00  0.00    +0.000 NA
ENDBRANCH  22  26
ENDBRANCH   1  22
TORSDOF 4
ENDMDL
MODEL 3
REMARK VINA RESULT:      -8.8      1.124      1.145
REMARK  Name = 
REMARK  5 active torsions:
REMARK  status: ('A' for Active; 'I' for Inactive)
REMARK    1  A    between atoms: C_1  and  C_2
REMARK    2  A    between atoms: C_4  and  C_5
REMARK    3  A    between atoms: C_5  and  N_6
REMARK    4  A    between atoms: C_10  and  C_11
REMARK    5  A    between atoms: N_13  and  C_14
REMARK                            x       y       z     vdW  Elec       q    Type
REMARK                         _______ _______ _______ _____ _____    ______ ____
ROOT
ATOM      1  N   UNL     1       4.855   5.506  17.948  0.00  0.00    +0.000 N 
ATOM      2  C   UNL     1       4.503   6.700  17.327  0.00  0.00    +0.000 C 
ATOM      3  O   UNL     1       5.128   7.337  16.498  0.00  0.00    +0.000 OA
ATOM      4  C   UNL     1       3.188   7.093  17.947  0.00  0.00    +0.000 C 
ATOM      5  C   UNL     1       2.692   8.316  17.679  0.00  0.00    +0.000 C 
ATOM      6  C   UNL     1       2.806   6.011  18.868  0.00  0.00    +0.000 A 
ATOM      7  C   UNL     1       1.671   5.750  19.618  0.00  0.00    +0.000 A 
ATOM      8  C   UNL     1       1.639   4.600  20.417  0.00  0.00    +0.000 A 
ATOM      9  C   UNL     1       2.728   3.714  20.437  0.00  0.00    +0.000 A 
ATOM     10  C   UNL     1       3.855   3.955  19.647  0.00  0.00    +0.000 A 
ATOM     11  C   UNL     1       3.866   5.096  18.860  0.00  0.00    +0.000 A 
ENDROOT
BRANCH   5  12
ATOM     12  C   UNL     1       1.645   8.942  18.518  0.00  0.00    +0.000 C 
ATOM     13  O   UNL     1       1.638   8.722  19.725  0.00  0.00    +0.000 OA
ATOM     14  N   UNL     1       0.776   9.772  17.836  0.00  0.00    +0.000 N 
ATOM     15  H   UNL     1       0.858   9.834  16.830  0.00  0.00    +0.000 HD
BRANCH  14  16
ATOM     16  C   UNL     1      -0.295  10.486  18.435  0.00  0.00    +0.000 A 
ATOM     17  C   UNL     1      -1.616  10.402  17.978  0.00  0.00    +0.000 A 
ATOM     18  C   UNL     1      -2.635  11.164  18.552  0.00  0.00    +0.000 A 
ATOM     19  C   UNL     1      -2.350  12.016  19.611  0.00  0.00    +0.000 A 
ATOM     20  C   UNL     1      -1.047  12.088  20.105  0.00  0.00    +0.000 A 
ATOM     21  C   UNL     1      -0.025  11.322  19.526  0.00  0.00    +0.000 A 
ENDBRANCH  14  16
ENDBRANCH   5  12
BRANCH   1  22
ATOM     22  C   UNL     1       6.100   4.816  17.710  0.00  0.00    +0.000 C 
BRANCH  22  26
ATOM     23  C   UNL     1       6.494   3.754  12.733  0.00  0.00    +0.000 C 
ATOM     24  C   UNL     1       6.603   4.291  14.108  0.00  0.00    +0.000 A 
ATOM     25  C   UNL     1       5.814   3.975  15.234  0.00  0.00    +0.000 A 
ATOM     26  C   UNL     1       6.366   4.708  16.257  0.00  0.00    +0.000 A 
ATOM     27  O   UNL     1       7.404   5.439  15.769  0.00  0.00    +0.000 OA
ATOM     28  N   UNL     1       7.557   5.178  14.416  0.00  0.00    +0.000 NA
ENDBRANCH  22  26
ENDBRANCH   1  22
TORSDOF 4
ENDMDL
MODEL 4
REMARK VINA RESULT:      -8.4      1.896      2.162
REMARK  Name = 
REMARK  5 active torsions:
REMARK  status: ('A' for Active; 'I' for Inactive)
REMARK    1  A    between atoms: C_1  and  C_2
REMARK    2  A    between atoms: C_4  and  C_5
REMARK    3  A    between atoms: C_5  and  N_6
REMARK    4  A    between atoms: C_10  and  C_11
REMARK    5  A    between atoms: N_13  and  C_14
REMARK                            x       y       z     vdW  Elec       q    Type
REMARK                         _______ _______ _______ _____ _____    ______ ____
ROOT
ATOM      1  N   UNL     1       5.330   5.024  18.159  0.00  0.00    +0.000 N 
ATOM      2  C   UNL     1       4.766   6.260  17.863  0.00  0.00    +0.000 C 
ATOM      3  O   UNL     1       5.208   7.145  17.151  0.00  0.00    +0.000 OA
ATOM      4  C   UNL     1       3.497   6.317  18.671  0.00  0.00    +0.000 C 
ATOM      5  C   UNL     1       2.829   7.484  18.737  0.00  0.00    +0.000 C 
ATOM      6  C   UNL     1       3.359   5.018  19.347  0.00  0.00    +0.000 A 
ATOM      7  C   UNL     1       2.361   4.440  20.114  0.00  0.00    +0.000 A 
ATOM      8  C   UNL     1       2.563   3.151  20.626  0.00  0.00    +0.000 A 
ATOM      9  C   UNL     1       3.745   2.449  20.346  0.00  0.00    +0.000 A 
ATOM     10  C   UNL     1       4.733   3.015  19.536  0.00  0.00    +0.000 A 
ATOM     11  C   UNL     1       4.513   4.288  19.035  0.00  0.00    +0.000 A 
ENDROOT
BRANCH   5  12
ATOM     12  C   UNL     1       1.821   7.757  19.786  0.00  0.00    +0.000 C 
ATOM     13  O   UNL     1       1.285   6.813  20.357  0.00  0.00    +0.000 OA
ATOM     14  N   UNL     1       1.610   9.096  20.053  0.00  0.00    +0.000 N 
ATOM     15  H   UNL     1       2.081   9.782  19.477  0.00  0.00    +0.000 HD
BRANCH  14  16
ATOM     16  C   UNL     1       0.702   9.592  21.024  0.00  0.00    +0.000 A 
ATOM     17  C   UNL     1      -0.273  10.555  20.734  0.00  0.00    +0.000 A 
ATOM     18  C   UNL     1      -1.110  11.066  21.728  0.00  0.00    +0.000 A 
ATOM     19  C   UNL     1      -0.996  10.605  23.033  0.00  0.00    +0.000 A 
ATOM     20  C   UNL     1      -0.056   9.621  23.336  0.00  0.00    +0.000 A 
ATOM     21  C   UNL     1       0.784   9.110  22.337  0.00  0.00    +0.000 A 
ENDBRANCH  14  16
ENDBRANCH   5  12
BRANCH   1  22
ATOM     22  C   UNL     1       6.613   4.588  17.659  0.00  0.00    +0.000 C 
BRANCH  22  26
ATOM     23  C   UNL     1       6.142   3.657  12.662  0.00  0.00    +0.000 C 
ATOM     24  C   UNL     1       6.461   4.179  14.010  0.00  0.00    +0.000 A 
ATOM     25  C   UNL     1       5.938   3.764  15.254  0.00  0.00    +0.000 A 
ATOM     26  C   UNL     1       6.603   4.533  16.179  0.00  0.00    +0.000 A 
ATOM     27  O   UNL     1       7.451   5.374  15.529  0.00  0.00    +0.000 OA
ATOM     28  N   UNL     1       7.366   5.154  14.164  0.00  0.00    +0.000 NA
ENDBRANCH  22  26
ENDBRANCH   1  22
TORSDOF 4
ENDMDL
MODEL 5
REMARK VINA RESULT:      -8.2      3.660     10.447
REMARK  Name = 
REMARK  5 active torsions:
REMARK  status: ('A' for Active; 'I' for Inactive)
REMARK    1  A    between atoms: C_1  and  C_2
REMARK    2  A    between atoms: C_4  and  C_5
REMARK    3  A    between atoms: C_5  and  N_6
REMARK    4  A    between atoms: C_10  and  C_11
REMARK    5  A    between atoms: N_13  and  C_14
REMARK                            x       y       z     vdW  Elec       q    Type
REMARK                         _______ _______ _______ _____ _____    ______ ____
ROOT
ATOM      1  N   UNL     1      -0.777  11.495  21.901  0.00  0.00    +0.000 N 
ATOM      2  C   UNL     1      -0.135  10.375  22.417  0.00  0.00    +0.000 C 
ATOM      3  O   UNL     1       0.171  10.141  23.573  0.00  0.00    +0.000 OA
ATOM      4  C   UNL     1       0.172   9.512  21.222  0.00  0.00    +0.000 C 
ATOM      5  C   UNL     1       0.968   8.439  21.392  0.00  0.00    +0.000 C 
ATOM      6  C   UNL     1      -0.411  10.179  20.048  0.00  0.00    +0.000 A 
ATOM      7  C   UNL     1      -0.557   9.820  18.718  0.00  0.00    +0.000 A 
ATOM      8  C   UNL     1      -1.171  10.721  17.839  0.00  0.00    +0.000 A 
ATOM      9  C   UNL     1      -1.653  11.955  18.303  0.00  0.00    +0.000 A 
ATOM     10  C   UNL     1      -1.545  12.298  19.653  0.00  0.00    +0.000 A 
ATOM     11  C   UNL     1      -0.938  11.392  20.508  0.00  0.00    +0.000 A 
ENDROOT
BRANCH   5  12
ATOM     12  C   UNL     1       1.640   7.769  20.256  0.00  0.00    +0.000 C 
ATOM     13  O   UNL     1       1.930   8.428  19.263  0.00  0.00    +0.000 OA
ATOM     14  N   UNL     1       1.918   6.431  20.455  0.00  0.00    +0.000 N 
ATOM     15  H   UNL     1       1.584   5.989  21.302  0.00  0.00    +0.000 HD
BRANCH  14  16
ATOM     16  C   UNL     1       2.566   5.592  19.511  0.00  0.00    +0.000 A 
ATOM     17  C   UNL     1       1.873   4.874  18.528  0.00  0.00    +0.000 A 
ATOM     18  C   UNL     1       2.536   4.011  17.653  0.00  0.00    +0.000 A 
ATOM     19  C   UNL     1       3.914   3.864  17.737  0.00  0.00    +0.000 A 
ATOM     20  C   UNL     1       4.628   4.598  18.685  0.00  0.00    +0.000 A 
ATOM     21  C   UNL     1       3.960   5.463  19.563  0.00  0.00    +0.000 A 
ENDBRANCH  14  16
ENDBRANCH   5  12
BRANCH   1  22
ATOM     22  C   UNL     1      -1.175  12.630  22.700  0.00  0.00    +0.000 C 
BRANCH  22  26
ATOM     23  C   UNL     1      -6.225  13.360  22.866  0.00  0.00    +0.000 C 
ATOM     24  C   UNL     1      -4.824  12.911  23.034  0.00  0.00    +0.000 A 
ATOM     25  C   UNL     1      -3.684  13.314  22.305  0.00  0.00    +0.000 A 
ATOM     26  C   UNL     1      -2.643  12.638  22.896  0.00  0.00    +0.000 A 
ATOM     27  O   UNL     1      -3.132  11.858  23.897  0.00  0.00    +0.000 OA
ATOM     28  N   UNL     1      -4.504  12.028  23.988  0.00  0.00    +0.000 NA
ENDBRANCH  22  26
ENDBRANCH   1  22
TORSDOF 4
ENDMDL
MODEL 6
REMARK VINA RESULT:      -8.1      3.194     10.197
REMARK  Name = 
REMARK  5 active torsions:
REMARK  status: ('A' for Active; 'I' for Inactive)
REMARK    1  A    between atoms: C_1  and  C_2
REMARK    2  A    between atoms: C_4  and  C_5
REMARK    3  A    between atoms: C_5  and  N_6
REMARK    4  A    between atoms: C_10  and  C_11
REMARK    5  A    between atoms: N_13  and  C_14
REMARK                            x       y       z     vdW  Elec       q    Type
REMARK                         _______ _______ _______ _____ _____    ______ ____
ROOT
ATOM      1  N   UNL     1      -1.354  12.225  19.901  0.00  0.00    +0.000 N 
ATOM      2  C   UNL     1      -0.243  11.609  20.468  0.00  0.00    +0.000 C 
ATOM      3  O   UNL     1       0.390  11.943  21.454  0.00  0.00    +0.000 OA
ATOM      4  C   UNL     1       0.071  10.451  19.558  0.00  0.00    +0.000 C 
ATOM      5  C   UNL     1       1.223   9.779  19.748  0.00  0.00    +0.000 C 
ATOM      6  C   UNL     1      -0.975  10.420  18.524  0.00  0.00    +0.000 A 
ATOM      7  C   UNL     1      -1.285   9.535  17.504  0.00  0.00    +0.000 A 
ATOM      8  C   UNL     1      -2.376   9.820  16.672  0.00  0.00    +0.000 A 
ATOM      9  C   UNL     1      -3.156  10.968  16.884  0.00  0.00    +0.000 A 
ATOM     10  C   UNL     1      -2.868  11.837  17.940  0.00  0.00    +0.000 A 
ATOM     11  C   UNL     1      -1.788  11.536  18.755  0.00  0.00    +0.000 A 
ENDROOT
BRANCH   5  12
ATOM     12  C   UNL     1       1.808   8.908  18.704  0.00  0.00    +0.000 C 
ATOM     13  O   UNL     1       1.909   9.336  17.559  0.00  0.00    +0.000 OA
ATOM     14  N   UNL     1       2.231   7.672  19.152  0.00  0.00    +0.000 N 
ATOM     15  H   UNL     1       2.047   7.418  20.113  0.00  0.00    +0.000 HD
BRANCH  14  16
ATOM     16  C   UNL     1       2.832   6.679  18.333  0.00  0.00    +0.000 A 
ATOM     17  C   UNL     1       2.314   5.385  18.201  0.00  0.00    +0.000 A 
ATOM     18  C   UNL     1       2.963   4.415  17.435  0.00  0.00    +0.000 A 
ATOM     19  C   UNL     1       4.141   4.732  16.770  0.00  0.00    +0.000 A 
ATOM     20  C   UNL     1       4.654   6.026  16.860  0.00  0.00    +0.000 A 
ATOM     21  C   UNL     1       4.001   6.998  17.630  0.00  0.00    +0.000 A 
ENDBRANCH  14  16
ENDBRANCH   5  12
BRANCH   1  22
ATOM     22  C   UNL     1      -1.943  13.441  20.410  0.00  0.00    +0.000 C 
BRANCH  22  26
ATOM     23  C   UNL     1      -4.408  12.420  24.762  0.00  0.00    +0.000 C 
ATOM     24  C   UNL     1      -3.989  12.673  23.366  0.00  0.00    +0.000 A 
ATOM     25  C   UNL     1      -2.739  13.134  22.899  0.00  0.00    +0.000 A 
ATOM     26  C   UNL     1      -2.866  13.142  21.531  0.00  0.00    +0.000 A 
ATOM     27  O   UNL     1      -4.121  12.738  21.199  0.00  0.00    +0.000 OA
ATOM     28  N   UNL     1      -4.831  12.440  22.351  0.00  0.00    +0.000 NA
ENDBRANCH  22  26
ENDBRANCH   1  22
TORSDOF 4
ENDMDL
MODEL 7
REMARK VINA RESULT:      -8.0      1.682      1.975
REMARK  Name = 
REMARK  5 active torsions:
REMARK  status: ('A' for Active; 'I' for Inactive)
REMARK    1  A    between atoms: C_1  and  C_2
REMARK    2  A    between atoms: C_4  and  C_5
REMARK    3  A    between atoms: C_5  and  N_6
REMARK    4  A    between atoms: C_10  and  C_11
REMARK    5  A    between atoms: N_13  and  C_14
REMARK                            x       y       z     vdW  Elec       q    Type
REMARK                         _______ _______ _______ _____ _____    ______ ____
ROOT
ATOM      1  N   UNL     1       5.028   5.310  17.278  0.00  0.00    +0.000 N 
ATOM      2  C   UNL     1       4.864   6.675  17.066  0.00  0.00    +0.000 C 
ATOM      3  O   UNL     1       5.679   7.483  16.657  0.00  0.00    +0.000 OA
ATOM      4  C   UNL     1       3.459   6.977  17.516  0.00  0.00    +0.000 C 
ATOM      5  C   UNL     1       3.077   8.266  17.609  0.00  0.00    +0.000 C 
ATOM      6  C   UNL     1       2.845   5.697  17.898  0.00  0.00    +0.000 A 
ATOM      7  C   UNL     1       1.563   5.324  18.269  0.00  0.00    +0.000 A 
ATOM      8  C   UNL     1       1.315   3.981  18.584  0.00  0.00    +0.000 A 
ATOM      9  C   UNL     1       2.341   3.027  18.500  0.00  0.00    +0.000 A 
ATOM     10  C   UNL     1       3.623   3.395  18.084  0.00  0.00    +0.000 A 
ATOM     11  C   UNL     1       3.847   4.727  17.772  0.00  0.00    +0.000 A 
ENDROOT
BRANCH   5  12
ATOM     12  C   UNL     1       1.894   8.681  18.394  0.00  0.00    +0.000 C 
ATOM     13  O   UNL     1       0.817   8.818  17.822  0.00  0.00    +0.000 OA
ATOM     14  N   UNL     1       2.123   8.840  19.747  0.00  0.00    +0.000 N 
ATOM     15  H   UNL     1       3.070   8.745  20.090  0.00  0.00    +0.000 HD
BRANCH  14  16
ATOM     16  C   UNL     1       1.136   9.222  20.694  0.00  0.00    +0.000 A 
ATOM     17  C   UNL     1       0.828  10.558  20.977  0.00  0.00    +0.000 A 
ATOM     18  C   UNL     1      -0.105  10.899  21.957  0.00  0.00    +0.000 A 
ATOM     19  C   UNL     1      -0.763   9.900  22.664  0.00  0.00    +0.000 A 
ATOM     20  C   UNL     1      -0.497   8.562  22.372  0.00  0.00    +0.000 A 
ATOM     21  C   UNL     1       0.441   8.223  21.387  0.00  0.00    +0.000 A 
ENDBRANCH  14  16
ENDBRANCH   5  12
BRANCH   1  22
ATOM     22  C   UNL     1       6.270   4.608  17.059  0.00  0.00    +0.000 C 
BRANCH  22  26
ATOM     23  C   UNL     1       7.607   4.871  12.139  0.00  0.00    +0.000 C 
ATOM     24  C   UNL     1       7.056   4.528  13.470  0.00  0.00    +0.000 A 
ATOM     25  C   UNL     1       7.357   5.115  14.717  0.00  0.00    +0.000 A 
ATOM     26  C   UNL     1       6.537   4.465  15.609  0.00  0.00    +0.000 A 
ATOM     27  O   UNL     1       5.811   3.528  14.942  0.00  0.00    +0.000 OA
ATOM     28  N   UNL     1       6.134   3.565  13.595  0.00  0.00    +0.000 NA
ENDBRANCH  22  26
ENDBRANCH   1  22
TORSDOF 4
ENDMDL
MODEL 8
REMARK VINA RESULT:      -7.9      1.505      1.814
REMARK  Name = 
REMARK  5 active torsions:
REMARK  status: ('A' for Active; 'I' for Inactive)
REMARK    1  A    between atoms: C_1  and  C_2
REMARK    2  A    between atoms: C_4  and  C_5
REMARK    3  A    between atoms: C_5  and  N_6
REMARK    4  A    between atoms: C_10  and  C_11
REMARK    5  A    between atoms: N_13  and  C_14
REMARK                            x       y       z     vdW  Elec       q    Type
REMARK                         _______ _______ _______ _____ _____    ______ ____
ROOT
ATOM      1  N   UNL     1       5.063   4.693  16.465  0.00  0.00    +0.000 N 
ATOM      2  C   UNL     1       4.905   6.073  16.537  0.00  0.00    +0.000 C 
ATOM      3  O   UNL     1       5.613   6.945  16.065  0.00  0.00    +0.000 OA
ATOM      4  C   UNL     1       3.684   6.284  17.394  0.00  0.00    +0.000 C 
ATOM      5  C   UNL     1       3.394   7.534  17.801  0.00  0.00    +0.000 C 
ATOM      6  C   UNL     1       3.143   4.952  17.706  0.00  0.00    +0.000 A 
ATOM      7  C   UNL     1       1.993   4.513  18.341  0.00  0.00    +0.000 A 
ATOM      8  C   UNL     1       1.783   3.134  18.481  0.00  0.00    +0.000 A 
ATOM      9  C   UNL     1       2.710   2.215  17.965  0.00  0.00    +0.000 A 
ATOM     10  C   UNL     1       3.848   2.659  17.286  0.00  0.00    +0.000 A 
ATOM     11  C   UNL     1       4.035   4.026  17.154  0.00  0.00    +0.000 A 
ENDROOT
BRANCH   5  12
ATOM     12  C   UNL     1       2.480   7.800  18.935  0.00  0.00    +0.000 C 
ATOM     13  O   UNL     1       2.381   6.966  19.829  0.00  0.00    +0.000 OA
ATOM     14  N   UNL     1       1.839   9.023  18.887  0.00  0.00    +0.000 N 
ATOM     15  H   UNL     1       1.968   9.603  18.069  0.00  0.00    +0.000 HD
BRANCH  14  16
ATOM     16  C   UNL     1       0.929   9.496  19.869  0.00  0.00    +0.000 A 
ATOM     17  C   UNL     1       0.782   8.894  21.125  0.00  0.00    +0.000 A 
ATOM     18  C   UNL     1      -0.165   9.348  22.044  0.00  0.00    +0.000 A 
ATOM     19  C   UNL     1      -0.976  10.430  21.726  0.00  0.00    +0.000 A 
ATOM     20  C   UNL     1      -0.822  11.066  20.494  0.00  0.00    +0.000 A 
ATOM     21  C   UNL     1       0.130  10.608  19.572  0.00  0.00    +0.000 A 
ENDBRANCH  14  16
ENDBRANCH   5  12
BRANCH   1  22
ATOM     22  C   UNL     1       6.173   4.048  15.803  0.00  0.00    +0.000 C 
BRANCH  22  26
ATOM     23  C   UNL     1       4.402   3.213  11.089  0.00  0.00    +0.000 C 
ATOM     24  C   UNL     1       5.199   3.508  12.301  0.00  0.00    +0.000 A 
ATOM     25  C   UNL     1       4.744   3.673  13.627  0.00  0.00    +0.000 A 
ATOM     26  C   UNL     1       5.889   3.875  14.360  0.00  0.00    +0.000 A 
ATOM     27  O   UNL     1       6.960   3.860  13.522  0.00  0.00    +0.000 OA
ATOM     28  N   UNL     1       6.531   3.628  12.226  0.00  0.00    +0.000 NA
ENDBRANCH  22  26
ENDBRANCH   1  22
TORSDOF 4
ENDMDL
MODEL 9
REMARK VINA RESULT:      -7.8      3.558      9.744
REMARK  Name = 
REMARK  5 active torsions:
REMARK  status: ('A' for Active; 'I' for Inactive)
REMARK    1  A    between atoms: C_1  and  C_2
REMARK    2  A    between atoms: C_4  and  C_5
REMARK    3  A    between atoms: C_5  and  N_6
REMARK    4  A    between atoms: C_10  and  C_11
REMARK    5  A    between atoms: N_13  and  C_14
REMARK                            x       y       z     vdW  Elec       q    Type
REMARK                         _______ _______ _______ _____ _____    ______ ____
ROOT
ATOM      1  N   UNL     1      -0.935  11.399  21.647  0.00  0.00    +0.000 N 
ATOM      2  C   UNL     1      -0.194  10.369  22.217  0.00  0.00    +0.000 C 
ATOM      3  O   UNL     1       0.142  10.230  23.380  0.00  0.00    +0.000 OA
ATOM      4  C   UNL     1       0.175   9.468  21.069  0.00  0.00    +0.000 C 
ATOM      5  C   UNL     1       1.063   8.479  21.289  0.00  0.00    +0.000 C 
ATOM      6  C   UNL     1      -0.475  10.013  19.868  0.00  0.00    +0.000 A 
ATOM      7  C   UNL     1      -0.602   9.565  18.563  0.00  0.00    +0.000 A 
ATOM      8  C   UNL     1      -1.300  10.358  17.642  0.00  0.00    +0.000 A 
ATOM      9  C   UNL     1      -1.883  11.570  18.041  0.00  0.00    +0.000 A 
ATOM     10  C   UNL     1      -1.792  12.000  19.368  0.00  0.00    +0.000 A 
ATOM     11  C   UNL     1      -1.101  11.201  20.265  0.00  0.00    +0.000 A 
ENDROOT
BRANCH   5  12
ATOM     12  C   UNL     1       1.780   7.805  20.183  0.00  0.00    +0.000 C 
ATOM     13  O   UNL     1       2.142   8.467  19.216  0.00  0.00    +0.000 OA
ATOM     14  N   UNL     1       2.011   6.457  20.380  0.00  0.00    +0.000 N 
ATOM     15  H   UNL     1       1.618   6.015  21.200  0.00  0.00    +0.000 HD
BRANCH  14  16
ATOM     16  C   UNL     1       2.688   5.612  19.462  0.00  0.00    +0.000 A 
ATOM     17  C   UNL     1       4.082   5.477  19.436  0.00  0.00    +0.000 A 
ATOM     18  C   UNL     1       4.720   4.684  18.481  0.00  0.00    +0.000 A 
ATOM     19  C   UNL     1       3.967   3.995  17.539  0.00  0.00    +0.000 A 
ATOM     20  C   UNL     1       2.575   4.087  17.569  0.00  0.00    +0.000 A 
ATOM     21  C   UNL     1       1.937   4.885  18.530  0.00  0.00    +0.000 A 
ENDBRANCH  14  16
ENDBRANCH   5  12
BRANCH   1  22
ATOM     22  C   UNL     1      -1.423  12.540  22.385  0.00  0.00    +0.000 C 
BRANCH  22  26
ATOM     23  C   UNL     1       2.344  15.893  21.598  0.00  0.00    +0.000 C 
ATOM     24  C   UNL     1       1.168  15.126  22.067  0.00  0.00    +0.000 A 
ATOM     25  C   UNL     1       0.573  13.991  21.475  0.00  0.00    +0.000 A 
ATOM     26  C   UNL     1      -0.443  13.649  22.335  0.00  0.00    +0.000 A 
ATOM     27  O   UNL     1      -0.472  14.539  23.363  0.00  0.00    +0.000 OA
ATOM     28  N   UNL     1       0.541  15.469  23.199  0.00  0.00    +0.000 NA
ENDBRANCH  22  26
ENDBRANCH   1  22
TORSDOF 4
ENDMDL
