MODEL 1
REMARK VINA RESULT:      -8.4      0.000      0.000
REMARK  Name = 
REMARK  5 active torsions:
REMARK  status: ('A' for Active; 'I' for Inactive)
REMARK    1  A    between atoms: C_1  and  C_2
REMARK    2  A    between atoms: C_5  and  N_6
REMARK    3  A    between atoms: C_8  and  C_9
REMARK    4  A    between atoms: N_17  and  C_18
REMARK    5  A    between atoms: C_23  and  C_24
REMARK                            x       y       z     vdW  Elec       q    Type
REMARK                         _______ _______ _______ _____ _____    ______ ____
ROOT
ATOM      1  N   UNL     1       3.045   5.620  19.248  0.00  0.00    +0.000 N 
ATOM      2  C   UNL     1       4.470   5.498  19.463  0.00  0.00    +0.000 C 
ATOM      3  C   UNL     1       4.843   4.174  18.819  0.00  0.00    +0.000 C 
ATOM      4  C   UNL     1       3.572   3.346  18.898  0.00  0.00    +0.000 C 
ATOM      5  C   UNL     1       2.473   4.378  18.942  0.00  0.00    +0.000 C 
ATOM      6  O   UNL     1       1.301   4.100  18.736  0.00  0.00    +0.000 OA
ENDROOT
BRANCH   3   7
ATOM      7  C   UNL     1       5.436   4.281  17.434  0.00  0.00    +0.000 A 
ATOM      8  N   UNL     1       4.851   3.721  16.388  0.00  0.00    +0.000 NA
ATOM      9  C   UNL     1       5.618   4.023  15.297  0.00  0.00    +0.000 A 
ATOM     10  C   UNL     1       5.429   3.682  13.950  0.00  0.00    +0.000 A 
ATOM     11  C   UNL     1       6.364   4.118  13.003  0.00  0.00    +0.000 A 
ATOM     12  C   UNL     1       7.469   4.874  13.392  0.00  0.00    +0.000 A 
ATOM     13  C   UNL     1       7.673   5.222  14.733  0.00  0.00    +0.000 A 
ATOM     14  C   UNL     1       6.721   4.781  15.665  0.00  0.00    +0.000 A 
ATOM     15  N   UNL     1       6.590   4.938  17.030  0.00  0.00    +0.000 N 
ATOM     16  C   UNL     1       7.525   5.681  17.839  0.00  0.00    +0.000 C 
ENDBRANCH   3   7
BRANCH   1  21
ATOM     17  C   UNL     1       0.535  10.804  19.439  0.00  0.00    +0.000 C 
ATOM     18  C   UNL     1       1.160   9.437  19.414  0.00  0.00    +0.000 A 
ATOM     19  C   UNL     1       1.742   8.973  18.230  0.00  0.00    +0.000 A 
ATOM     20  C   UNL     1       2.335   7.708  18.166  0.00  0.00    +0.000 A 
ATOM     21  C   UNL     1       2.372   6.872  19.284  0.00  0.00    +0.000 A 
ATOM     22  C   UNL     1       1.783   7.339  20.470  0.00  0.00    +0.000 A 
ATOM     23  C   UNL     1       1.186   8.612  20.552  0.00  0.00    +0.000 A 
ATOM     24  C   UNL     1       0.592   9.068  21.858  0.00  0.00    +0.000 C 
ENDBRANCH   1  21
TORSDOF 2
ENDMDL
MODEL 2
REMARK VINA RESULT:      -8.0      0.549      1.409
REMARK  Name = 
REMARK  5 active torsions:
REMARK  status: ('A' for Active; 'I' for Inactive)
REMARK    1  A    between atoms: C_1  and  C_2
REMARK    2  A    between atoms: C_5  and  N_6
REMARK    3  A    between atoms: C_8  and  C_9
REMARK    4  A    between atoms: N_17  and  C_18
REMARK    5  A    between atoms: C_23  and  C_24
REMARK                            x       y       z     vdW  Elec       q    Type
REMARK                         _______ _______ _______ _____ _____    ______ ____
ROOT
ATOM      1  N   UNL     1       2.997   5.278  19.548  0.00  0.00    +0.000 N 
ATOM      2  C   UNL     1       4.410   5.049  19.756  0.00  0.00    +0.000 C 
ATOM      3  C   UNL     1       4.717   3.790  18.963  0.00  0.00    +0.000 C 
ATOM      4  C   UNL     1       3.400   3.034  18.937  0.00  0.00    +0.000 C 
ATOM      5  C   UNL     1       2.360   4.115  19.094  0.00  0.00    +0.000 C 
ATOM      6  O   UNL     1       1.178   3.931  18.850  0.00  0.00    +0.000 OA
ENDROOT
BRANCH   3   7
ATOM      7  C   UNL     1       5.333   4.023  17.604  0.00  0.00    +0.000 A 
ATOM      8  N   UNL     1       4.717   3.649  16.494  0.00  0.00    +0.000 NA
ATOM      9  C   UNL     1       5.519   4.024  15.452  0.00  0.00    +0.000 A 
ATOM     10  C   UNL     1       5.320   3.873  14.072  0.00  0.00    +0.000 A 
ATOM     11  C   UNL     1       6.298   4.348  13.191  0.00  0.00    +0.000 A 
ATOM     12  C   UNL     1       7.455   4.957  13.674  0.00  0.00    +0.000 A 
ATOM     13  C   UNL     1       7.670   5.115  15.048  0.00  0.00    +0.000 A 
ATOM     14  C   UNL     1       6.675   4.638  15.915  0.00  0.00    +0.000 A 
ATOM     15  N   UNL     1       6.540   4.631  17.289  0.00  0.00    +0.000 N 
ATOM     16  C   UNL     1       7.522   5.187  18.188  0.00  0.00    +0.000 C 
ENDBRANCH   3   7
BRANCH   1  21
ATOM     17  C   UNL     1       0.342  10.351  20.191  0.00  0.00    +0.000 C 
ATOM     18  C   UNL     1       1.065   9.047  20.003  0.00  0.00    +0.000 A 
ATOM     19  C   UNL     1       1.017   8.087  21.019  0.00  0.00    +0.000 A 
ATOM     20  C   UNL     1       1.676   6.861  20.883  0.00  0.00    +0.000 A 
ATOM     21  C   UNL     1       2.395   6.553  19.726  0.00  0.00    +0.000 A 
ATOM     22  C   UNL     1       2.445   7.521  18.710  0.00  0.00    +0.000 A 
ATOM     23  C   UNL     1       1.784   8.759  18.830  0.00  0.00    +0.000 A 
ATOM     24  C   UNL     1       1.852   9.747  17.696  0.00  0.00    +0.000 C 
ENDBRANCH   1  21
TORSDOF 2
ENDMDL
MODEL 3
REMARK VINA RESULT:      -7.9      1.569      7.183
REMARK  Name = 
REMARK  5 active torsions:
REMARK  status: ('A' for Active; 'I' for Inactive)
REMARK    1  A    between atoms: C_1  and  C_2
REMARK    2  A    between atoms: C_5  and  N_6
REMARK    3  A    between atoms: C_8  and  C_9
REMARK    4  A    between atoms: N_17  and  C_18
REMARK    5  A    between atoms: C_23  and  C_24
REMARK                            x       y       z     vdW  Elec       q    Type
REMARK                         _______ _______ _______ _____ _____    ______ ____
ROOT
ATOM      1  N   UNL     1       5.280   4.095  17.010  0.00  0.00    +0.000 N 
ATOM      2  C   UNL     1       3.861   3.870  17.172  0.00  0.00    +0.000 C 
ATOM      3  C   UNL     1       3.568   4.279  18.605  0.00  0.00    +0.000 C 
ATOM      4  C   UNL     1       4.880   4.052  19.335  0.00  0.00    +0.000 C 
ATOM      5  C   UNL     1       5.922   4.180  18.252  0.00  0.00    +0.000 C 
ATOM      6  O   UNL     1       7.109   4.329  18.496  0.00  0.00    +0.000 OA
ENDROOT
BRANCH   3   7
ATOM      7  C   UNL     1       2.991   5.665  18.770  0.00  0.00    +0.000 A 
ATOM      8  N   UNL     1       3.132   6.586  17.831  0.00  0.00    +0.000 NA
ATOM      9  C   UNL     1       2.480   7.704  18.274  0.00  0.00    +0.000 A 
ATOM     10  C   UNL     1       2.319   8.950  17.650  0.00  0.00    +0.000 A 
ATOM     11  C   UNL     1       1.596   9.950  18.312  0.00  0.00    +0.000 A 
ATOM     12  C   UNL     1       1.051   9.716  19.573  0.00  0.00    +0.000 A 
ATOM     13  C   UNL     1       1.204   8.479  20.210  0.00  0.00    +0.000 A 
ATOM     14  C   UNL     1       1.926   7.488  19.527  0.00  0.00    +0.000 A 
ATOM     15  N   UNL     1       2.259   6.182  19.829  0.00  0.00    +0.000 N 
ATOM     16  C   UNL     1       1.871   5.524  21.053  0.00  0.00    +0.000 C 
ENDBRANCH   3   7
BRANCH   1  21
ATOM     17  C   UNL     1       7.592   5.013  11.811  0.00  0.00    +0.000 C 
ATOM     18  C   UNL     1       6.983   4.734  13.157  0.00  0.00    +0.000 A 
ATOM     19  C   UNL     1       7.496   5.380  14.286  0.00  0.00    +0.000 A 
ATOM     20  C   UNL     1       6.957   5.148  15.556  0.00  0.00    +0.000 A 
ATOM     21  C   UNL     1       5.885   4.271  15.735  0.00  0.00    +0.000 A 
ATOM     22  C   UNL     1       5.375   3.621  14.600  0.00  0.00    +0.000 A 
ATOM     23  C   UNL     1       5.904   3.846  13.314  0.00  0.00    +0.000 A 
ATOM     24  C   UNL     1       5.299   3.138  12.131  0.00  0.00    +0.000 C 
ENDBRANCH   1  21
TORSDOF 2
ENDMDL
MODEL 4
REMARK VINA RESULT:      -7.5      4.081      8.070
REMARK  Name = 
REMARK  5 active torsions:
REMARK  status: ('A' for Active; 'I' for Inactive)
REMARK    1  A    between atoms: C_1  and  C_2
REMARK    2  A    between atoms: C_5  and  N_6
REMARK    3  A    between atoms: C_8  and  C_9
REMARK    4  A    between atoms: N_17  and  C_18
REMARK    5  A    between atoms: C_23  and  C_24
REMARK                            x       y       z     vdW  Elec       q    Type
REMARK                         _______ _______ _______ _____ _____    ______ ____
ROOT
ATOM      1  N   UNL     1       2.059   7.740  18.940  0.00  0.00    +0.000 N 
ATOM      2  C   UNL     1       1.429   8.586  19.930  0.00  0.00    +0.000 C 
ATOM      3  C   UNL     1       1.267   9.929  19.241  0.00  0.00    +0.000 C 
ATOM      4  C   UNL     1       2.385   9.962  18.214  0.00  0.00    +0.000 C 
ATOM      5  C   UNL     1       2.656   8.505  17.930  0.00  0.00    +0.000 C 
ATOM      6  O   UNL     1       3.299   8.132  16.961  0.00  0.00    +0.000 OA
ENDROOT
BRANCH   3   7
ATOM      7  C   UNL     1      -0.109  10.196  18.678  0.00  0.00    +0.000 A 
ATOM      8  N   UNL     1      -0.485   9.701  17.510  0.00  0.00    +0.000 NA
ATOM      9  C   UNL     1      -1.777  10.102  17.307  0.00  0.00    +0.000 A 
ATOM     10  C   UNL     1      -2.637   9.833  16.233  0.00  0.00    +0.000 A 
ATOM     11  C   UNL     1      -3.934  10.361  16.256  0.00  0.00    +0.000 A 
ATOM     12  C   UNL     1      -4.362  11.146  17.326  0.00  0.00    +0.000 A 
ATOM     13  C   UNL     1      -3.515  11.425  18.404  0.00  0.00    +0.000 A 
ATOM     14  C   UNL     1      -2.222  10.881  18.365  0.00  0.00    +0.000 A 
ATOM     15  N   UNL     1      -1.148  10.931  19.232  0.00  0.00    +0.000 N 
ATOM     16  C   UNL     1      -1.172  11.637  20.490  0.00  0.00    +0.000 C 
ENDBRANCH   3   7
BRANCH   1  21
ATOM     17  C   UNL     1       1.532   2.006  19.166  0.00  0.00    +0.000 C 
ATOM     18  C   UNL     1       1.699   3.499  19.136  0.00  0.00    +0.000 A 
ATOM     19  C   UNL     1       1.597   4.174  17.915  0.00  0.00    +0.000 A 
ATOM     20  C   UNL     1       1.745   5.563  17.846  0.00  0.00    +0.000 A 
ATOM     21  C   UNL     1       1.990   6.321  18.993  0.00  0.00    +0.000 A 
ATOM     22  C   UNL     1       2.095   5.640  20.216  0.00  0.00    +0.000 A 
ATOM     23  C   UNL     1       1.945   4.242  20.304  0.00  0.00    +0.000 A 
ATOM     24  C   UNL     1       2.044   3.570  21.648  0.00  0.00    +0.000 C 
ENDBRANCH   1  21
TORSDOF 2
ENDMDL
MODEL 5
REMARK VINA RESULT:      -7.5      3.724      8.289
REMARK  Name = 
REMARK  5 active torsions:
REMARK  status: ('A' for Active; 'I' for Inactive)
REMARK    1  A    between atoms: C_1  and  C_2
REMARK    2  A    between atoms: C_5  and  N_6
REMARK    3  A    between atoms: C_8  and  C_9
REMARK    4  A    between atoms: N_17  and  C_18
REMARK    5  A    between atoms: C_23  and  C_24
REMARK                            x       y       z     vdW  Elec       q    Type
REMARK                         _______ _______ _______ _____ _____    ______ ____
ROOT
ATOM      1  N   UNL     1       1.946   7.999  19.079  0.00  0.00    +0.000 N 
ATOM      2  C   UNL     1       1.346   8.942  19.996  0.00  0.00    +0.000 C 
ATOM      3  C   UNL     1       1.158  10.208  19.177  0.00  0.00    +0.000 C 
ATOM      4  C   UNL     1       2.245  10.134  18.118  0.00  0.00    +0.000 C 
ATOM      5  C   UNL     1       2.510   8.656  17.977  0.00  0.00    +0.000 C 
ATOM      6  O   UNL     1       3.124   8.185  17.032  0.00  0.00    +0.000 OA
ENDROOT
BRANCH   3   7
ATOM      7  C   UNL     1      -0.235  10.416  18.632  0.00  0.00    +0.000 A 
ATOM      8  N   UNL     1      -0.616   9.875  17.486  0.00  0.00    +0.000 NA
ATOM      9  C   UNL     1      -1.922  10.231  17.297  0.00  0.00    +0.000 A 
ATOM     10  C   UNL     1      -2.793   9.905  16.247  0.00  0.00    +0.000 A 
ATOM     11  C   UNL     1      -4.105  10.394  16.279  0.00  0.00    +0.000 A 
ATOM     12  C   UNL     1      -4.539  11.197  17.333  0.00  0.00    +0.000 A 
ATOM     13  C   UNL     1      -3.681  11.533  18.387  0.00  0.00    +0.000 A 
ATOM     14  C   UNL     1      -2.373  11.027  18.340  0.00  0.00    +0.000 A 
ATOM     15  N   UNL     1      -1.286  11.135  19.184  0.00  0.00    +0.000 N 
ATOM     16  C   UNL     1      -1.309  11.877  20.421  0.00  0.00    +0.000 C 
ENDBRANCH   3   7
BRANCH   1  21
ATOM     17  C   UNL     1       1.926   2.305  19.971  0.00  0.00    +0.000 C 
ATOM     18  C   UNL     1       1.914   3.784  19.701  0.00  0.00    +0.000 A 
ATOM     19  C   UNL     1       1.645   4.668  20.751  0.00  0.00    +0.000 A 
ATOM     20  C   UNL     1       1.626   6.051  20.541  0.00  0.00    +0.000 A 
ATOM     21  C   UNL     1       1.883   6.593  19.280  0.00  0.00    +0.000 A 
ATOM     22  C   UNL     1       2.149   5.702  18.227  0.00  0.00    +0.000 A 
ATOM     23  C   UNL     1       2.176   4.307  18.423  0.00  0.00    +0.000 A 
ATOM     24  C   UNL     1       2.491   3.404  17.260  0.00  0.00    +0.000 C 
ENDBRANCH   1  21
TORSDOF 2
ENDMDL
MODEL 6
REMARK VINA RESULT:      -7.4      3.688      5.987
REMARK  Name = 
REMARK  5 active torsions:
REMARK  status: ('A' for Active; 'I' for Inactive)
REMARK    1  A    between atoms: C_1  and  C_2
REMARK    2  A    between atoms: C_5  and  N_6
REMARK    3  A    between atoms: C_8  and  C_9
REMARK    4  A    between atoms: N_17  and  C_18
REMARK    5  A    between atoms: C_23  and  C_24
REMARK                            x       y       z     vdW  Elec       q    Type
REMARK                         _______ _______ _______ _____ _____    ______ ____
ROOT
ATOM      1  N   UNL     1       0.071   9.850  20.017  0.00  0.00    +0.000 N 
ATOM      2  C   UNL     1       1.379   9.596  19.457  0.00  0.00    +0.000 C 
ATOM      3  C   UNL     1       2.019   8.601  20.410  0.00  0.00    +0.000 C 
ATOM      4  C   UNL     1       1.351   8.879  21.745  0.00  0.00    +0.000 C 
ATOM      5  C   UNL     1       0.017   9.471  21.365  0.00  0.00    +0.000 C 
ATOM      6  O   UNL     1      -0.908   9.572  22.157  0.00  0.00    +0.000 OA
ENDROOT
BRANCH   3   7
ATOM      7  C   UNL     1       1.956   7.159  19.966  0.00  0.00    +0.000 A 
ATOM      8  N   UNL     1       1.345   6.239  20.694  0.00  0.00    +0.000 NA
ATOM      9  C   UNL     1       1.446   5.060  20.007  0.00  0.00    +0.000 A 
ATOM     10  C   UNL     1       0.953   3.789  20.337  0.00  0.00    +0.000 A 
ATOM     11  C   UNL     1       1.185   2.724  19.458  0.00  0.00    +0.000 A 
ATOM     12  C   UNL     1       1.899   2.920  18.277  0.00  0.00    +0.000 A 
ATOM     13  C   UNL     1       2.399   4.182  17.934  0.00  0.00    +0.000 A 
ATOM     14  C   UNL     1       2.150   5.238  18.825  0.00  0.00    +0.000 A 
ATOM     15  N   UNL     1       2.467   6.582  18.812  0.00  0.00    +0.000 N 
ATOM     16  C   UNL     1       3.200   7.216  17.744  0.00  0.00    +0.000 C 
ENDBRANCH   3   7
BRANCH   1  21
ATOM     17  C   UNL     1      -4.455  11.744  16.995  0.00  0.00    +0.000 C 
ATOM     18  C   UNL     1      -3.254  11.245  17.748  0.00  0.00    +0.000 A 
ATOM     19  C   UNL     1      -2.943  11.810  18.989  0.00  0.00    +0.000 A 
ATOM     20  C   UNL     1      -1.834  11.373  19.721  0.00  0.00    +0.000 A 
ATOM     21  C   UNL     1      -1.008  10.355  19.240  0.00  0.00    +0.000 A 
ATOM     22  C   UNL     1      -1.320   9.794  17.992  0.00  0.00    +0.000 A 
ATOM     23  C   UNL     1      -2.435  10.220  17.244  0.00  0.00    +0.000 A 
ATOM     24  C   UNL     1      -2.734   9.563  15.922  0.00  0.00    +0.000 C 
ENDBRANCH   1  21
TORSDOF 2
ENDMDL
MODEL 7
REMARK VINA RESULT:      -7.2      4.044      8.642
REMARK  Name = 
REMARK  5 active torsions:
REMARK  status: ('A' for Active; 'I' for Inactive)
REMARK    1  A    between atoms: C_1  and  C_2
REMARK    2  A    between atoms: C_5  and  N_6
REMARK    3  A    between atoms: C_8  and  C_9
REMARK    4  A    between atoms: N_17  and  C_18
REMARK    5  A    between atoms: C_23  and  C_24
REMARK                            x       y       z     vdW  Elec       q    Type
REMARK                         _______ _______ _______ _____ _____    ______ ____
ROOT
ATOM      1  N   UNL     1       0.694   9.478  20.365  0.00  0.00    +0.000 N 
ATOM      2  C   UNL     1      -0.231  10.225  19.541  0.00  0.00    +0.000 C 
ATOM      3  C   UNL     1      -0.391  11.557  20.253  0.00  0.00    +0.000 C 
ATOM      4  C   UNL     1      -0.119  11.237  21.713  0.00  0.00    +0.000 C 
ATOM      5  C   UNL     1       0.770  10.020  21.655  0.00  0.00    +0.000 C 
ATOM      6  O   UNL     1       1.416   9.631  22.616  0.00  0.00    +0.000 OA
ENDROOT
BRANCH   3   7
ATOM      7  C   UNL     1       0.442  12.686  19.693  0.00  0.00    +0.000 A 
ATOM      8  N   UNL     1       1.633  12.465  19.160  0.00  0.00    +0.000 NA
ATOM      9  C   UNL     1       2.104  13.675  18.730  0.00  0.00    +0.000 A 
ATOM     10  C   UNL     1       3.309  13.986  18.084  0.00  0.00    +0.000 A 
ATOM     11  C   UNL     1       3.566  15.318  17.736  0.00  0.00    +0.000 A 
ATOM     12  C   UNL     1       2.644  16.321  18.031  0.00  0.00    +0.000 A 
ATOM     13  C   UNL     1       1.437  16.027  18.677  0.00  0.00    +0.000 A 
ATOM     14  C   UNL     1       1.195  14.686  19.011  0.00  0.00    +0.000 A 
ATOM     15  N   UNL     1       0.140  14.038  19.624  0.00  0.00    +0.000 N 
ATOM     16  C   UNL     1      -1.050  14.713  20.081  0.00  0.00    +0.000 C 
ENDBRANCH   3   7
BRANCH   1  21
ATOM     17  C   UNL     1       3.584   4.991  18.193  0.00  0.00    +0.000 C 
ATOM     18  C   UNL     1       2.843   6.151  18.798  0.00  0.00    +0.000 A 
ATOM     19  C   UNL     1       2.785   7.362  18.100  0.00  0.00    +0.000 A 
ATOM     20  C   UNL     1       2.105   8.464  18.628  0.00  0.00    +0.000 A 
ATOM     21  C   UNL     1       1.455   8.388  19.863  0.00  0.00    +0.000 A 
ATOM     22  C   UNL     1       1.520   7.172  20.562  0.00  0.00    +0.000 A 
ATOM     23  C   UNL     1       2.197   6.051  20.042  0.00  0.00    +0.000 A 
ATOM     24  C   UNL     1       2.211   4.766  20.827  0.00  0.00    +0.000 C 
ENDBRANCH   1  21
TORSDOF 2
ENDMDL
MODEL 8
REMARK VINA RESULT:      -7.0      2.635      4.153
REMARK  Name = 
REMARK  5 active torsions:
REMARK  status: ('A' for Active; 'I' for Inactive)
REMARK    1  A    between atoms: C_1  and  C_2
REMARK    2  A    between atoms: C_5  and  N_6
REMARK    3  A    between atoms: C_8  and  C_9
REMARK    4  A    between atoms: N_17  and  C_18
REMARK    5  A    between atoms: C_23  and  C_24
REMARK                            x       y       z     vdW  Elec       q    Type
REMARK                         _______ _______ _______ _____ _____    ______ ____
ROOT
ATOM      1  N   UNL     1       5.506   5.601  18.591  0.00  0.00    +0.000 N 
ATOM      2  C   UNL     1       5.173   6.506  17.513  0.00  0.00    +0.000 C 
ATOM      3  C   UNL     1       6.426   6.561  16.656  0.00  0.00    +0.000 C 
ATOM      4  C   UNL     1       7.556   6.260  17.625  0.00  0.00    +0.000 C 
ATOM      5  C   UNL     1       6.894   5.450  18.711  0.00  0.00    +0.000 C 
ATOM      6  O   UNL     1       7.529   4.796  19.524  0.00  0.00    +0.000 OA
ENDROOT
BRANCH   3   7
ATOM      7  C   UNL     1       6.401   5.681  15.429  0.00  0.00    +0.000 A 
ATOM      8  N   UNL     1       7.320   5.790  14.483  0.00  0.00    +0.000 NA
ATOM      9  C   UNL     1       7.028   4.845  13.539  0.00  0.00    +0.000 A 
ATOM     10  C   UNL     1       7.699   4.537  12.347  0.00  0.00    +0.000 A 
ATOM     11  C   UNL     1       7.202   3.510  11.536  0.00  0.00    +0.000 A 
ATOM     12  C   UNL     1       6.054   2.808  11.902  0.00  0.00    +0.000 A 
ATOM     13  C   UNL     1       5.372   3.104  13.087  0.00  0.00    +0.000 A 
ATOM     14  C   UNL     1       5.890   4.132  13.890  0.00  0.00    +0.000 A 
ATOM     15  N   UNL     1       5.503   4.676  15.098  0.00  0.00    +0.000 N 
ATOM     16  C   UNL     1       4.354   4.222  15.844  0.00  0.00    +0.000 C 
ENDBRANCH   3   7
BRANCH   1  21
ATOM     17  C   UNL     1       1.382   2.787  21.468  0.00  0.00    +0.000 C 
ATOM     18  C   UNL     1       2.452   3.554  20.743  0.00  0.00    +0.000 A 
ATOM     19  C   UNL     1       3.582   2.874  20.277  0.00  0.00    +0.000 A 
ATOM     20  C   UNL     1       4.600   3.551  19.596  0.00  0.00    +0.000 A 
ATOM     21  C   UNL     1       4.515   4.924  19.353  0.00  0.00    +0.000 A 
ATOM     22  C   UNL     1       3.382   5.604  19.826  0.00  0.00    +0.000 A 
ATOM     23  C   UNL     1       2.346   4.936  20.510  0.00  0.00    +0.000 A 
ATOM     24  C   UNL     1       1.143   5.714  20.972  0.00  0.00    +0.000 C 
ENDBRANCH   1  21
TORSDOF 2
ENDMDL
MODEL 9
REMARK VINA RESULT:      -7.0      2.873      6.275
REMARK  Name = 
REMARK  5 active torsions:
REMARK  status: ('A' for Active; 'I' for Inactive)
REMARK    1  A    between atoms: C_1  and  C_2
REMARK    2  A    between atoms: C_5  and  N_6
REMARK    3  A    between atoms: C_8  and  C_9
REMARK    4  A    between atoms: N_17  and  C_18
REMARK    5  A    between atoms: C_23  and  C_24
REMARK                            x       y       z     vdW  Elec       q    Type
REMARK                         _______ _______ _______ _____ _____    ______ ____
ROOT
ATOM      1  N   UNL     1       6.651   6.179  16.835  0.00  0.00    +0.000 N 
ATOM      2  C   UNL     1       5.313   6.419  16.341  0.00  0.00    +0.000 C 
ATOM      3  C   UNL     1       4.702   5.035  16.200  0.00  0.00    +0.000 C 
ATOM      4  C   UNL     1       5.892   4.122  15.962  0.00  0.00    +0.000 C 
ATOM      5  C   UNL     1       7.042   4.852  16.609  0.00  0.00    +0.000 C 
ATOM      6  O   UNL     1       8.107   4.311  16.861  0.00  0.00    +0.000 OA
ENDROOT
BRANCH   3   7
ATOM      7  C   UNL     1       3.805   4.613  17.340  0.00  0.00    +0.000 A 
ATOM      8  N   UNL     1       3.639   3.338  17.650  0.00  0.00    +0.000 NA
ATOM      9  C   UNL     1       2.800   3.301  18.730  0.00  0.00    +0.000 A 
ATOM     10  C   UNL     1       2.321   2.197  19.450  0.00  0.00    +0.000 A 
ATOM     11  C   UNL     1       1.463   2.418  20.535  0.00  0.00    +0.000 A 
ATOM     12  C   UNL     1       1.084   3.712  20.890  0.00  0.00    +0.000 A 
ATOM     13  C   UNL     1       1.552   4.823  20.180  0.00  0.00    +0.000 A 
ATOM     14  C   UNL     1       2.416   4.581  19.101  0.00  0.00    +0.000 A 
ATOM     15  N   UNL     1       3.068   5.407  18.206  0.00  0.00    +0.000 N 
ATOM     16  C   UNL     1       2.963   6.846  18.229  0.00  0.00    +0.000 C 
ENDBRANCH   3   7
BRANCH   1  21
ATOM     17  C   UNL     1       9.508  10.236  19.766  0.00  0.00    +0.000 C 
ATOM     18  C   UNL     1       8.772   9.197  18.966  0.00  0.00    +0.000 A 
ATOM     19  C   UNL     1       8.818   7.861  19.376  0.00  0.00    +0.000 A 
ATOM     20  C   UNL     1       8.147   6.865  18.660  0.00  0.00    +0.000 A 
ATOM     21  C   UNL     1       7.402   7.174  17.519  0.00  0.00    +0.000 A 
ATOM     22  C   UNL     1       7.362   8.515  17.108  0.00  0.00    +0.000 A 
ATOM     23  C   UNL     1       8.029   9.531  17.821  0.00  0.00    +0.000 A 
ATOM     24  C   UNL     1       7.928  10.956  17.346  0.00  0.00    +0.000 C 
ENDBRANCH   1  21
TORSDOF 2
ENDMDL
