MODEL 1
REMARK VINA RESULT:      -7.8      0.000      0.000
REMARK  Name = 
REMARK  8 active torsions:
REMARK  status: ('A' for Active; 'I' for Inactive)
REMARK    1  A    between atoms: C_1  and  O_2
REMARK    2  A    between atoms: O_2  and  C_3
REMARK    3  A    between atoms: C_7  and  C_8
REMARK    4  A    between atoms: C_8  and  C_10
REMARK    5  A    between atoms: C_10  and  N_11
REMARK    6  A    between atoms: N_13  and  C_14
REMARK    7  A    between atoms: C_14  and  C_15
REMARK    8  A    between atoms: C_15  and  O_16
REMARK                            x       y       z     vdW  Elec       q    Type
REMARK                         _______ _______ _______ _____ _____    ______ ____
ROOT
ATOM      1  N   UNL     1       3.489   4.563  17.836  0.00  0.00    +0.000 N 
ATOM      2  C   UNL     1       3.516   5.774  18.474  0.00  0.00    +0.000 A 
ATOM      3  N   UNL     1       2.884   6.808  17.872  0.00  0.00    +0.000 N 
ATOM      4  N   UNL     1       3.699   5.524  19.751  0.00  0.00    +0.000 NA
ATOM      5  C   UNL     1       2.960   4.374  19.897  0.00  0.00    +0.000 A 
ATOM      6  C   UNL     1       2.389   3.839  21.056  0.00  0.00    +0.000 A 
ATOM      7  C   UNL     1       1.237   3.066  20.888  0.00  0.00    +0.000 A 
ATOM      8  C   UNL     1       0.752   2.760  19.608  0.00  0.00    +0.000 A 
ATOM      9  C   UNL     1       1.472   3.081  18.442  0.00  0.00    +0.000 A 
ATOM     10  C   UNL     1       2.602   3.875  18.634  0.00  0.00    +0.000 A 
ATOM     11  H   UNL     1       2.265   6.577  17.096  0.00  0.00    +0.000 HD
ENDROOT
BRANCH   1  12
ATOM     12  C   UNL     1       3.963   4.345  16.491  0.00  0.00    +0.000 C 
BRANCH  12  13
ATOM     13  C   UNL     1       5.507   4.272  16.397  0.00  0.00    +0.000 C 
ATOM     14  O   UNL     1       6.040   3.378  15.741  0.00  0.00    +0.000 OA
BRANCH  13  19
ATOM     15  C   UNL     1       7.425   7.405  17.546  0.00  0.00    +0.000 A 
ATOM     16  C   UNL     1       8.086   6.901  18.671  0.00  0.00    +0.000 A 
ATOM     17  C   UNL     1       7.909   5.575  19.042  0.00  0.00    +0.000 A 
ATOM     18  C   UNL     1       7.073   4.749  18.295  0.00  0.00    +0.000 A 
ATOM     19  C   UNL     1       6.393   5.239  17.150  0.00  0.00    +0.000 A 
ATOM     20  C   UNL     1       6.573   6.578  16.789  0.00  0.00    +0.000 A 
BRANCH  15  22
ATOM     21  C   UNL     1       8.489   9.424  18.237  0.00  0.00    +0.000 C 
ATOM     22  O   UNL     1       7.704   8.721  17.284  0.00  0.00    +0.000 OA
ENDBRANCH  15  22
ENDBRANCH  13  19
ENDBRANCH  12  13
ENDBRANCH   1  12
BRANCH   3  23
ATOM     23  C   UNL     1       2.271   7.826  18.728  0.00  0.00    +0.000 C 
BRANCH  23  24
ATOM     24  C   UNL     1       2.066   9.050  17.848  0.00  0.00    +0.000 C 
BRANCH  24  25
ATOM     25  O   UNL     1       0.976   9.817  18.376  0.00  0.00    +0.000 OA
ATOM     26  H   UNL     1       0.529  10.164  17.574  0.00  0.00    +0.000 HD
ENDBRANCH  24  25
ENDBRANCH  23  24
ENDBRANCH   3  23
TORSDOF 7
ENDMDL
MODEL 2
REMARK VINA RESULT:      -7.5      2.537      6.471
REMARK  Name = 
REMARK  8 active torsions:
REMARK  status: ('A' for Active; 'I' for Inactive)
REMARK    1  A    between atoms: C_1  and  O_2
REMARK    2  A    between atoms: O_2  and  C_3
REMARK    3  A    between atoms: C_7  and  C_8
REMARK    4  A    between atoms: C_8  and  C_10
REMARK    5  A    between atoms: C_10  and  N_11
REMARK    6  A    between atoms: N_13  and  C_14
REMARK    7  A    between atoms: C_14  and  C_15
REMARK    8  A    between atoms: C_15  and  O_16
REMARK                            x       y       z     vdW  Elec       q    Type
REMARK                         _______ _______ _______ _____ _____    ______ ____
ROOT
ATOM      1  N   UNL     1       2.586   6.204  19.056  0.00  0.00    +0.000 N 
ATOM      2  C   UNL     1       3.750   5.762  18.484  0.00  0.00    +0.000 A 
ATOM      3  N   UNL     1       4.879   5.853  19.224  0.00  0.00    +0.000 N 
ATOM      4  N   UNL     1       3.409   4.888  17.564  0.00  0.00    +0.000 NA
ATOM      5  C   UNL     1       2.341   4.273  18.174  0.00  0.00    +0.000 A 
ATOM      6  C   UNL     1       1.809   3.002  17.940  0.00  0.00    +0.000 A 
ATOM      7  C   UNL     1       1.179   2.377  19.020  0.00  0.00    +0.000 A 
ATOM      8  C   UNL     1       1.000   3.047  20.238  0.00  0.00    +0.000 A 
ATOM      9  C   UNL     1       1.304   4.412  20.390  0.00  0.00    +0.000 A 
ATOM     10  C   UNL     1       1.957   5.005  19.309  0.00  0.00    +0.000 A 
ATOM     11  H   UNL     1       4.761   6.051  20.217  0.00  0.00    +0.000 HD
ENDROOT
BRANCH   1  12
ATOM     12  C   UNL     1       2.392   7.537  19.573  0.00  0.00    +0.000 C 
BRANCH  12  13
ATOM     13  C   UNL     1       1.867   8.530  18.508  0.00  0.00    +0.000 C 
ATOM     14  O   UNL     1       2.407   8.587  17.404  0.00  0.00    +0.000 OA
BRANCH  13  19
ATOM     15  C   UNL     1      -1.215  10.818  18.230  0.00  0.00    +0.000 A 
ATOM     16  C   UNL     1      -1.303  11.287  19.545  0.00  0.00    +0.000 A 
ATOM     17  C   UNL     1      -0.381  10.867  20.494  0.00  0.00    +0.000 A 
ATOM     18  C   UNL     1       0.629   9.979  20.136  0.00  0.00    +0.000 A 
ATOM     19  C   UNL     1       0.738   9.490  18.808  0.00  0.00    +0.000 A 
ATOM     20  C   UNL     1      -0.200   9.915  17.863  0.00  0.00    +0.000 A 
BRANCH  15  22
ATOM     21  C   UNL     1      -3.469  11.544  17.945  0.00  0.00    +0.000 C 
ATOM     22  O   UNL     1      -2.176  11.327  17.396  0.00  0.00    +0.000 OA
ENDBRANCH  15  22
ENDBRANCH  13  19
ENDBRANCH  12  13
ENDBRANCH   1  12
BRANCH   3  23
ATOM     23  C   UNL     1       5.909   4.831  19.025  0.00  0.00    +0.000 C 
BRANCH  23  24
ATOM     24  C   UNL     1       7.241   5.564  19.052  0.00  0.00    +0.000 C 
BRANCH  24  25
ATOM     25  O   UNL     1       7.772   5.502  20.382  0.00  0.00    +0.000 OA
ATOM     26  H   UNL     1       7.920   6.445  20.615  0.00  0.00    +0.000 HD
ENDBRANCH  24  25
ENDBRANCH  23  24
ENDBRANCH   3  23
TORSDOF 7
ENDMDL
MODEL 3
REMARK VINA RESULT:      -7.5      2.730      6.435
REMARK  Name = 
REMARK  8 active torsions:
REMARK  status: ('A' for Active; 'I' for Inactive)
REMARK    1  A    between atoms: C_1  and  O_2
REMARK    2  A    between atoms: O_2  and  C_3
REMARK    3  A    between atoms: C_7  and  C_8
REMARK    4  A    between atoms: C_8  and  C_10
REMARK    5  A    between atoms: C_10  and  N_11
REMARK    6  A    between atoms: N_13  and  C_14
REMARK    7  A    between atoms: C_14  and  C_15
REMARK    8  A    between atoms: C_15  and  O_16
REMARK                            x       y       z     vdW  Elec       q    Type
REMARK                         _______ _______ _______ _____ _____    ______ ____
ROOT
ATOM      1  N   UNL     1       2.547   6.157  19.174  0.00  0.00    +0.000 N 
ATOM      2  C   UNL     1       3.709   5.768  18.561  0.00  0.00    +0.000 A 
ATOM      3  N   UNL     1       4.842   5.801  19.300  0.00  0.00    +0.000 N 
ATOM      4  N   UNL     1       3.366   4.972  17.574  0.00  0.00    +0.000 NA
ATOM      5  C   UNL     1       2.303   4.305  18.138  0.00  0.00    +0.000 A 
ATOM      6  C   UNL     1       1.773   3.056  17.801  0.00  0.00    +0.000 A 
ATOM      7  C   UNL     1       1.151   2.342  18.830  0.00  0.00    +0.000 A 
ATOM      8  C   UNL     1       0.977   2.908  20.100  0.00  0.00    +0.000 A 
ATOM      9  C   UNL     1       1.278   4.257  20.363  0.00  0.00    +0.000 A 
ATOM     10  C   UNL     1       1.923   4.939  19.331  0.00  0.00    +0.000 A 
ATOM     11  H   UNL     1       4.729   5.916  20.306  0.00  0.00    +0.000 HD
ENDROOT
BRANCH   1  12
ATOM     12  C   UNL     1       2.353   7.442  19.801  0.00  0.00    +0.000 C 
BRANCH  12  13
ATOM     13  C   UNL     1       1.710   8.486  18.856  0.00  0.00    +0.000 C 
ATOM     14  O   UNL     1       1.971   8.468  17.654  0.00  0.00    +0.000 OA
BRANCH  13  19
ATOM     15  C   UNL     1      -0.074  11.044  21.110  0.00  0.00    +0.000 A 
ATOM     16  C   UNL     1      -0.935  11.643  20.185  0.00  0.00    +0.000 A 
ATOM     17  C   UNL     1      -0.931  11.222  18.862  0.00  0.00    +0.000 A 
ATOM     18  C   UNL     1      -0.070  10.205  18.458  0.00  0.00    +0.000 A 
ATOM     19  C   UNL     1       0.811   9.583  19.381  0.00  0.00    +0.000 A 
ATOM     20  C   UNL     1       0.803  10.020  20.708  0.00  0.00    +0.000 A 
BRANCH  15  22
ATOM     21  C   UNL     1      -1.043  12.670  22.563  0.00  0.00    +0.000 C 
ATOM     22  O   UNL     1      -0.196  11.543  22.382  0.00  0.00    +0.000 OA
ENDBRANCH  15  22
ENDBRANCH  13  19
ENDBRANCH  12  13
ENDBRANCH   1  12
BRANCH   3  23
ATOM     23  C   UNL     1       5.874   4.803  19.012  0.00  0.00    +0.000 C 
BRANCH  23  24
ATOM     24  C   UNL     1       7.199   5.549  19.024  0.00  0.00    +0.000 C 
BRANCH  24  25
ATOM     25  O   UNL     1       7.742   5.498  20.349  0.00  0.00    +0.000 OA
ATOM     26  H   UNL     1       8.019   4.561  20.449  0.00  0.00    +0.000 HD
ENDBRANCH  24  25
ENDBRANCH  23  24
ENDBRANCH   3  23
TORSDOF 7
ENDMDL
MODEL 4
REMARK VINA RESULT:      -7.4      2.596      4.204
REMARK  Name = 
REMARK  8 active torsions:
REMARK  status: ('A' for Active; 'I' for Inactive)
REMARK    1  A    between atoms: C_1  and  O_2
REMARK    2  A    between atoms: O_2  and  C_3
REMARK    3  A    between atoms: C_7  and  C_8
REMARK    4  A    between atoms: C_8  and  C_10
REMARK    5  A    between atoms: C_10  and  N_11
REMARK    6  A    between atoms: N_13  and  C_14
REMARK    7  A    between atoms: C_14  and  C_15
REMARK    8  A    between atoms: C_15  and  O_16
REMARK                            x       y       z     vdW  Elec       q    Type
REMARK                         _______ _______ _______ _____ _____    ______ ____
ROOT
ATOM      1  N   UNL     1       4.810   5.404  17.623  0.00  0.00    +0.000 N 
ATOM      2  C   UNL     1       4.212   6.137  18.613  0.00  0.00    +0.000 A 
ATOM      3  N   UNL     1       3.334   7.094  18.233  0.00  0.00    +0.000 N 
ATOM      4  N   UNL     1       4.239   5.398  19.699  0.00  0.00    +0.000 NA
ATOM      5  C   UNL     1       4.030   4.148  19.165  0.00  0.00    +0.000 A 
ATOM      6  C   UNL     1       3.526   3.002  19.787  0.00  0.00    +0.000 A 
ATOM      7  C   UNL     1       2.852   2.090  18.969  0.00  0.00    +0.000 A 
ATOM      8  C   UNL     1       2.788   2.275  17.580  0.00  0.00    +0.000 A 
ATOM      9  C   UNL     1       3.515   3.289  16.929  0.00  0.00    +0.000 A 
ATOM     10  C   UNL     1       4.156   4.201  17.768  0.00  0.00    +0.000 A 
ATOM     11  H   UNL     1       3.024   7.072  17.262  0.00  0.00    +0.000 HD
ENDROOT
BRANCH   1  12
ATOM     12  C   UNL     1       5.576   5.975  16.542  0.00  0.00    +0.000 C 
BRANCH  12  13
ATOM     13  C   UNL     1       6.652   5.011  15.986  0.00  0.00    +0.000 C 
ATOM     14  O   UNL     1       7.507   4.546  16.739  0.00  0.00    +0.000 OA
BRANCH  13  19
ATOM     15  C   UNL     1       6.040   3.472  12.512  0.00  0.00    +0.000 A 
ATOM     16  C   UNL     1       7.000   4.154  11.758  0.00  0.00    +0.000 A 
ATOM     17  C   UNL     1       7.824   5.090  12.369  0.00  0.00    +0.000 A 
ATOM     18  C   UNL     1       7.692   5.348  13.731  0.00  0.00    +0.000 A 
ATOM     19  C   UNL     1       6.725   4.668  14.514  0.00  0.00    +0.000 A 
ATOM     20  C   UNL     1       5.896   3.733  13.887  0.00  0.00    +0.000 A 
BRANCH  15  22
ATOM     21  C   UNL     1       4.117   3.032  11.170  0.00  0.00    +0.000 C 
ATOM     22  O   UNL     1       5.310   2.566  11.787  0.00  0.00    +0.000 OA
ENDBRANCH  15  22
ENDBRANCH  13  19
ENDBRANCH  12  13
ENDBRANCH   1  12
BRANCH   3  23
ATOM     23  C   UNL     1       2.205   7.378  19.122  0.00  0.00    +0.000 C 
BRANCH  23  24
ATOM     24  C   UNL     1       1.772   8.802  18.813  0.00  0.00    +0.000 C 
BRANCH  24  25
ATOM     25  O   UNL     1       0.958   9.278  19.893  0.00  0.00    +0.000 OA
ATOM     26  H   UNL     1       1.575   9.826  20.424  0.00  0.00    +0.000 HD
ENDBRANCH  24  25
ENDBRANCH  23  24
ENDBRANCH   3  23
TORSDOF 7
ENDMDL
MODEL 5
REMARK VINA RESULT:      -7.3      2.357      6.330
REMARK  Name = 
REMARK  8 active torsions:
REMARK  status: ('A' for Active; 'I' for Inactive)
REMARK    1  A    between atoms: C_1  and  O_2
REMARK    2  A    between atoms: O_2  and  C_3
REMARK    3  A    between atoms: C_7  and  C_8
REMARK    4  A    between atoms: C_8  and  C_10
REMARK    5  A    between atoms: C_10  and  N_11
REMARK    6  A    between atoms: N_13  and  C_14
REMARK    7  A    between atoms: C_14  and  C_15
REMARK    8  A    between atoms: C_15  and  O_16
REMARK                            x       y       z     vdW  Elec       q    Type
REMARK                         _______ _______ _______ _____ _____    ______ ____
ROOT
ATOM      1  N   UNL     1       2.582   6.096  19.001  0.00  0.00    +0.000 N 
ATOM      2  C   UNL     1       3.384   5.518  18.053  0.00  0.00    +0.000 A 
ATOM      3  N   UNL     1       4.719   5.539  18.271  0.00  0.00    +0.000 N 
ATOM      4  N   UNL     1       2.644   4.634  17.422  0.00  0.00    +0.000 NA
ATOM      5  C   UNL     1       1.876   4.154  18.457  0.00  0.00    +0.000 A 
ATOM      6  C   UNL     1       1.212   2.929  18.563  0.00  0.00    +0.000 A 
ATOM      7  C   UNL     1       1.032   2.422  19.853  0.00  0.00    +0.000 A 
ATOM      8  C   UNL     1       1.405   3.167  20.980  0.00  0.00    +0.000 A 
ATOM      9  C   UNL     1       1.834   4.504  20.882  0.00  0.00    +0.000 A 
ATOM     10  C   UNL     1       2.031   4.976  19.585  0.00  0.00    +0.000 A 
ATOM     11  H   UNL     1       5.025   5.798  19.209  0.00  0.00    +0.000 HD
ENDROOT
BRANCH   1  12
ATOM     12  C   UNL     1       2.702   7.466  19.438  0.00  0.00    +0.000 C 
BRANCH  12  13
ATOM     13  C   UNL     1       1.987   8.466  18.497  0.00  0.00    +0.000 C 
ATOM     14  O   UNL     1       2.355   8.580  17.330  0.00  0.00    +0.000 OA
BRANCH  13  19
ATOM     15  C   UNL     1      -0.446  10.460  20.715  0.00  0.00    +0.000 A 
ATOM     16  C   UNL     1      -1.237  11.074  19.739  0.00  0.00    +0.000 A 
ATOM     17  C   UNL     1      -0.981  10.842  18.394  0.00  0.00    +0.000 A 
ATOM     18  C   UNL     1       0.062  10.000  18.020  0.00  0.00    +0.000 A 
ATOM     19  C   UNL     1       0.877   9.366  18.994  0.00  0.00    +0.000 A 
ATOM     20  C   UNL     1       0.614   9.612  20.344  0.00  0.00    +0.000 A 
BRANCH  15  22
ATOM     21  C   UNL     1      -0.349   9.909  23.034  0.00  0.00    +0.000 C 
ATOM     22  O   UNL     1      -0.821  10.761  21.999  0.00  0.00    +0.000 OA
ENDBRANCH  15  22
ENDBRANCH  13  19
ENDBRANCH  12  13
ENDBRANCH   1  12
BRANCH   3  23
ATOM     23  C   UNL     1       5.512   4.417  17.767  0.00  0.00    +0.000 C 
BRANCH  23  24
ATOM     24  C   UNL     1       6.964   4.763  18.052  0.00  0.00    +0.000 C 
BRANCH  24  25
ATOM     25  O   UNL     1       7.732   4.539  16.863  0.00  0.00    +0.000 OA
ATOM     26  H   UNL     1       8.633   4.349  17.202  0.00  0.00    +0.000 HD
ENDBRANCH  24  25
ENDBRANCH  23  24
ENDBRANCH   3  23
TORSDOF 7
ENDMDL
MODEL 6
REMARK VINA RESULT:      -7.3      2.303      3.800
REMARK  Name = 
REMARK  8 active torsions:
REMARK  status: ('A' for Active; 'I' for Inactive)
REMARK    1  A    between atoms: C_1  and  O_2
REMARK    2  A    between atoms: O_2  and  C_3
REMARK    3  A    between atoms: C_7  and  C_8
REMARK    4  A    between atoms: C_8  and  C_10
REMARK    5  A    between atoms: C_10  and  N_11
REMARK    6  A    between atoms: N_13  and  C_14
REMARK    7  A    between atoms: C_14  and  C_15
REMARK    8  A    between atoms: C_15  and  O_16
REMARK                            x       y       z     vdW  Elec       q    Type
REMARK                         _______ _______ _______ _____ _____    ______ ____
ROOT
ATOM      1  N   UNL     1       3.438   4.488  17.949  0.00  0.00    +0.000 N 
ATOM      2  C   UNL     1       3.548   5.748  18.475  0.00  0.00    +0.000 A 
ATOM      3  N   UNL     1       2.919   6.752  17.821  0.00  0.00    +0.000 N 
ATOM      4  N   UNL     1       3.799   5.601  19.756  0.00  0.00    +0.000 NA
ATOM      5  C   UNL     1       3.028   4.500  20.047  0.00  0.00    +0.000 A 
ATOM      6  C   UNL     1       2.510   4.092  21.279  0.00  0.00    +0.000 A 
ATOM      7  C   UNL     1       1.322   3.357  21.247  0.00  0.00    +0.000 A 
ATOM      8  C   UNL     1       0.750   2.961  20.029  0.00  0.00    +0.000 A 
ATOM      9  C   UNL     1       1.408   3.150  18.800  0.00  0.00    +0.000 A 
ATOM     10  C   UNL     1       2.576   3.910  18.856  0.00  0.00    +0.000 A 
ATOM     11  H   UNL     1       2.246   6.480  17.105  0.00  0.00    +0.000 HD
ENDROOT
BRANCH   1  12
ATOM     12  C   UNL     1       3.821   4.135  16.604  0.00  0.00    +0.000 C 
BRANCH  12  13
ATOM     13  C   UNL     1       5.340   4.288  16.347  0.00  0.00    +0.000 C 
ATOM     14  O   UNL     1       6.104   4.492  17.290  0.00  0.00    +0.000 OA
BRANCH  13  19
ATOM     15  C   UNL     1       5.956   3.572  12.616  0.00  0.00    +0.000 A 
ATOM     16  C   UNL     1       7.122   4.315  12.403  0.00  0.00    +0.000 A 
ATOM     17  C   UNL     1       7.690   5.028  13.450  0.00  0.00    +0.000 A 
ATOM     18  C   UNL     1       7.097   5.005  14.710  0.00  0.00    +0.000 A 
ATOM     19  C   UNL     1       5.915   4.258  14.948  0.00  0.00    +0.000 A 
ATOM     20  C   UNL     1       5.348   3.549  13.886  0.00  0.00    +0.000 A 
BRANCH  15  22
ATOM     21  C   UNL     1       4.148   3.054  11.150  0.00  0.00    +0.000 C 
ATOM     22  O   UNL     1       5.516   2.903  11.504  0.00  0.00    +0.000 OA
ENDBRANCH  15  22
ENDBRANCH  13  19
ENDBRANCH  12  13
ENDBRANCH   1  12
BRANCH   3  23
ATOM     23  C   UNL     1       2.398   7.864  18.616  0.00  0.00    +0.000 C 
BRANCH  23  24
ATOM     24  C   UNL     1       1.536   8.690  17.674  0.00  0.00    +0.000 C 
BRANCH  24  25
ATOM     25  O   UNL     1       2.121   9.992  17.539  0.00  0.00    +0.000 OA
ATOM     26  H   UNL     1       2.994   9.811  17.127  0.00  0.00    +0.000 HD
ENDBRANCH  24  25
ENDBRANCH  23  24
ENDBRANCH   3  23
TORSDOF 7
ENDMDL
MODEL 7
REMARK VINA RESULT:      -7.2      2.815      6.313
REMARK  Name = 
REMARK  8 active torsions:
REMARK  status: ('A' for Active; 'I' for Inactive)
REMARK    1  A    between atoms: C_1  and  O_2
REMARK    2  A    between atoms: O_2  and  C_3
REMARK    3  A    between atoms: C_7  and  C_8
REMARK    4  A    between atoms: C_8  and  C_10
REMARK    5  A    between atoms: C_10  and  N_11
REMARK    6  A    between atoms: N_13  and  C_14
REMARK    7  A    between atoms: C_14  and  C_15
REMARK    8  A    between atoms: C_15  and  O_16
REMARK                            x       y       z     vdW  Elec       q    Type
REMARK                         _______ _______ _______ _____ _____    ______ ____
ROOT
ATOM      1  N   UNL     1       2.411   6.095  19.061  0.00  0.00    +0.000 N 
ATOM      2  C   UNL     1       2.657   5.398  17.907  0.00  0.00    +0.000 A 
ATOM      3  N   UNL     1       3.946   5.287  17.511  0.00  0.00    +0.000 N 
ATOM      4  N   UNL     1       1.649   4.571  17.744  0.00  0.00    +0.000 NA
ATOM      5  C   UNL     1       1.391   4.218  19.048  0.00  0.00    +0.000 A 
ATOM      6  C   UNL     1       0.752   3.075  19.537  0.00  0.00    +0.000 A 
ATOM      7  C   UNL     1       1.131   2.642  20.811  0.00  0.00    +0.000 A 
ATOM      8  C   UNL     1       2.025   3.389  21.592  0.00  0.00    +0.000 A 
ATOM      9  C   UNL     1       2.464   4.668  21.204  0.00  0.00    +0.000 A 
ATOM     10  C   UNL     1       2.096   5.064  19.918  0.00  0.00    +0.000 A 
ATOM     11  H   UNL     1       4.658   5.550  18.192  0.00  0.00    +0.000 HD
ENDROOT
BRANCH   1  12
ATOM     12  C   UNL     1       2.818   7.461  19.284  0.00  0.00    +0.000 C 
BRANCH  12  13
ATOM     13  C   UNL     1       1.945   8.486  18.519  0.00  0.00    +0.000 C 
ATOM     14  O   UNL     1       2.073   8.613  17.302  0.00  0.00    +0.000 OA
BRANCH  13  19
ATOM     15  C   UNL     1       0.017  10.449  21.210  0.00  0.00    +0.000 A 
ATOM     16  C   UNL     1      -0.917  11.121  20.415  0.00  0.00    +0.000 A 
ATOM     17  C   UNL     1      -0.916  10.937  19.039  0.00  0.00    +0.000 A 
ATOM     18  C   UNL     1       0.016  10.085  18.453  0.00  0.00    +0.000 A 
ATOM     19  C   UNL     1       0.972   9.393  19.240  0.00  0.00    +0.000 A 
ATOM     20  C   UNL     1       0.966   9.591  20.623  0.00  0.00    +0.000 A 
BRANCH  15  22
ATOM     21  C   UNL     1      -1.203  11.519  22.958  0.00  0.00    +0.000 C 
ATOM     22  O   UNL     1      -0.109  10.708  22.550  0.00  0.00    +0.000 OA
ENDBRANCH  15  22
ENDBRANCH  13  19
ENDBRANCH  12  13
ENDBRANCH   1  12
BRANCH   3  23
ATOM     23  C   UNL     1       4.341   4.068  16.804  0.00  0.00    +0.000 C 
BRANCH  23  24
ATOM     24  C   UNL     1       4.576   3.015  17.876  0.00  0.00    +0.000 C 
BRANCH  24  25
ATOM     25  O   UNL     1       5.506   3.536  18.834  0.00  0.00    +0.000 OA
ATOM     26  H   UNL     1       5.909   4.303  18.371  0.00  0.00    +0.000 HD
ENDBRANCH  24  25
ENDBRANCH  23  24
ENDBRANCH   3  23
TORSDOF 7
ENDMDL
MODEL 8
REMARK VINA RESULT:      -7.2      2.521      6.112
REMARK  Name = 
REMARK  8 active torsions:
REMARK  status: ('A' for Active; 'I' for Inactive)
REMARK    1  A    between atoms: C_1  and  O_2
REMARK    2  A    between atoms: O_2  and  C_3
REMARK    3  A    between atoms: C_7  and  C_8
REMARK    4  A    between atoms: C_8  and  C_10
REMARK    5  A    between atoms: C_10  and  N_11
REMARK    6  A    between atoms: N_13  and  C_14
REMARK    7  A    between atoms: C_14  and  C_15
REMARK    8  A    between atoms: C_15  and  O_16
REMARK                            x       y       z     vdW  Elec       q    Type
REMARK                         _______ _______ _______ _____ _____    ______ ____
ROOT
ATOM      1  N   UNL     1       2.506   6.145  19.209  0.00  0.00    +0.000 N 
ATOM      2  C   UNL     1       3.680   5.755  18.619  0.00  0.00    +0.000 A 
ATOM      3  N   UNL     1       4.807   5.840  19.362  0.00  0.00    +0.000 N 
ATOM      4  N   UNL     1       3.359   4.914  17.662  0.00  0.00    +0.000 NA
ATOM      5  C   UNL     1       2.306   4.248  18.245  0.00  0.00    +0.000 A 
ATOM      6  C   UNL     1       1.803   2.977  17.955  0.00  0.00    +0.000 A 
ATOM      7  C   UNL     1       1.189   2.291  19.007  0.00  0.00    +0.000 A 
ATOM      8  C   UNL     1       0.996   2.904  20.254  0.00  0.00    +0.000 A 
ATOM      9  C   UNL     1       1.268   4.268  20.464  0.00  0.00    +0.000 A 
ATOM     10  C   UNL     1       1.906   4.922  19.410  0.00  0.00    +0.000 A 
ATOM     11  H   UNL     1       4.686   5.992  20.363  0.00  0.00    +0.000 HD
ENDROOT
BRANCH   1  12
ATOM     12  C   UNL     1       2.282   7.449  19.784  0.00  0.00    +0.000 C 
BRANCH  12  13
ATOM     13  C   UNL     1       1.871   8.511  18.735  0.00  0.00    +0.000 C 
ATOM     14  O   UNL     1       2.182   8.359  17.554  0.00  0.00    +0.000 OA
BRANCH  13  19
ATOM     15  C   UNL     1       0.654  12.153  18.983  0.00  0.00    +0.000 A 
ATOM     16  C   UNL     1      -0.301  12.034  19.997  0.00  0.00    +0.000 A 
ATOM     17  C   UNL     1      -0.540  10.798  20.583  0.00  0.00    +0.000 A 
ATOM     18  C   UNL     1       0.171   9.679  20.158  0.00  0.00    +0.000 A 
ATOM     19  C   UNL     1       1.145   9.777  19.131  0.00  0.00    +0.000 A 
ATOM     20  C   UNL     1       1.372  11.025  18.544  0.00  0.00    +0.000 A 
BRANCH  15  22
ATOM     21  C   UNL     1      -0.205  14.375  18.853  0.00  0.00    +0.000 C 
ATOM     22  O   UNL     1       0.800  13.431  18.508  0.00  0.00    +0.000 OA
ENDBRANCH  15  22
ENDBRANCH  13  19
ENDBRANCH  12  13
ENDBRANCH   1  12
BRANCH   3  23
ATOM     23  C   UNL     1       5.861   4.852  19.120  0.00  0.00    +0.000 C 
BRANCH  23  24
ATOM     24  C   UNL     1       7.171   5.624  19.115  0.00  0.00    +0.000 C 
BRANCH  24  25
ATOM     25  O   UNL     1       7.812   5.447  20.384  0.00  0.00    +0.000 OA
ATOM     26  H   UNL     1       8.159   4.530  20.341  0.00  0.00    +0.000 HD
ENDBRANCH  24  25
ENDBRANCH  23  24
ENDBRANCH   3  23
TORSDOF 7
ENDMDL
MODEL 9
REMARK VINA RESULT:      -7.2      2.503      6.056
REMARK  Name = 
REMARK  8 active torsions:
REMARK  status: ('A' for Active; 'I' for Inactive)
REMARK    1  A    between atoms: C_1  and  O_2
REMARK    2  A    between atoms: O_2  and  C_3
REMARK    3  A    between atoms: C_7  and  C_8
REMARK    4  A    between atoms: C_8  and  C_10
REMARK    5  A    between atoms: C_10  and  N_11
REMARK    6  A    between atoms: N_13  and  C_14
REMARK    7  A    between atoms: C_14  and  C_15
REMARK    8  A    between atoms: C_15  and  O_16
REMARK                            x       y       z     vdW  Elec       q    Type
REMARK                         _______ _______ _______ _____ _____    ______ ____
ROOT
ATOM      1  N   UNL     1       2.593   5.914  18.964  0.00  0.00    +0.000 N 
ATOM      2  C   UNL     1       2.874   5.159  17.856  0.00  0.00    +0.000 A 
ATOM      3  N   UNL     1       4.178   4.982  17.539  0.00  0.00    +0.000 N 
ATOM      4  N   UNL     1       1.844   4.366  17.668  0.00  0.00    +0.000 NA
ATOM      5  C   UNL     1       1.499   4.079  18.968  0.00  0.00    +0.000 A 
ATOM      6  C   UNL     1       0.788   2.983  19.466  0.00  0.00    +0.000 A 
ATOM      7  C   UNL     1       1.077   2.591  20.776  0.00  0.00    +0.000 A 
ATOM      8  C   UNL     1       1.956   3.336  21.576  0.00  0.00    +0.000 A 
ATOM      9  C   UNL     1       2.469   4.579  21.162  0.00  0.00    +0.000 A 
ATOM     10  C   UNL     1       2.189   4.934  19.843  0.00  0.00    +0.000 A 
ATOM     11  H   UNL     1       4.861   5.245  18.248  0.00  0.00    +0.000 HD
ENDROOT
BRANCH   1  12
ATOM     12  C   UNL     1       3.043   7.272  19.154  0.00  0.00    +0.000 C 
BRANCH  12  13
ATOM     13  C   UNL     1       2.173   8.309  18.403  0.00  0.00    +0.000 C 
ATOM     14  O   UNL     1       2.322   8.472  17.194  0.00  0.00    +0.000 OA
BRANCH  13  19
ATOM     15  C   UNL     1      -0.461  10.974  19.282  0.00  0.00    +0.000 A 
ATOM     16  C   UNL     1      -0.634  10.722  20.646  0.00  0.00    +0.000 A 
ATOM     17  C   UNL     1       0.091   9.709  21.261  0.00  0.00    +0.000 A 
ATOM     18  C   UNL     1       0.987   8.946  20.518  0.00  0.00    +0.000 A 
ATOM     19  C   UNL     1       1.178   9.185  19.132  0.00  0.00    +0.000 A 
ATOM     20  C   UNL     1       0.439  10.203  18.523  0.00  0.00    +0.000 A 
BRANCH  15  22
ATOM     21  C   UNL     1      -0.539  13.171  18.356  0.00  0.00    +0.000 C 
ATOM     22  O   UNL     1      -1.223  12.012  18.811  0.00  0.00    +0.000 OA
ENDBRANCH  15  22
ENDBRANCH  13  19
ENDBRANCH  12  13
ENDBRANCH   1  12
BRANCH   3  23
ATOM     23  C   UNL     1       4.561   3.719  16.905  0.00  0.00    +0.000 C 
BRANCH  23  24
ATOM     24  C   UNL     1       5.735   4.042  15.994  0.00  0.00    +0.000 C 
BRANCH  24  25
ATOM     25  O   UNL     1       6.936   4.046  16.777  0.00  0.00    +0.000 OA
ATOM     26  H   UNL     1       7.650   4.061  16.104  0.00  0.00    +0.000 HD
ENDBRANCH  24  25
ENDBRANCH  23  24
ENDBRANCH   3  23
TORSDOF 7
ENDMDL
