MODEL 1
REMARK VINA RESULT:      -8.9      0.000      0.000
REMARK  Name = 
REMARK  5 active torsions:
REMARK  status: ('A' for Active; 'I' for Inactive)
REMARK    1  A    between atoms: C_1  and  C_2
REMARK    2  A    between atoms: C_2  and  O_3
REMARK    3  A    between atoms: O_3  and  C_4
REMARK    4  A    between atoms: C_4  and  C_6
REMARK    5  A    between atoms: C_12  and  O_13
REMARK                            x       y       z     vdW  Elec       q    Type
REMARK                         _______ _______ _______ _____ _____    ______ ____
ROOT
ATOM      1  C   UNL     1       6.713   4.884  15.346  0.00  0.00    +0.000 A 
ATOM      2  C   UNL     1       5.370   4.963  15.657  0.00  0.00    +0.000 A 
ATOM      3  N   UNL     1       5.315   4.907  17.004  0.00  0.00    +0.000 N 
ATOM      4  C   UNL     1       4.266   4.656  17.833  0.00  0.00    +0.000 A 
ATOM      5  C   UNL     1       4.461   4.644  19.160  0.00  0.00    +0.000 A 
ATOM      6  N   UNL     1       5.669   4.918  19.776  0.00  0.00    +0.000 NA
ATOM      7  C   UNL     1       6.673   5.100  18.953  0.00  0.00    +0.000 A 
ATOM      8  C   UNL     1       6.582   5.044  17.501  0.00  0.00    +0.000 A 
ATOM      9  N   UNL     1       7.482   4.977  16.523  0.00  0.00    +0.000 NA
ATOM     10  C   UNL     1       3.206   4.140  19.737  0.00  0.00    +0.000 A 
ATOM     11  C   UNL     1       2.813   3.912  21.037  0.00  0.00    +0.000 A 
ATOM     12  C   UNL     1       1.540   3.366  21.262  0.00  0.00    +0.000 A 
ATOM     13  C   UNL     1       0.687   3.037  20.193  0.00  0.00    +0.000 A 
ATOM     14  C   UNL     1       1.075   3.272  18.883  0.00  0.00    +0.000 A 
ATOM     15  C   UNL     1       2.322   3.832  18.677  0.00  0.00    +0.000 A 
ATOM     16  C   UNL     1       2.939   4.176  17.364  0.00  0.00    +0.000 C 
ENDROOT
BRANCH   1  17
ATOM     17  C   UNL     1       7.106   4.614  13.961  0.00  0.00    +0.000 C 
ATOM     18  O   UNL     1       7.711   5.460  13.307  0.00  0.00    +0.000 OA
BRANCH  17  19
ATOM     19  O   UNL     1       6.565   3.487  13.422  0.00  0.00    +0.000 OA
BRANCH  19  21
ATOM     20  C   UNL     1       4.850   3.264  11.767  0.00  0.00    +0.000 C 
ATOM     21  C   UNL     1       6.313   3.595  12.010  0.00  0.00    +0.000 C 
ENDBRANCH  19  21
ENDBRANCH  17  19
ENDBRANCH   1  17
BRANCH   7  22
ATOM     22  O   UNL     1       7.885   5.410  19.446  0.00  0.00    +0.000 OA
ATOM     23  H   UNL     1       8.517   5.368  18.711  0.00  0.00    +0.000 HD
ENDBRANCH   7  22
TORSDOF 4
ENDMDL
MODEL 2
REMARK VINA RESULT:      -7.8      2.051      6.467
REMARK  Name = 
REMARK  5 active torsions:
REMARK  status: ('A' for Active; 'I' for Inactive)
REMARK    1  A    between atoms: C_1  and  C_2
REMARK    2  A    between atoms: C_2  and  O_3
REMARK    3  A    between atoms: O_3  and  C_4
REMARK    4  A    between atoms: C_4  and  C_6
REMARK    5  A    between atoms: C_12  and  O_13
REMARK                            x       y       z     vdW  Elec       q    Type
REMARK                         _______ _______ _______ _____ _____    ______ ____
ROOT
ATOM      1  C   UNL     1       4.276   4.694  19.268  0.00  0.00    +0.000 A 
ATOM      2  C   UNL     1       4.521   3.883  18.178  0.00  0.00    +0.000 A 
ATOM      3  N   UNL     1       5.506   4.500  17.493  0.00  0.00    +0.000 N 
ATOM      4  C   UNL     1       5.940   4.317  16.217  0.00  0.00    +0.000 A 
ATOM      5  C   UNL     1       6.946   5.068  15.746  0.00  0.00    +0.000 A 
ATOM      6  N   UNL     1       7.630   6.013  16.490  0.00  0.00    +0.000 NA
ATOM      7  C   UNL     1       7.155   6.209  17.696  0.00  0.00    +0.000 A 
ATOM      8  C   UNL     1       6.013   5.509  18.266  0.00  0.00    +0.000 A 
ATOM      9  N   UNL     1       5.254   5.705  19.342  0.00  0.00    +0.000 NA
ATOM     10  C   UNL     1       7.018   4.774  14.309  0.00  0.00    +0.000 A 
ATOM     11  C   UNL     1       7.845   5.239  13.310  0.00  0.00    +0.000 A 
ATOM     12  C   UNL     1       7.621   4.794  11.999  0.00  0.00    +0.000 A 
ATOM     13  C   UNL     1       6.569   3.911  11.696  0.00  0.00    +0.000 A 
ATOM     14  C   UNL     1       5.738   3.434  12.699  0.00  0.00    +0.000 A 
ATOM     15  C   UNL     1       5.985   3.862  13.989  0.00  0.00    +0.000 A 
ATOM     16  C   UNL     1       5.230   3.477  15.216  0.00  0.00    +0.000 C 
ENDROOT
BRANCH   1  17
ATOM     17  C   UNL     1       3.061   4.475  20.057  0.00  0.00    +0.000 C 
ATOM     18  O   UNL     1       2.429   5.427  20.509  0.00  0.00    +0.000 OA
BRANCH  17  19
ATOM     19  O   UNL     1       2.838   3.181  20.417  0.00  0.00    +0.000 OA
BRANCH  19  21
ATOM     20  C   UNL     1       0.986   2.558  19.035  0.00  0.00    +0.000 C 
ATOM     21  C   UNL     1       1.442   2.833  20.458  0.00  0.00    +0.000 C 
ENDBRANCH  19  21
ENDBRANCH  17  19
ENDBRANCH   1  17
BRANCH   7  22
ATOM     22  O   UNL     1       7.769   7.080  18.516  0.00  0.00    +0.000 OA
ATOM     23  H   UNL     1       8.518   7.459  18.029  0.00  0.00    +0.000 HD
ENDBRANCH   7  22
TORSDOF 4
ENDMDL
MODEL 3
REMARK VINA RESULT:      -7.8      2.753      2.993
REMARK  Name = 
REMARK  5 active torsions:
REMARK  status: ('A' for Active; 'I' for Inactive)
REMARK    1  A    between atoms: C_1  and  C_2
REMARK    2  A    between atoms: C_2  and  O_3
REMARK    3  A    between atoms: O_3  and  C_4
REMARK    4  A    between atoms: C_4  and  C_6
REMARK    5  A    between atoms: C_12  and  O_13
REMARK                            x       y       z     vdW  Elec       q    Type
REMARK                         _______ _______ _______ _____ _____    ______ ____
ROOT
ATOM      1  C   UNL     1       5.728   4.735  15.621  0.00  0.00    +0.000 A 
ATOM      2  C   UNL     1       5.328   5.979  16.066  0.00  0.00    +0.000 A 
ATOM      3  N   UNL     1       4.750   5.756  17.264  0.00  0.00    +0.000 N 
ATOM      4  C   UNL     1       3.936   6.551  18.011  0.00  0.00    +0.000 A 
ATOM      5  C   UNL     1       3.469   6.101  19.185  0.00  0.00    +0.000 A 
ATOM      6  N   UNL     1       3.794   4.875  19.738  0.00  0.00    +0.000 NA
ATOM      7  C   UNL     1       4.532   4.108  18.972  0.00  0.00    +0.000 A 
ATOM      8  C   UNL     1       5.013   4.469  17.647  0.00  0.00    +0.000 A 
ATOM      9  N   UNL     1       5.563   3.784  16.646  0.00  0.00    +0.000 NA
ATOM     10  C   UNL     1       2.474   7.092  19.618  0.00  0.00    +0.000 A 
ATOM     11  C   UNL     1       1.672   7.169  20.736  0.00  0.00    +0.000 A 
ATOM     12  C   UNL     1       0.770   8.238  20.835  0.00  0.00    +0.000 A 
ATOM     13  C   UNL     1       0.662   9.202  19.816  0.00  0.00    +0.000 A 
ATOM     14  C   UNL     1       1.473   9.133  18.693  0.00  0.00    +0.000 A 
ATOM     15  C   UNL     1       2.374   8.088  18.619  0.00  0.00    +0.000 A 
ATOM     16  C   UNL     1       3.342   7.822  17.517  0.00  0.00    +0.000 C 
ENDROOT
BRANCH   1  17
ATOM     17  C   UNL     1       6.121   4.575  14.219  0.00  0.00    +0.000 C 
ATOM     18  O   UNL     1       7.151   5.094  13.795  0.00  0.00    +0.000 OA
BRANCH  17  19
ATOM     19  O   UNL     1       5.169   4.022  13.417  0.00  0.00    +0.000 OA
BRANCH  19  21
ATOM     20  C   UNL     1       4.562   2.967  11.357  0.00  0.00    +0.000 C 
ATOM     21  C   UNL     1       5.714   3.336  12.276  0.00  0.00    +0.000 C 
ENDBRANCH  19  21
ENDBRANCH  17  19
ENDBRANCH   1  17
BRANCH   7  22
ATOM     22  O   UNL     1       4.936   2.910  19.428  0.00  0.00    +0.000 OA
ATOM     23  H   UNL     1       4.728   2.253  18.744  0.00  0.00    +0.000 HD
ENDBRANCH   7  22
TORSDOF 4
ENDMDL
MODEL 4
REMARK VINA RESULT:      -7.7      5.824      8.443
REMARK  Name = 
REMARK  5 active torsions:
REMARK  status: ('A' for Active; 'I' for Inactive)
REMARK    1  A    between atoms: C_1  and  C_2
REMARK    2  A    between atoms: C_2  and  O_3
REMARK    3  A    between atoms: O_3  and  C_4
REMARK    4  A    between atoms: C_4  and  C_6
REMARK    5  A    between atoms: C_12  and  O_13
REMARK                            x       y       z     vdW  Elec       q    Type
REMARK                         _______ _______ _______ _____ _____    ______ ____
ROOT
ATOM      1  C   UNL     1       0.686   9.659  21.385  0.00  0.00    +0.000 A 
ATOM      2  C   UNL     1       1.255   8.420  21.604  0.00  0.00    +0.000 A 
ATOM      3  N   UNL     1       1.628   7.982  20.383  0.00  0.00    +0.000 N 
ATOM      4  C   UNL     1       1.967   6.734  19.961  0.00  0.00    +0.000 A 
ATOM      5  C   UNL     1       2.299   6.539  18.677  0.00  0.00    +0.000 A 
ATOM      6  N   UNL     1       2.373   7.542  17.727  0.00  0.00    +0.000 NA
ATOM      7  C   UNL     1       1.987   8.722  18.146  0.00  0.00    +0.000 A 
ATOM      8  C   UNL     1       1.524   9.017  19.495  0.00  0.00    +0.000 A 
ATOM      9  N   UNL     1       0.896  10.052  20.049  0.00  0.00    +0.000 NA
ATOM     10  C   UNL     1       2.394   5.082  18.512  0.00  0.00    +0.000 A 
ATOM     11  C   UNL     1       2.700   4.292  17.425  0.00  0.00    +0.000 A 
ATOM     12  C   UNL     1       2.655   2.899  17.581  0.00  0.00    +0.000 A 
ATOM     13  C   UNL     1       2.289   2.311  18.805  0.00  0.00    +0.000 A 
ATOM     14  C   UNL     1       1.988   3.102  19.905  0.00  0.00    +0.000 A 
ATOM     15  C   UNL     1       2.059   4.472  19.743  0.00  0.00    +0.000 A 
ATOM     16  C   UNL     1       1.787   5.507  20.782  0.00  0.00    +0.000 C 
ENDROOT
BRANCH   1  17
ATOM     17  C   UNL     1      -0.095  10.281  22.457  0.00  0.00    +0.000 C 
ATOM     18  O   UNL     1       0.059   9.934  23.625  0.00  0.00    +0.000 OA
BRANCH  17  19
ATOM     19  O   UNL     1      -1.118  11.073  22.033  0.00  0.00    +0.000 OA
BRANCH  19  21
ATOM     20  C   UNL     1      -2.833  12.154  23.305  0.00  0.00    +0.000 C 
ATOM     21  C   UNL     1      -1.369  12.193  22.901  0.00  0.00    +0.000 C 
ENDBRANCH  19  21
ENDBRANCH  17  19
ENDBRANCH   1  17
BRANCH   7  22
ATOM     22  O   UNL     1       2.054   9.776  17.314  0.00  0.00    +0.000 OA
ATOM     23  H   UNL     1       1.204  10.242  17.366  0.00  0.00    +0.000 HD
ENDBRANCH   7  22
TORSDOF 4
ENDMDL
MODEL 5
REMARK VINA RESULT:      -7.4      1.924      2.015
REMARK  Name = 
REMARK  5 active torsions:
REMARK  status: ('A' for Active; 'I' for Inactive)
REMARK    1  A    between atoms: C_1  and  C_2
REMARK    2  A    between atoms: C_2  and  O_3
REMARK    3  A    between atoms: O_3  and  C_4
REMARK    4  A    between atoms: C_4  and  C_6
REMARK    5  A    between atoms: C_12  and  O_13
REMARK                            x       y       z     vdW  Elec       q    Type
REMARK                         _______ _______ _______ _____ _____    ______ ____
ROOT
ATOM      1  C   UNL     1       5.866   5.236  15.182  0.00  0.00    +0.000 A 
ATOM      2  C   UNL     1       5.037   4.268  15.713  0.00  0.00    +0.000 A 
ATOM      3  N   UNL     1       4.361   4.887  16.703  0.00  0.00    +0.000 N 
ATOM      4  C   UNL     1       3.639   4.369  17.734  0.00  0.00    +0.000 A 
ATOM      5  C   UNL     1       3.055   5.197  18.612  0.00  0.00    +0.000 A 
ATOM      6  N   UNL     1       3.089   6.577  18.528  0.00  0.00    +0.000 NA
ATOM      7  C   UNL     1       3.837   7.048  17.560  0.00  0.00    +0.000 A 
ATOM      8  C   UNL     1       4.583   6.234  16.611  0.00  0.00    +0.000 A 
ATOM      9  N   UNL     1       5.545   6.494  15.729  0.00  0.00    +0.000 NA
ATOM     10  C   UNL     1       2.552   4.334  19.690  0.00  0.00    +0.000 A 
ATOM     11  C   UNL     1       1.870   4.612  20.855  0.00  0.00    +0.000 A 
ATOM     12  C   UNL     1       1.572   3.550  21.721  0.00  0.00    +0.000 A 
ATOM     13  C   UNL     1       1.972   2.234  21.430  0.00  0.00    +0.000 A 
ATOM     14  C   UNL     1       2.651   1.947  20.255  0.00  0.00    +0.000 A 
ATOM     15  C   UNL     1       2.918   3.000  19.399  0.00  0.00    +0.000 A 
ATOM     16  C   UNL     1       3.624   2.925  18.089  0.00  0.00    +0.000 C 
ENDROOT
BRANCH   1  17
ATOM     17  C   UNL     1       6.954   4.828  14.289  0.00  0.00    +0.000 C 
ATOM     18  O   UNL     1       7.859   5.609  14.007  0.00  0.00    +0.000 OA
BRANCH  17  19
ATOM     19  O   UNL     1       6.755   3.640  13.652  0.00  0.00    +0.000 OA
BRANCH  19  21
ATOM     20  C   UNL     1       5.161   3.206  11.920  0.00  0.00    +0.000 C 
ATOM     21  C   UNL     1       6.530   3.784  12.238  0.00  0.00    +0.000 C 
ENDBRANCH  19  21
ENDBRANCH  17  19
ENDBRANCH   1  17
BRANCH   7  22
ATOM     22  O   UNL     1       3.911   8.376  17.366  0.00  0.00    +0.000 OA
ATOM     23  H   UNL     1       4.836   8.639  17.500  0.00  0.00    +0.000 HD
ENDBRANCH   7  22
TORSDOF 4
ENDMDL
MODEL 6
REMARK VINA RESULT:      -7.4      2.210      6.597
REMARK  Name = 
REMARK  5 active torsions:
REMARK  status: ('A' for Active; 'I' for Inactive)
REMARK    1  A    between atoms: C_1  and  C_2
REMARK    2  A    between atoms: C_2  and  O_3
REMARK    3  A    between atoms: O_3  and  C_4
REMARK    4  A    between atoms: C_4  and  C_6
REMARK    5  A    between atoms: C_12  and  O_13
REMARK                            x       y       z     vdW  Elec       q    Type
REMARK                         _______ _______ _______ _____ _____    ______ ____
ROOT
ATOM      1  C   UNL     1       4.340   4.430  19.187  0.00  0.00    +0.000 A 
ATOM      2  C   UNL     1       4.629   3.664  18.074  0.00  0.00    +0.000 A 
ATOM      3  N   UNL     1       5.579   4.353  17.408  0.00  0.00    +0.000 N 
ATOM      4  C   UNL     1       6.021   4.229  16.127  0.00  0.00    +0.000 A 
ATOM      5  C   UNL     1       6.984   5.048  15.679  0.00  0.00    +0.000 A 
ATOM      6  N   UNL     1       7.616   6.008  16.449  0.00  0.00    +0.000 NA
ATOM      7  C   UNL     1       7.131   6.144  17.660  0.00  0.00    +0.000 A 
ATOM      8  C   UNL     1       6.030   5.366  18.209  0.00  0.00    +0.000 A 
ATOM      9  N   UNL     1       5.261   5.490  19.289  0.00  0.00    +0.000 NA
ATOM     10  C   UNL     1       7.071   4.798  14.234  0.00  0.00    +0.000 A 
ATOM     11  C   UNL     1       7.871   5.336  13.249  0.00  0.00    +0.000 A 
ATOM     12  C   UNL     1       7.671   4.916  11.926  0.00  0.00    +0.000 A 
ATOM     13  C   UNL     1       6.669   3.985  11.597  0.00  0.00    +0.000 A 
ATOM     14  C   UNL     1       5.866   3.435  12.586  0.00  0.00    +0.000 A 
ATOM     15  C   UNL     1       6.090   3.841  13.888  0.00  0.00    +0.000 A 
ATOM     16  C   UNL     1       5.358   3.380  15.102  0.00  0.00    +0.000 C 
ENDROOT
BRANCH   1  17
ATOM     17  C   UNL     1       3.140   4.123  19.967  0.00  0.00    +0.000 C 
ATOM     18  O   UNL     1       3.095   3.122  20.679  0.00  0.00    +0.000 OA
BRANCH  17  19
ATOM     19  O   UNL     1       2.051   4.885  19.667  0.00  0.00    +0.000 OA
BRANCH  19  21
ATOM     20  C   UNL     1       2.111   7.264  19.919  0.00  0.00    +0.000 C 
ATOM     21  C   UNL     1       1.819   5.944  20.612  0.00  0.00    +0.000 C 
ENDBRANCH  19  21
ENDBRANCH  17  19
ENDBRANCH   1  17
BRANCH   7  22
ATOM     22  O   UNL     1       7.697   7.023  18.505  0.00  0.00    +0.000 OA
ATOM     23  H   UNL     1       8.376   6.546  19.009  0.00  0.00    +0.000 HD
ENDBRANCH   7  22
TORSDOF 4
ENDMDL
MODEL 7
REMARK VINA RESULT:      -7.3      0.972      1.334
REMARK  Name = 
REMARK  5 active torsions:
REMARK  status: ('A' for Active; 'I' for Inactive)
REMARK    1  A    between atoms: C_1  and  C_2
REMARK    2  A    between atoms: C_2  and  O_3
REMARK    3  A    between atoms: O_3  and  C_4
REMARK    4  A    between atoms: C_4  and  C_6
REMARK    5  A    between atoms: C_12  and  O_13
REMARK                            x       y       z     vdW  Elec       q    Type
REMARK                         _______ _______ _______ _____ _____    ______ ____
ROOT
ATOM      1  C   UNL     1       6.591   5.062  15.504  0.00  0.00    +0.000 A 
ATOM      2  C   UNL     1       5.243   5.088  15.804  0.00  0.00    +0.000 A 
ATOM      3  N   UNL     1       5.178   4.960  17.146  0.00  0.00    +0.000 N 
ATOM      4  C   UNL     1       4.128   4.637  17.949  0.00  0.00    +0.000 A 
ATOM      5  C   UNL     1       4.311   4.560  19.275  0.00  0.00    +0.000 A 
ATOM      6  N   UNL     1       5.505   4.835  19.918  0.00  0.00    +0.000 NA
ATOM      7  C   UNL     1       6.511   5.087  19.117  0.00  0.00    +0.000 A 
ATOM      8  C   UNL     1       6.435   5.105  17.663  0.00  0.00    +0.000 A 
ATOM      9  N   UNL     1       7.346   5.114  16.692  0.00  0.00    +0.000 NA
ATOM     10  C   UNL     1       3.065   3.993  19.812  0.00  0.00    +0.000 A 
ATOM     11  C   UNL     1       2.666   3.686  21.094  0.00  0.00    +0.000 A 
ATOM     12  C   UNL     1       1.408   3.095  21.276  0.00  0.00    +0.000 A 
ATOM     13  C   UNL     1       0.573   2.799  20.183  0.00  0.00    +0.000 A 
ATOM     14  C   UNL     1       0.967   3.114  18.890  0.00  0.00    +0.000 A 
ATOM     15  C   UNL     1       2.200   3.717  18.728  0.00  0.00    +0.000 A 
ATOM     16  C   UNL     1       2.819   4.146  17.442  0.00  0.00    +0.000 C 
ENDROOT
BRANCH   1  17
ATOM     17  C   UNL     1       7.004   4.876  14.111  0.00  0.00    +0.000 C 
ATOM     18  O   UNL     1       6.575   3.932  13.452  0.00  0.00    +0.000 OA
BRANCH  17  19
ATOM     19  O   UNL     1       8.032   5.674  13.708  0.00  0.00    +0.000 OA
BRANCH  19  21
ATOM     20  C   UNL     1       7.877   6.449  11.449  0.00  0.00    +0.000 C 
ATOM     21  C   UNL     1       8.476   5.397  12.368  0.00  0.00    +0.000 C 
ENDBRANCH  19  21
ENDBRANCH  17  19
ENDBRANCH   1  17
BRANCH   7  22
ATOM     22  O   UNL     1       7.709   5.404  19.638  0.00  0.00    +0.000 OA
ATOM     23  H   UNL     1       7.807   4.905  20.465  0.00  0.00    +0.000 HD
ENDBRANCH   7  22
TORSDOF 4
ENDMDL
MODEL 8
REMARK VINA RESULT:      -7.1      2.656      4.691
REMARK  Name = 
REMARK  5 active torsions:
REMARK  status: ('A' for Active; 'I' for Inactive)
REMARK    1  A    between atoms: C_1  and  C_2
REMARK    2  A    between atoms: C_2  and  O_3
REMARK    3  A    between atoms: O_3  and  C_4
REMARK    4  A    between atoms: C_4  and  C_6
REMARK    5  A    between atoms: C_12  and  O_13
REMARK                            x       y       z     vdW  Elec       q    Type
REMARK                         _______ _______ _______ _____ _____    ______ ____
ROOT
ATOM      1  C   UNL     1       7.426   7.353  17.558  0.00  0.00    +0.000 A 
ATOM      2  C   UNL     1       6.692   6.717  18.540  0.00  0.00    +0.000 A 
ATOM      3  N   UNL     1       6.086   5.686  17.916  0.00  0.00    +0.000 N 
ATOM      4  C   UNL     1       5.038   4.911  18.309  0.00  0.00    +0.000 A 
ATOM      5  C   UNL     1       4.599   3.935  17.501  0.00  0.00    +0.000 A 
ATOM      6  N   UNL     1       5.170   3.611  16.283  0.00  0.00    +0.000 NA
ATOM      7  C   UNL     1       6.139   4.409  15.904  0.00  0.00    +0.000 A 
ATOM      8  C   UNL     1       6.628   5.548  16.667  0.00  0.00    +0.000 A 
ATOM      9  N   UNL     1       7.414   6.583  16.378  0.00  0.00    +0.000 NA
ATOM     10  C   UNL     1       3.356   3.448  18.114  0.00  0.00    +0.000 A 
ATOM     11  C   UNL     1       2.466   2.463  17.743  0.00  0.00    +0.000 A 
ATOM     12  C   UNL     1       1.321   2.270  18.530  0.00  0.00    +0.000 A 
ATOM     13  C   UNL     1       1.066   3.069  19.658  0.00  0.00    +0.000 A 
ATOM     14  C   UNL     1       1.962   4.056  20.040  0.00  0.00    +0.000 A 
ATOM     15  C   UNL     1       3.097   4.220  19.270  0.00  0.00    +0.000 A 
ATOM     16  C   UNL     1       4.192   5.207  19.495  0.00  0.00    +0.000 C 
ENDROOT
BRANCH   1  17
ATOM     17  C   UNL     1       7.965   8.688  17.827  0.00  0.00    +0.000 C 
ATOM     18  O   UNL     1       7.661   9.641  17.114  0.00  0.00    +0.000 OA
BRANCH  17  19
ATOM     19  O   UNL     1       8.964   8.725  18.752  0.00  0.00    +0.000 OA
BRANCH  19  21
ATOM     20  C   UNL     1      10.207  10.769  18.838  0.00  0.00    +0.000 C 
ATOM     21  C   UNL     1       9.054   9.985  19.442  0.00  0.00    +0.000 C 
ENDBRANCH  19  21
ENDBRANCH  17  19
ENDBRANCH   1  17
BRANCH   7  22
ATOM     22  O   UNL     1       6.788   4.162  14.753  0.00  0.00    +0.000 OA
ATOM     23  H   UNL     1       7.217   4.988  14.478  0.00  0.00    +0.000 HD
ENDBRANCH   7  22
TORSDOF 4
ENDMDL
MODEL 9
REMARK VINA RESULT:      -7.0      4.617      7.759
REMARK  Name = 
REMARK  5 active torsions:
REMARK  status: ('A' for Active; 'I' for Inactive)
REMARK    1  A    between atoms: C_1  and  C_2
REMARK    2  A    between atoms: C_2  and  O_3
REMARK    3  A    between atoms: O_3  and  C_4
REMARK    4  A    between atoms: C_4  and  C_6
REMARK    5  A    between atoms: C_12  and  O_13
REMARK                            x       y       z     vdW  Elec       q    Type
REMARK                         _______ _______ _______ _____ _____    ______ ____
ROOT
ATOM      1  C   UNL     1       1.334   8.425  20.651  0.00  0.00    +0.000 A 
ATOM      2  C   UNL     1       1.774   8.329  19.345  0.00  0.00    +0.000 A 
ATOM      3  N   UNL     1       2.225   7.064  19.218  0.00  0.00    +0.000 N 
ATOM      4  C   UNL     1       3.018   6.504  18.264  0.00  0.00    +0.000 A 
ATOM      5  C   UNL     1       3.346   5.207  18.356  0.00  0.00    +0.000 A 
ATOM      6  N   UNL     1       2.892   4.353  19.346  0.00  0.00    +0.000 NA
ATOM      7  C   UNL     1       2.177   4.931  20.280  0.00  0.00    +0.000 A 
ATOM      8  C   UNL     1       1.843   6.347  20.319  0.00  0.00    +0.000 A 
ATOM      9  N   UNL     1       1.343   7.152  21.254  0.00  0.00    +0.000 NA
ATOM     10  C   UNL     1       4.360   4.983  17.317  0.00  0.00    +0.000 A 
ATOM     11  C   UNL     1       5.061   3.859  16.935  0.00  0.00    +0.000 A 
ATOM     12  C   UNL     1       6.019   3.986  15.919  0.00  0.00    +0.000 A 
ATOM     13  C   UNL     1       6.282   5.227  15.312  0.00  0.00    +0.000 A 
ATOM     14  C   UNL     1       5.574   6.360  15.687  0.00  0.00    +0.000 A 
ATOM     15  C   UNL     1       4.616   6.215  16.673  0.00  0.00    +0.000 A 
ATOM     16  C   UNL     1       3.738   7.286  17.224  0.00  0.00    +0.000 C 
ENDROOT
BRANCH   1  17
ATOM     17  C   UNL     1       1.061   9.751  21.212  0.00  0.00    +0.000 C 
ATOM     18  O   UNL     1       1.067  10.747  20.493  0.00  0.00    +0.000 OA
BRANCH  17  19
ATOM     19  O   UNL     1       1.029   9.801  22.572  0.00  0.00    +0.000 OA
BRANCH  19  21
ATOM     20  C   UNL     1      -1.081  10.800  23.099  0.00  0.00    +0.000 C 
ATOM     21  C   UNL     1      -0.270   9.516  23.123  0.00  0.00    +0.000 C 
ENDBRANCH  19  21
ENDBRANCH  17  19
ENDBRANCH   1  17
BRANCH   7  22
ATOM     22  O   UNL     1       1.655   4.186  21.270  0.00  0.00    +0.000 OA
ATOM     23  H   UNL     1       2.068   4.474  22.100  0.00  0.00    +0.000 HD
ENDBRANCH   7  22
TORSDOF 4
ENDMDL
