MODEL 1
REMARK VINA RESULT:      -9.2      0.000      0.000
REMARK  Name = 
REMARK  3 active torsions:
REMARK  status: ('A' for Active; 'I' for Inactive)
REMARK    1  A    between atoms: C_1  and  N_2
REMARK    2  A    between atoms: N_5  and  C_6
REMARK    3  A    between atoms: C_8  and  C_9
REMARK                            x       y       z     vdW  Elec       q    Type
REMARK                         _______ _______ _______ _____ _____    ______ ____
ROOT
ATOM      1  C   UNL     1       3.642   5.928  18.933  0.00  0.00    +0.000 A 
ATOM      2  N   UNL     1       2.988   7.083  19.173  0.00  0.00    +0.000 NA
ATOM      3  C   UNL     1       2.019   7.069  20.114  0.00  0.00    +0.000 A 
ATOM      4  N   UNL     1       1.660   5.979  20.817  0.00  0.00    +0.000 NA
ATOM      5  C   UNL     1       2.333   4.852  20.605  0.00  0.00    +0.000 A 
ATOM      6  C   UNL     1       1.998   3.734  21.359  0.00  0.00    +0.000 A 
ATOM      7  C   UNL     1       2.674   2.518  21.230  0.00  0.00    +0.000 A 
ATOM      8  C   UNL     1       3.731   2.415  20.344  0.00  0.00    +0.000 A 
ATOM      9  C   UNL     1       4.087   3.529  19.594  0.00  0.00    +0.000 A 
ATOM     10  C   UNL     1       3.370   4.755  19.676  0.00  0.00    +0.000 A 
ENDROOT
BRANCH   3  11
ATOM     11  C   UNL     1       1.295   8.325  20.426  0.00  0.00    +0.000 A 
ATOM     12  C   UNL     1       1.167   9.365  19.485  0.00  0.00    +0.000 A 
ATOM     13  C   UNL     1       0.479  10.561  19.758  0.00  0.00    +0.000 A 
ATOM     14  C   UNL     1      -0.088  10.693  21.028  0.00  0.00    +0.000 A 
ATOM     15  N   UNL     1      -0.813  11.701  21.611  0.00  0.00    +0.000 N 
ATOM     16  N   UNL     1      -1.184  11.450  22.880  0.00  0.00    +0.000 NA
ATOM     17  C   UNL     1      -0.681  10.235  23.113  0.00  0.00    +0.000 A 
ATOM     18  C   UNL     1       0.012   9.709  22.000  0.00  0.00    +0.000 A 
ATOM     19  C   UNL     1       0.706   8.522  21.700  0.00  0.00    +0.000 A 
ATOM     20  H   UNL     1      -1.086  12.585  21.197  0.00  0.00    +0.000 HD
ENDBRANCH   3  11
BRANCH   1  25
ATOM     21  C   UNL     1       7.177   4.863  14.803  0.00  0.00    +0.000 C 
ATOM     22  N   UNL     1       6.634   5.666  15.897  0.00  0.00    +0.000 NA
ATOM     23  C   UNL     1       6.727   4.927  17.186  0.00  0.00    +0.000 C 
ATOM     24  C   UNL     1       6.040   5.657  18.377  0.00  0.00    +0.000 C 
ATOM     25  N   UNL     1       4.655   5.925  17.984  0.00  0.00    +0.000 N 
ATOM     26  C   UNL     1       4.575   6.792  16.798  0.00  0.00    +0.000 C 
ATOM     27  C   UNL     1       5.221   6.022  15.619  0.00  0.00    +0.000 C 
ENDBRANCH   1  25
TORSDOF 2
ENDMDL
MODEL 2
REMARK VINA RESULT:      -8.9      0.539      1.463
REMARK  Name = 
REMARK  3 active torsions:
REMARK  status: ('A' for Active; 'I' for Inactive)
REMARK    1  A    between atoms: C_1  and  N_2
REMARK    2  A    between atoms: N_5  and  C_6
REMARK    3  A    between atoms: C_8  and  C_9
REMARK                            x       y       z     vdW  Elec       q    Type
REMARK                         _______ _______ _______ _____ _____    ______ ____
ROOT
ATOM      1  C   UNL     1       3.649   5.954  18.915  0.00  0.00    +0.000 A 
ATOM      2  N   UNL     1       3.023   7.124  19.161  0.00  0.00    +0.000 NA
ATOM      3  C   UNL     1       2.053   7.129  20.100  0.00  0.00    +0.000 A 
ATOM      4  N   UNL     1       1.666   6.045  20.796  0.00  0.00    +0.000 NA
ATOM      5  C   UNL     1       2.311   4.903  20.579  0.00  0.00    +0.000 A 
ATOM      6  C   UNL     1       1.947   3.789  21.327  0.00  0.00    +0.000 A 
ATOM      7  C   UNL     1       2.593   2.557  21.193  0.00  0.00    +0.000 A 
ATOM      8  C   UNL     1       3.649   2.432  20.308  0.00  0.00    +0.000 A 
ATOM      9  C   UNL     1       4.033   3.542  19.564  0.00  0.00    +0.000 A 
ATOM     10  C   UNL     1       3.346   4.785  19.652  0.00  0.00    +0.000 A 
ENDROOT
BRANCH   3  11
ATOM     11  C   UNL     1       1.360   8.401  20.418  0.00  0.00    +0.000 A 
ATOM     12  C   UNL     1       0.937   8.714  21.724  0.00  0.00    +0.000 A 
ATOM     13  C   UNL     1       0.284   9.917  22.047  0.00  0.00    +0.000 A 
ATOM     14  C   UNL     1       0.058  10.819  21.004  0.00  0.00    +0.000 A 
ATOM     15  N   UNL     1      -0.532  12.056  20.970  0.00  0.00    +0.000 N 
ATOM     16  N   UNL     1      -0.565  12.618  19.748  0.00  0.00    +0.000 NA
ATOM     17  C   UNL     1       0.031  11.707  18.974  0.00  0.00    +0.000 A 
ATOM     18  C   UNL     1       0.443  10.564  19.697  0.00  0.00    +0.000 A 
ATOM     19  C   UNL     1       1.095   9.352  19.401  0.00  0.00    +0.000 A 
ATOM     20  H   UNL     1      -0.933  12.571  21.746  0.00  0.00    +0.000 HD
ENDBRANCH   3  11
BRANCH   1  25
ATOM     21  C   UNL     1       7.182   4.809  14.805  0.00  0.00    +0.000 C 
ATOM     22  N   UNL     1       6.643   5.630  15.887  0.00  0.00    +0.000 NA
ATOM     23  C   UNL     1       6.729   4.909  17.186  0.00  0.00    +0.000 C 
ATOM     24  C   UNL     1       6.045   5.659  18.366  0.00  0.00    +0.000 C 
ATOM     25  N   UNL     1       4.663   5.932  17.967  0.00  0.00    +0.000 N 
ATOM     26  C   UNL     1       4.591   6.783  16.770  0.00  0.00    +0.000 C 
ATOM     27  C   UNL     1       5.233   5.993  15.602  0.00  0.00    +0.000 C 
ENDBRANCH   1  25
TORSDOF 2
ENDMDL
MODEL 3
REMARK VINA RESULT:      -8.8      1.063      1.445
REMARK  Name = 
REMARK  3 active torsions:
REMARK  status: ('A' for Active; 'I' for Inactive)
REMARK    1  A    between atoms: C_1  and  N_2
REMARK    2  A    between atoms: N_5  and  C_6
REMARK    3  A    between atoms: C_8  and  C_9
REMARK                            x       y       z     vdW  Elec       q    Type
REMARK                         _______ _______ _______ _____ _____    ______ ____
ROOT
ATOM      1  C   UNL     1       3.818   5.266  18.534  0.00  0.00    +0.000 A 
ATOM      2  N   UNL     1       3.298   6.511  18.515  0.00  0.00    +0.000 NA
ATOM      3  C   UNL     1       2.375   6.817  19.451  0.00  0.00    +0.000 A 
ATOM      4  N   UNL     1       1.935   5.962  20.392  0.00  0.00    +0.000 NA
ATOM      5  C   UNL     1       2.478   4.749  20.432  0.00  0.00    +0.000 A 
ATOM      6  C   UNL     1       2.062   3.874  21.429  0.00  0.00    +0.000 A 
ATOM      7  C   UNL     1       2.602   2.593  21.570  0.00  0.00    +0.000 A 
ATOM      8  C   UNL     1       3.603   2.176  20.712  0.00  0.00    +0.000 A 
ATOM      9  C   UNL     1       4.040   3.045  19.720  0.00  0.00    +0.000 A 
ATOM     10  C   UNL     1       3.458   4.330  19.531  0.00  0.00    +0.000 A 
ENDROOT
BRANCH   3  11
ATOM     11  C   UNL     1       1.799   8.184  19.480  0.00  0.00    +0.000 A 
ATOM     12  C   UNL     1       1.812   9.022  18.348  0.00  0.00    +0.000 A 
ATOM     13  C   UNL     1       1.265  10.319  18.353  0.00  0.00    +0.000 A 
ATOM     14  C   UNL     1       0.695  10.765  19.547  0.00  0.00    +0.000 A 
ATOM     15  N   UNL     1       0.084  11.944  19.890  0.00  0.00    +0.000 N 
ATOM     16  N   UNL     1      -0.337  11.996  21.167  0.00  0.00    +0.000 NA
ATOM     17  C   UNL     1       0.015  10.803  21.656  0.00  0.00    +0.000 A 
ATOM     18  C   UNL     1       0.660   9.990  20.696  0.00  0.00    +0.000 A 
ATOM     19  C   UNL     1       1.214   8.697  20.665  0.00  0.00    +0.000 A 
ATOM     20  H   UNL     1      -0.075  12.752  19.299  0.00  0.00    +0.000 HD
ENDBRANCH   3  11
BRANCH   1  25
ATOM     21  C   UNL     1       7.328   5.003  14.256  0.00  0.00    +0.000 C 
ATOM     22  N   UNL     1       6.732   4.523  15.501  0.00  0.00    +0.000 NA
ATOM     23  C   UNL     1       5.283   4.239  15.314  0.00  0.00    +0.000 C 
ATOM     24  C   UNL     1       4.543   3.859  16.630  0.00  0.00    +0.000 C 
ATOM     25  N   UNL     1       4.783   4.937  17.592  0.00  0.00    +0.000 N 
ATOM     26  C   UNL     1       6.213   5.102  17.892  0.00  0.00    +0.000 C 
ATOM     27  C   UNL     1       6.915   5.527  16.578  0.00  0.00    +0.000 C 
ENDBRANCH   1  25
TORSDOF 2
ENDMDL
MODEL 4
REMARK VINA RESULT:      -8.5      1.874      7.843
REMARK  Name = 
REMARK  3 active torsions:
REMARK  status: ('A' for Active; 'I' for Inactive)
REMARK    1  A    between atoms: C_1  and  N_2
REMARK    2  A    between atoms: N_5  and  C_6
REMARK    3  A    between atoms: C_8  and  C_9
REMARK                            x       y       z     vdW  Elec       q    Type
REMARK                         _______ _______ _______ _____ _____    ______ ____
ROOT
ATOM      1  C   UNL     1       2.818   6.125  18.585  0.00  0.00    +0.000 A 
ATOM      2  N   UNL     1       3.705   6.115  17.569  0.00  0.00    +0.000 NA
ATOM      3  C   UNL     1       4.230   4.924  17.208  0.00  0.00    +0.000 A 
ATOM      4  N   UNL     1       3.933   3.754  17.801  0.00  0.00    +0.000 NA
ATOM      5  C   UNL     1       3.029   3.762  18.776  0.00  0.00    +0.000 A 
ATOM      6  C   UNL     1       2.683   2.551  19.364  0.00  0.00    +0.000 A 
ATOM      7  C   UNL     1       1.718   2.459  20.370  0.00  0.00    +0.000 A 
ATOM      8  C   UNL     1       1.057   3.599  20.789  0.00  0.00    +0.000 A 
ATOM      9  C   UNL     1       1.382   4.815  20.200  0.00  0.00    +0.000 A 
ATOM     10  C   UNL     1       2.402   4.929  19.215  0.00  0.00    +0.000 A 
ENDROOT
BRANCH   3  11
ATOM     11  C   UNL     1       5.189   4.869  16.078  0.00  0.00    +0.000 A 
ATOM     12  C   UNL     1       6.432   5.529  16.122  0.00  0.00    +0.000 A 
ATOM     13  C   UNL     1       7.358   5.483  15.063  0.00  0.00    +0.000 A 
ATOM     14  C   UNL     1       6.998   4.743  13.934  0.00  0.00    +0.000 A 
ATOM     15  N   UNL     1       7.650   4.491  12.755  0.00  0.00    +0.000 N 
ATOM     16  N   UNL     1       6.956   3.723  11.894  0.00  0.00    +0.000 NA
ATOM     17  C   UNL     1       5.821   3.473  12.553  0.00  0.00    +0.000 A 
ATOM     18  C   UNL     1       5.786   4.079  13.829  0.00  0.00    +0.000 A 
ATOM     19  C   UNL     1       4.877   4.141  14.902  0.00  0.00    +0.000 A 
ATOM     20  H   UNL     1       8.569   4.815  12.475  0.00  0.00    +0.000 HD
ENDBRANCH   3  11
BRANCH   1  25
ATOM     21  C   UNL     1      -0.490  10.397  19.811  0.00  0.00    +0.000 C 
ATOM     22  N   UNL     1       0.802   9.724  19.693  0.00  0.00    +0.000 NA
ATOM     23  C   UNL     1       1.075   9.356  18.277  0.00  0.00    +0.000 C 
ATOM     24  C   UNL     1       2.367   8.509  18.087  0.00  0.00    +0.000 C 
ATOM     25  N   UNL     1       2.252   7.337  18.958  0.00  0.00    +0.000 N 
ATOM     26  C   UNL     1       2.144   7.710  20.376  0.00  0.00    +0.000 C 
ATOM     27  C   UNL     1       0.827   8.509  20.544  0.00  0.00    +0.000 C 
ENDBRANCH   1  25
TORSDOF 2
ENDMDL
MODEL 5
REMARK VINA RESULT:      -8.0      1.523      1.973
REMARK  Name = 
REMARK  3 active torsions:
REMARK  status: ('A' for Active; 'I' for Inactive)
REMARK    1  A    between atoms: C_1  and  N_2
REMARK    2  A    between atoms: N_5  and  C_6
REMARK    3  A    between atoms: C_8  and  C_9
REMARK                            x       y       z     vdW  Elec       q    Type
REMARK                         _______ _______ _______ _____ _____    ______ ____
ROOT
ATOM      1  C   UNL     1       3.927   5.082  17.527  0.00  0.00    +0.000 A 
ATOM      2  N   UNL     1       3.522   6.342  17.789  0.00  0.00    +0.000 NA
ATOM      3  C   UNL     1       2.477   6.501  18.629  0.00  0.00    +0.000 A 
ATOM      4  N   UNL     1       1.810   5.487  19.210  0.00  0.00    +0.000 NA
ATOM      5  C   UNL     1       2.235   4.249  18.980  0.00  0.00    +0.000 A 
ATOM      6  C   UNL     1       1.580   3.199  19.612  0.00  0.00    +0.000 A 
ATOM      7  C   UNL     1       1.980   1.869  19.458  0.00  0.00    +0.000 A 
ATOM      8  C   UNL     1       3.079   1.573  18.672  0.00  0.00    +0.000 A 
ATOM      9  C   UNL     1       3.753   2.614  18.046  0.00  0.00    +0.000 A 
ATOM     10  C   UNL     1       3.321   3.966  18.150  0.00  0.00    +0.000 A 
ENDROOT
BRANCH   3  11
ATOM     11  C   UNL     1       2.019   7.871  18.963  0.00  0.00    +0.000 A 
ATOM     12  C   UNL     1       2.000   8.905  18.007  0.00  0.00    +0.000 A 
ATOM     13  C   UNL     1       1.564  10.210  18.302  0.00  0.00    +0.000 A 
ATOM     14  C   UNL     1       1.140  10.459  19.610  0.00  0.00    +0.000 A 
ATOM     15  N   UNL     1       0.660  11.588  20.221  0.00  0.00    +0.000 N 
ATOM     16  N   UNL     1       0.359  11.425  21.523  0.00  0.00    +0.000 NA
ATOM     17  C   UNL     1       0.654  10.142  21.748  0.00  0.00    +0.000 A 
ATOM     18  C   UNL     1       1.144   9.485  20.597  0.00  0.00    +0.000 A 
ATOM     19  C   UNL     1       1.585   8.188  20.275  0.00  0.00    +0.000 A 
ATOM     20  H   UNL     1       0.516  12.502  19.806  0.00  0.00    +0.000 HD
ENDBRANCH   3  11
BRANCH   1  25
ATOM     21  C   UNL     1       7.905   5.416  13.686  0.00  0.00    +0.000 C 
ATOM     22  N   UNL     1       7.208   4.791  14.808  0.00  0.00    +0.000 NA
ATOM     23  C   UNL     1       5.812   4.438  14.428  0.00  0.00    +0.000 C 
ATOM     24  C   UNL     1       4.958   3.898  15.611  0.00  0.00    +0.000 C 
ATOM     25  N   UNL     1       5.012   4.897  16.681  0.00  0.00    +0.000 N 
ATOM     26  C   UNL     1       6.385   5.120  17.161  0.00  0.00    +0.000 C 
ATOM     27  C   UNL     1       7.198   5.702  15.978  0.00  0.00    +0.000 C 
ENDBRANCH   1  25
TORSDOF 2
ENDMDL
MODEL 6
REMARK VINA RESULT:      -7.9      1.293      2.154
REMARK  Name = 
REMARK  3 active torsions:
REMARK  status: ('A' for Active; 'I' for Inactive)
REMARK    1  A    between atoms: C_1  and  N_2
REMARK    2  A    between atoms: N_5  and  C_6
REMARK    3  A    between atoms: C_8  and  C_9
REMARK                            x       y       z     vdW  Elec       q    Type
REMARK                         _______ _______ _______ _____ _____    ______ ____
ROOT
ATOM      1  C   UNL     1       3.695   5.304  18.698  0.00  0.00    +0.000 A 
ATOM      2  N   UNL     1       3.201   6.559  18.735  0.00  0.00    +0.000 NA
ATOM      3  C   UNL     1       2.270   6.837  19.673  0.00  0.00    +0.000 A 
ATOM      4  N   UNL     1       1.799   5.944  20.563  0.00  0.00    +0.000 NA
ATOM      5  C   UNL     1       2.316   4.719  20.548  0.00  0.00    +0.000 A 
ATOM      6  C   UNL     1       1.868   3.803  21.492  0.00  0.00    +0.000 A 
ATOM      7  C   UNL     1       2.379   2.506  21.575  0.00  0.00    +0.000 A 
ATOM      8  C   UNL     1       3.384   2.112  20.711  0.00  0.00    +0.000 A 
ATOM      9  C   UNL     1       3.854   3.021  19.771  0.00  0.00    +0.000 A 
ATOM     10  C   UNL     1       3.301   4.326  19.640  0.00  0.00    +0.000 A 
ENDROOT
BRANCH   3  11
ATOM     11  C   UNL     1       1.723   8.212  19.764  0.00  0.00    +0.000 A 
ATOM     12  C   UNL     1       0.935   8.631  20.854  0.00  0.00    +0.000 A 
ATOM     13  C   UNL     1       0.412   9.932  20.962  0.00  0.00    +0.000 A 
ATOM     14  C   UNL     1       0.702  10.823  19.927  0.00  0.00    +0.000 A 
ATOM     15  N   UNL     1       0.364  12.136  19.721  0.00  0.00    +0.000 N 
ATOM     16  N   UNL     1       0.841  12.656  18.575  0.00  0.00    +0.000 NA
ATOM     17  C   UNL     1       1.511  11.637  18.031  0.00  0.00    +0.000 A 
ATOM     18  C   UNL     1       1.464  10.468  18.824  0.00  0.00    +0.000 A 
ATOM     19  C   UNL     1       1.976   9.160  18.741  0.00  0.00    +0.000 A 
ATOM     20  H   UNL     1      -0.191  12.733  20.325  0.00  0.00    +0.000 HD
ENDBRANCH   3  11
BRANCH   1  25
ATOM     21  C   UNL     1       7.186   5.131  14.400  0.00  0.00    +0.000 C 
ATOM     22  N   UNL     1       6.618   4.643  15.655  0.00  0.00    +0.000 NA
ATOM     23  C   UNL     1       5.182   4.296  15.481  0.00  0.00    +0.000 C 
ATOM     24  C   UNL     1       4.467   3.903  16.807  0.00  0.00    +0.000 C 
ATOM     25  N   UNL     1       4.667   5.003  17.754  0.00  0.00    +0.000 N 
ATOM     26  C   UNL     1       6.091   5.232  18.042  0.00  0.00    +0.000 C 
ATOM     27  C   UNL     1       6.766   5.668  16.717  0.00  0.00    +0.000 C 
ENDBRANCH   1  25
TORSDOF 2
ENDMDL
MODEL 7
REMARK VINA RESULT:      -7.7      1.737      7.675
REMARK  Name = 
REMARK  3 active torsions:
REMARK  status: ('A' for Active; 'I' for Inactive)
REMARK    1  A    between atoms: C_1  and  N_2
REMARK    2  A    between atoms: N_5  and  C_6
REMARK    3  A    between atoms: C_8  and  C_9
REMARK                            x       y       z     vdW  Elec       q    Type
REMARK                         _______ _______ _______ _____ _____    ______ ____
ROOT
ATOM      1  C   UNL     1       3.041   6.061  18.955  0.00  0.00    +0.000 A 
ATOM      2  N   UNL     1       3.831   6.070  17.861  0.00  0.00    +0.000 NA
ATOM      3  C   UNL     1       4.554   4.959  17.603  0.00  0.00    +0.000 A 
ATOM      4  N   UNL     1       4.546   3.853  18.369  0.00  0.00    +0.000 NA
ATOM      5  C   UNL     1       3.737   3.834  19.425  0.00  0.00    +0.000 A 
ATOM      6  C   UNL     1       3.688   2.678  20.196  0.00  0.00    +0.000 A 
ATOM      7  C   UNL     1       2.843   2.554  21.301  0.00  0.00    +0.000 A 
ATOM      8  C   UNL     1       2.001   3.599  21.638  0.00  0.00    +0.000 A 
ATOM      9  C   UNL     1       2.028   4.755  20.867  0.00  0.00    +0.000 A 
ATOM     10  C   UNL     1       2.925   4.914  19.774  0.00  0.00    +0.000 A 
ENDROOT
BRANCH   3  11
ATOM     11  C   UNL     1       5.414   4.920  16.395  0.00  0.00    +0.000 A 
ATOM     12  C   UNL     1       6.649   5.595  16.337  0.00  0.00    +0.000 A 
ATOM     13  C   UNL     1       7.482   5.565  15.203  0.00  0.00    +0.000 A 
ATOM     14  C   UNL     1       7.035   4.827  14.105  0.00  0.00    +0.000 A 
ATOM     15  N   UNL     1       7.587   4.588  12.872  0.00  0.00    +0.000 N 
ATOM     16  N   UNL     1       6.831   3.816  12.070  0.00  0.00    +0.000 NA
ATOM     17  C   UNL     1       5.759   3.549  12.821  0.00  0.00    +0.000 A 
ATOM     18  C   UNL     1       5.826   4.149  14.099  0.00  0.00    +0.000 A 
ATOM     19  C   UNL     1       5.011   4.195  15.246  0.00  0.00    +0.000 A 
ATOM     20  H   UNL     1       8.475   4.924  12.517  0.00  0.00    +0.000 HD
ENDBRANCH   3  11
BRANCH   1  25
ATOM     21  C   UNL     1       1.064  11.076  20.230  0.00  0.00    +0.000 C 
ATOM     22  N   UNL     1       0.942   9.678  19.824  0.00  0.00    +0.000 NA
ATOM     23  C   UNL     1       1.467   8.775  20.885  0.00  0.00    +0.000 C 
ATOM     24  C   UNL     1       1.504   7.276  20.470  0.00  0.00    +0.000 C 
ATOM     25  N   UNL     1       2.274   7.186  19.227  0.00  0.00    +0.000 N 
ATOM     26  C   UNL     1       1.656   7.955  18.137  0.00  0.00    +0.000 C 
ATOM     27  C   UNL     1       1.677   9.447  18.556  0.00  0.00    +0.000 C 
ENDBRANCH   1  25
TORSDOF 2
ENDMDL
MODEL 8
REMARK VINA RESULT:      -7.7      2.482      7.784
REMARK  Name = 
REMARK  3 active torsions:
REMARK  status: ('A' for Active; 'I' for Inactive)
REMARK    1  A    between atoms: C_1  and  N_2
REMARK    2  A    between atoms: N_5  and  C_6
REMARK    3  A    between atoms: C_8  and  C_9
REMARK                            x       y       z     vdW  Elec       q    Type
REMARK                         _______ _______ _______ _____ _____    ______ ____
ROOT
ATOM      1  C   UNL     1       1.116  10.762  19.700  0.00  0.00    +0.000 A 
ATOM      2  N   UNL     1       1.758   9.800  19.006  0.00  0.00    +0.000 NA
ATOM      3  C   UNL     1       1.780   8.557  19.533  0.00  0.00    +0.000 A 
ATOM      4  N   UNL     1       1.212   8.221  20.705  0.00  0.00    +0.000 NA
ATOM      5  C   UNL     1       0.547   9.162  21.368  0.00  0.00    +0.000 A 
ATOM      6  C   UNL     1      -0.081   8.812  22.558  0.00  0.00    +0.000 A 
ATOM      7  C   UNL     1      -0.831   9.726  23.302  0.00  0.00    +0.000 A 
ATOM      8  C   UNL     1      -0.986  11.020  22.839  0.00  0.00    +0.000 A 
ATOM      9  C   UNL     1      -0.376  11.380  21.644  0.00  0.00    +0.000 A 
ATOM     10  C   UNL     1       0.437  10.475  20.907  0.00  0.00    +0.000 A 
ENDROOT
BRANCH   3  11
ATOM     11  C   UNL     1       2.453   7.466  18.787  0.00  0.00    +0.000 A 
ATOM     12  C   UNL     1       3.399   7.727  17.776  0.00  0.00    +0.000 A 
ATOM     13  C   UNL     1       4.053   6.707  17.062  0.00  0.00    +0.000 A 
ATOM     14  C   UNL     1       3.728   5.389  17.392  0.00  0.00    +0.000 A 
ATOM     15  N   UNL     1       4.171   4.185  16.910  0.00  0.00    +0.000 N 
ATOM     16  N   UNL     1       3.601   3.114  17.493  0.00  0.00    +0.000 NA
ATOM     17  C   UNL     1       2.766   3.656  18.384  0.00  0.00    +0.000 A 
ATOM     18  C   UNL     1       2.800   5.069  18.371  0.00  0.00    +0.000 A 
ATOM     19  C   UNL     1       2.159   6.109  19.071  0.00  0.00    +0.000 A 
ATOM     20  H   UNL     1       4.859   4.025  16.182  0.00  0.00    +0.000 HD
ENDBRANCH   3  11
BRANCH   1  25
ATOM     21  C   UNL     1       0.816  16.209  18.734  0.00  0.00    +0.000 C 
ATOM     22  N   UNL     1       0.956  14.808  18.341  0.00  0.00    +0.000 NA
ATOM     23  C   UNL     1      -0.260  14.035  18.714  0.00  0.00    +0.000 C 
ATOM     24  C   UNL     1      -0.132  12.504  18.458  0.00  0.00    +0.000 C 
ATOM     25  N   UNL     1       1.065  12.042  19.165  0.00  0.00    +0.000 N 
ATOM     26  C   UNL     1       2.286  12.700  18.674  0.00  0.00    +0.000 C 
ATOM     27  C   UNL     1       2.152  14.212  18.986  0.00  0.00    +0.000 C 
ENDBRANCH   1  25
TORSDOF 2
ENDMDL
MODEL 9
REMARK VINA RESULT:      -7.7      2.381      7.874
REMARK  Name = 
REMARK  3 active torsions:
REMARK  status: ('A' for Active; 'I' for Inactive)
REMARK    1  A    between atoms: C_1  and  N_2
REMARK    2  A    between atoms: N_5  and  C_6
REMARK    3  A    between atoms: C_8  and  C_9
REMARK                            x       y       z     vdW  Elec       q    Type
REMARK                         _______ _______ _______ _____ _____    ______ ____
ROOT
ATOM      1  C   UNL     1       1.110  10.712  19.693  0.00  0.00    +0.000 A 
ATOM      2  N   UNL     1       1.755   9.743  19.011  0.00  0.00    +0.000 NA
ATOM      3  C   UNL     1       1.784   8.508  19.556  0.00  0.00    +0.000 A 
ATOM      4  N   UNL     1       1.222   8.186  20.735  0.00  0.00    +0.000 NA
ATOM      5  C   UNL     1       0.554   9.134  21.386  0.00  0.00    +0.000 A 
ATOM      6  C   UNL     1      -0.068   8.798  22.582  0.00  0.00    +0.000 A 
ATOM      7  C   UNL     1      -0.821   9.719  23.316  0.00  0.00    +0.000 A 
ATOM      8  C   UNL     1      -0.982  11.005  22.836  0.00  0.00    +0.000 A 
ATOM      9  C   UNL     1      -0.379  11.352  21.633  0.00  0.00    +0.000 A 
ATOM     10  C   UNL     1       0.436  10.439  20.907  0.00  0.00    +0.000 A 
ENDROOT
BRANCH   3  11
ATOM     11  C   UNL     1       2.460   7.410  18.824  0.00  0.00    +0.000 A 
ATOM     12  C   UNL     1       2.170   6.055  19.078  0.00  0.00    +0.000 A 
ATOM     13  C   UNL     1       2.795   4.999  18.390  0.00  0.00    +0.000 A 
ATOM     14  C   UNL     1       3.741   5.342  17.420  0.00  0.00    +0.000 A 
ATOM     15  N   UNL     1       4.515   4.582  16.582  0.00  0.00    +0.000 N 
ATOM     16  N   UNL     1       5.325   5.298  15.779  0.00  0.00    +0.000 NA
ATOM     17  C   UNL     1       5.053   6.561  16.116  0.00  0.00    +0.000 A 
ATOM     18  C   UNL     1       4.075   6.657  17.132  0.00  0.00    +0.000 A 
ATOM     19  C   UNL     1       3.435   7.694  17.834  0.00  0.00    +0.000 A 
ATOM     20  H   UNL     1       4.539   3.571  16.509  0.00  0.00    +0.000 HD
ENDBRANCH   3  11
BRANCH   1  25
ATOM     21  C   UNL     1       0.855  16.148  18.654  0.00  0.00    +0.000 C 
ATOM     22  N   UNL     1       0.946  14.739  18.278  0.00  0.00    +0.000 NA
ATOM     23  C   UNL     1      -0.260  13.995  18.733  0.00  0.00    +0.000 C 
ATOM     24  C   UNL     1      -0.175  12.458  18.497  0.00  0.00    +0.000 C 
ATOM     25  N   UNL     1       1.052  11.985  19.141  0.00  0.00    +0.000 N 
ATOM     26  C   UNL     1       2.254  12.611  18.569  0.00  0.00    +0.000 C 
ATOM     27  C   UNL     1       2.166  14.130  18.862  0.00  0.00    +0.000 C 
ENDBRANCH   1  25
TORSDOF 2
ENDMDL
