MODEL 1
REMARK VINA RESULT:      -7.0      0.000      0.000
REMARK  Name = 
REMARK  4 active torsions:
REMARK  status: ('A' for Active; 'I' for Inactive)
REMARK    1  A    between atoms: C_2  and  O_3
REMARK    2  A    between atoms: C_2  and  C_4
REMARK    3  A    between atoms: C_6  and  C_7
REMARK    4  A    between atoms: C_14  and  O_15
REMARK                            x       y       z     vdW  Elec       q    Type
REMARK                         _______ _______ _______ _____ _____    ______ ____
ROOT
ATOM      1  C   UNL     1       6.522   5.103  18.402  0.00  0.00    +0.000 A 
ATOM      2  C   UNL     1       5.283   4.942  19.049  0.00  0.00    +0.000 A 
ATOM      3  C   UNL     1       4.224   4.266  18.421  0.00  0.00    +0.000 A 
ATOM      4  C   UNL     1       4.420   3.812  17.105  0.00  0.00    +0.000 A 
ATOM      5  C   UNL     1       5.650   3.963  16.456  0.00  0.00    +0.000 A 
ATOM      6  C   UNL     1       6.698   4.587  17.115  0.00  0.00    +0.000 A 
ENDROOT
BRANCH   3   7
ATOM      7  C   UNL     1       2.953   4.031  19.131  0.00  0.00    +0.000 A 
ATOM      8  C   UNL     1       2.411   4.708  20.214  0.00  0.00    +0.000 A 
ATOM      9  C   UNL     1       1.160   4.171  20.636  0.00  0.00    +0.000 A 
ATOM     10  C   UNL     1       0.778   3.091  19.877  0.00  0.00    +0.000 A 
ATOM     11  S   UNL     1       1.927   2.722  18.674  0.00  0.00    +0.000 S 
ENDBRANCH   3   7
BRANCH   1  13
ATOM     12  O   UNL     1       8.155   6.814  18.648  0.00  0.00    +0.000 OA
ATOM     13  C   UNL     1       7.595   5.840  19.122  0.00  0.00    +0.000 C 
BRANCH  13  14
ATOM     14  O   UNL     1       7.844   5.379  20.366  0.00  0.00    +0.000 OA
ATOM     15  H   UNL     1       7.973   6.108  21.012  0.00  0.00    +0.000 HD
ENDBRANCH  13  14
ENDBRANCH   1  13
BRANCH   6  16
ATOM     16  O   UNL     1       7.923   4.675  16.504  0.00  0.00    +0.000 OA
ATOM     17  H   UNL     1       8.382   5.466  16.842  0.00  0.00    +0.000 HD
ENDBRANCH   6  16
TORSDOF 4
ENDMDL
MODEL 2
REMARK VINA RESULT:      -6.8      0.830      1.159
REMARK  Name = 
REMARK  4 active torsions:
REMARK  status: ('A' for Active; 'I' for Inactive)
REMARK    1  A    between atoms: C_2  and  O_3
REMARK    2  A    between atoms: C_2  and  C_4
REMARK    3  A    between atoms: C_6  and  C_7
REMARK    4  A    between atoms: C_14  and  O_15
REMARK                            x       y       z     vdW  Elec       q    Type
REMARK                         _______ _______ _______ _____ _____    ______ ____
ROOT
ATOM      1  C   UNL     1       6.499   5.015  18.299  0.00  0.00    +0.000 A 
ATOM      2  C   UNL     1       5.341   4.774  19.062  0.00  0.00    +0.000 A 
ATOM      3  C   UNL     1       4.219   4.152  18.493  0.00  0.00    +0.000 A 
ATOM      4  C   UNL     1       4.263   3.836  17.124  0.00  0.00    +0.000 A 
ATOM      5  C   UNL     1       5.410   4.066  16.359  0.00  0.00    +0.000 A 
ATOM      6  C   UNL     1       6.527   4.633  16.954  0.00  0.00    +0.000 A 
ENDROOT
BRANCH   3   7
ATOM      7  C   UNL     1       3.037   3.831  19.315  0.00  0.00    +0.000 A 
ATOM      8  C   UNL     1       1.743   4.323  19.228  0.00  0.00    +0.000 A 
ATOM      9  C   UNL     1       0.873   3.783  20.219  0.00  0.00    +0.000 A 
ATOM     10  C   UNL     1       1.521   2.899  21.050  0.00  0.00    +0.000 A 
ATOM     11  S   UNL     1       3.168   2.736  20.642  0.00  0.00    +0.000 S 
ENDBRANCH   3   7
BRANCH   1  13
ATOM     12  O   UNL     1       8.253   5.185  19.895  0.00  0.00    +0.000 OA
ATOM     13  C   UNL     1       7.646   5.687  18.964  0.00  0.00    +0.000 C 
BRANCH  13  14
ATOM     14  O   UNL     1       7.997   6.865  18.405  0.00  0.00    +0.000 OA
ATOM     15  H   UNL     1       8.709   6.760  17.737  0.00  0.00    +0.000 HD
ENDBRANCH  13  14
ENDBRANCH   1  13
BRANCH   6  16
ATOM     16  O   UNL     1       7.674   4.797  16.221  0.00  0.00    +0.000 OA
ATOM     17  H   UNL     1       7.477   4.593  15.287  0.00  0.00    +0.000 HD
ENDBRANCH   6  16
TORSDOF 4
ENDMDL
MODEL 3
REMARK VINA RESULT:      -6.7      1.907      3.124
REMARK  Name = 
REMARK  4 active torsions:
REMARK  status: ('A' for Active; 'I' for Inactive)
REMARK    1  A    between atoms: C_2  and  O_3
REMARK    2  A    between atoms: C_2  and  C_4
REMARK    3  A    between atoms: C_6  and  C_7
REMARK    4  A    between atoms: C_14  and  O_15
REMARK                            x       y       z     vdW  Elec       q    Type
REMARK                         _______ _______ _______ _____ _____    ______ ____
ROOT
ATOM      1  C   UNL     1       6.113   4.885  15.874  0.00  0.00    +0.000 A 
ATOM      2  C   UNL     1       5.005   4.142  16.322  0.00  0.00    +0.000 A 
ATOM      3  C   UNL     1       4.461   4.357  17.598  0.00  0.00    +0.000 A 
ATOM      4  C   UNL     1       5.095   5.289  18.437  0.00  0.00    +0.000 A 
ATOM      5  C   UNL     1       6.194   6.036  17.999  0.00  0.00    +0.000 A 
ATOM      6  C   UNL     1       6.682   5.846  16.716  0.00  0.00    +0.000 A 
ENDROOT
BRANCH   3   7
ATOM      7  C   UNL     1       3.253   3.632  18.034  0.00  0.00    +0.000 A 
ATOM      8  C   UNL     1       1.920   3.998  17.929  0.00  0.00    +0.000 A 
ATOM      9  C   UNL     1       1.031   3.035  18.487  0.00  0.00    +0.000 A 
ATOM     10  C   UNL     1       1.702   1.959  19.018  0.00  0.00    +0.000 A 
ATOM     11  S   UNL     1       3.391   2.120  18.853  0.00  0.00    +0.000 S 
ENDBRANCH   3   7
BRANCH   1  13
ATOM     12  O   UNL     1       7.357   5.378  13.909  0.00  0.00    +0.000 OA
ATOM     13  C   UNL     1       6.644   4.597  14.515  0.00  0.00    +0.000 C 
BRANCH  13  14
ATOM     14  O   UNL     1       6.324   3.372  14.044  0.00  0.00    +0.000 OA
ATOM     15  H   UNL     1       7.036   2.995  13.482  0.00  0.00    +0.000 HD
ENDBRANCH  13  14
ENDBRANCH   1  13
BRANCH   6  16
ATOM     16  O   UNL     1       7.716   6.625  16.263  0.00  0.00    +0.000 OA
ATOM     17  H   UNL     1       8.340   6.770  16.999  0.00  0.00    +0.000 HD
ENDBRANCH   6  16
TORSDOF 4
ENDMDL
MODEL 4
REMARK VINA RESULT:      -6.7      1.390      1.783
REMARK  Name = 
REMARK  4 active torsions:
REMARK  status: ('A' for Active; 'I' for Inactive)
REMARK    1  A    between atoms: C_2  and  O_3
REMARK    2  A    between atoms: C_2  and  C_4
REMARK    3  A    between atoms: C_6  and  C_7
REMARK    4  A    between atoms: C_14  and  O_15
REMARK                            x       y       z     vdW  Elec       q    Type
REMARK                         _______ _______ _______ _____ _____    ______ ____
ROOT
ATOM      1  C   UNL     1       6.219   5.404  18.103  0.00  0.00    +0.000 A 
ATOM      2  C   UNL     1       5.171   4.760  18.787  0.00  0.00    +0.000 A 
ATOM      3  C   UNL     1       3.841   5.184  18.632  0.00  0.00    +0.000 A 
ATOM      4  C   UNL     1       3.597   6.308  17.825  0.00  0.00    +0.000 A 
ATOM      5  C   UNL     1       4.631   6.951  17.137  0.00  0.00    +0.000 A 
ATOM      6  C   UNL     1       5.930   6.483  17.263  0.00  0.00    +0.000 A 
ENDROOT
BRANCH   3   7
ATOM      7  C   UNL     1       2.737   4.458  19.289  0.00  0.00    +0.000 A 
ATOM      8  C   UNL     1       2.386   4.415  20.629  0.00  0.00    +0.000 A 
ATOM      9  C   UNL     1       1.259   3.581  20.884  0.00  0.00    +0.000 A 
ATOM     10  C   UNL     1       0.780   2.996  19.736  0.00  0.00    +0.000 A 
ATOM     11  S   UNL     1       1.692   3.441  18.367  0.00  0.00    +0.000 S 
ENDBRANCH   3   7
BRANCH   1  13
ATOM     12  O   UNL     1       8.210   5.096  19.364  0.00  0.00    +0.000 OA
ATOM     13  C   UNL     1       7.603   4.909  18.324  0.00  0.00    +0.000 C 
BRANCH  13  14
ATOM     14  O   UNL     1       8.101   4.181  17.301  0.00  0.00    +0.000 OA
ATOM     15  H   UNL     1       8.607   3.400  17.615  0.00  0.00    +0.000 HD
ENDBRANCH  13  14
ENDBRANCH   1  13
BRANCH   6  16
ATOM     16  O   UNL     1       6.934   7.072  16.536  0.00  0.00    +0.000 OA
ATOM     17  H   UNL     1       6.817   8.040  16.573  0.00  0.00    +0.000 HD
ENDBRANCH   6  16
TORSDOF 4
ENDMDL
MODEL 5
REMARK VINA RESULT:      -6.7      1.300      1.413
REMARK  Name = 
REMARK  4 active torsions:
REMARK  status: ('A' for Active; 'I' for Inactive)
REMARK    1  A    between atoms: C_2  and  O_3
REMARK    2  A    between atoms: C_2  and  C_4
REMARK    3  A    between atoms: C_6  and  C_7
REMARK    4  A    between atoms: C_14  and  O_15
REMARK                            x       y       z     vdW  Elec       q    Type
REMARK                         _______ _______ _______ _____ _____    ______ ____
ROOT
ATOM      1  C   UNL     1       6.595   5.923  17.531  0.00  0.00    +0.000 A 
ATOM      2  C   UNL     1       5.678   5.564  18.536  0.00  0.00    +0.000 A 
ATOM      3  C   UNL     1       4.691   4.594  18.298  0.00  0.00    +0.000 A 
ATOM      4  C   UNL     1       4.606   4.041  17.009  0.00  0.00    +0.000 A 
ATOM      5  C   UNL     1       5.516   4.387  16.005  0.00  0.00    +0.000 A 
ATOM      6  C   UNL     1       6.516   5.308  16.277  0.00  0.00    +0.000 A 
ENDROOT
BRANCH   3   7
ATOM      7  C   UNL     1       3.782   4.163  19.378  0.00  0.00    +0.000 A 
ATOM      8  C   UNL     1       2.827   4.894  20.068  0.00  0.00    +0.000 A 
ATOM      9  C   UNL     1       2.152   4.129  21.063  0.00  0.00    +0.000 A 
ATOM     10  C   UNL     1       2.613   2.835  21.122  0.00  0.00    +0.000 A 
ATOM     11  S   UNL     1       3.858   2.553  19.992  0.00  0.00    +0.000 S 
ENDBRANCH   3   7
BRANCH   1  13
ATOM     12  O   UNL     1       7.770   7.954  17.155  0.00  0.00    +0.000 OA
ATOM     13  C   UNL     1       7.606   6.965  17.848  0.00  0.00    +0.000 C 
BRANCH  13  14
ATOM     14  O   UNL     1       8.275   6.755  19.003  0.00  0.00    +0.000 OA
ATOM     15  H   UNL     1       7.671   6.697  19.775  0.00  0.00    +0.000 HD
ENDBRANCH  13  14
ENDBRANCH   1  13
BRANCH   6  16
ATOM     16  O   UNL     1       7.448   5.598  15.314  0.00  0.00    +0.000 OA
ATOM     17  H   UNL     1       7.629   4.786  14.803  0.00  0.00    +0.000 HD
ENDBRANCH   6  16
TORSDOF 4
ENDMDL
MODEL 6
REMARK VINA RESULT:      -6.7      0.915      1.223
REMARK  Name = 
REMARK  4 active torsions:
REMARK  status: ('A' for Active; 'I' for Inactive)
REMARK    1  A    between atoms: C_2  and  O_3
REMARK    2  A    between atoms: C_2  and  C_4
REMARK    3  A    between atoms: C_6  and  C_7
REMARK    4  A    between atoms: C_14  and  O_15
REMARK                            x       y       z     vdW  Elec       q    Type
REMARK                         _______ _______ _______ _____ _____    ______ ____
ROOT
ATOM      1  C   UNL     1       6.468   5.687  18.518  0.00  0.00    +0.000 A 
ATOM      2  C   UNL     1       5.318   5.204  19.170  0.00  0.00    +0.000 A 
ATOM      3  C   UNL     1       4.132   4.965  18.458  0.00  0.00    +0.000 A 
ATOM      4  C   UNL     1       4.108   5.283  17.089  0.00  0.00    +0.000 A 
ATOM      5  C   UNL     1       5.247   5.759  16.431  0.00  0.00    +0.000 A 
ATOM      6  C   UNL     1       6.423   5.938  17.143  0.00  0.00    +0.000 A 
ENDROOT
BRANCH   3   7
ATOM      7  C   UNL     1       2.954   4.384  19.130  0.00  0.00    +0.000 A 
ATOM      8  C   UNL     1       2.129   4.939  20.096  0.00  0.00    +0.000 A 
ATOM      9  C   UNL     1       1.094   4.056  20.520  0.00  0.00    +0.000 A 
ATOM     10  C   UNL     1       1.156   2.841  19.878  0.00  0.00    +0.000 A 
ATOM     11  S   UNL     1       2.461   2.767  18.784  0.00  0.00    +0.000 S 
ENDBRANCH   3   7
BRANCH   1  13
ATOM     12  O   UNL     1       8.033   5.180  20.233  0.00  0.00    +0.000 OA
ATOM     13  C   UNL     1       7.685   5.929  19.336  0.00  0.00    +0.000 C 
BRANCH  13  14
ATOM     14  O   UNL     1       8.404   7.006  18.954  0.00  0.00    +0.000 OA
ATOM     15  H   UNL     1       9.099   7.237  19.609  0.00  0.00    +0.000 HD
ENDBRANCH  13  14
ENDBRANCH   1  13
BRANCH   6  16
ATOM     16  O   UNL     1       7.556   6.341  16.484  0.00  0.00    +0.000 OA
ATOM     17  H   UNL     1       7.753   5.694  15.780  0.00  0.00    +0.000 HD
ENDBRANCH   6  16
TORSDOF 4
ENDMDL
MODEL 7
REMARK VINA RESULT:      -6.6      1.135      1.546
REMARK  Name = 
REMARK  4 active torsions:
REMARK  status: ('A' for Active; 'I' for Inactive)
REMARK    1  A    between atoms: C_2  and  O_3
REMARK    2  A    between atoms: C_2  and  C_4
REMARK    3  A    between atoms: C_6  and  C_7
REMARK    4  A    between atoms: C_14  and  O_15
REMARK                            x       y       z     vdW  Elec       q    Type
REMARK                         _______ _______ _______ _____ _____    ______ ____
ROOT
ATOM      1  C   UNL     1       6.417   5.584  18.464  0.00  0.00    +0.000 A 
ATOM      2  C   UNL     1       5.247   5.101  19.080  0.00  0.00    +0.000 A 
ATOM      3  C   UNL     1       4.104   4.803  18.321  0.00  0.00    +0.000 A 
ATOM      4  C   UNL     1       4.143   5.062  16.940  0.00  0.00    +0.000 A 
ATOM      5  C   UNL     1       5.302   5.538  16.319  0.00  0.00    +0.000 A 
ATOM      6  C   UNL     1       6.437   5.775  17.079  0.00  0.00    +0.000 A 
ENDROOT
BRANCH   3   7
ATOM      7  C   UNL     1       2.907   4.223  18.958  0.00  0.00    +0.000 A 
ATOM      8  C   UNL     1       1.995   3.310  18.452  0.00  0.00    +0.000 A 
ATOM      9  C   UNL     1       0.948   3.000  19.369  0.00  0.00    +0.000 A 
ATOM     10  C   UNL     1       1.076   3.691  20.551  0.00  0.00    +0.000 A 
ATOM     11  S   UNL     1       2.440   4.713  20.545  0.00  0.00    +0.000 S 
ENDBRANCH   3   7
BRANCH   1  13
ATOM     12  O   UNL     1       7.903   5.190  20.278  0.00  0.00    +0.000 OA
ATOM     13  C   UNL     1       7.586   5.889  19.330  0.00  0.00    +0.000 C 
BRANCH  13  14
ATOM     14  O   UNL     1       8.303   6.964  18.936  0.00  0.00    +0.000 OA
ATOM     15  H   UNL     1       9.219   6.947  19.288  0.00  0.00    +0.000 HD
ENDBRANCH  13  14
ENDBRANCH   1  13
BRANCH   6  16
ATOM     16  O   UNL     1       7.593   6.177  16.461  0.00  0.00    +0.000 OA
ATOM     17  H   UNL     1       8.057   6.804  17.047  0.00  0.00    +0.000 HD
ENDBRANCH   6  16
TORSDOF 4
ENDMDL
MODEL 8
REMARK VINA RESULT:      -6.6      3.684      5.471
REMARK  Name = 
REMARK  4 active torsions:
REMARK  status: ('A' for Active; 'I' for Inactive)
REMARK    1  A    between atoms: C_2  and  O_3
REMARK    2  A    between atoms: C_2  and  C_4
REMARK    3  A    between atoms: C_6  and  C_7
REMARK    4  A    between atoms: C_14  and  O_15
REMARK                            x       y       z     vdW  Elec       q    Type
REMARK                         _______ _______ _______ _____ _____    ______ ____
ROOT
ATOM      1  C   UNL     1       2.652   3.039  19.690  0.00  0.00    +0.000 A 
ATOM      2  C   UNL     1       3.819   3.819  19.578  0.00  0.00    +0.000 A 
ATOM      3  C   UNL     1       4.386   4.092  18.323  0.00  0.00    +0.000 A 
ATOM      4  C   UNL     1       3.791   3.511  17.190  0.00  0.00    +0.000 A 
ATOM      5  C   UNL     1       2.629   2.740  17.290  0.00  0.00    +0.000 A 
ATOM      6  C   UNL     1       2.055   2.527  18.534  0.00  0.00    +0.000 A 
ENDROOT
BRANCH   3   7
ATOM      7  C   UNL     1       5.564   4.973  18.204  0.00  0.00    +0.000 A 
ATOM      8  C   UNL     1       6.520   5.298  19.153  0.00  0.00    +0.000 A 
ATOM      9  C   UNL     1       7.505   6.205  18.664  0.00  0.00    +0.000 A 
ATOM     10  C   UNL     1       7.275   6.562  17.357  0.00  0.00    +0.000 A 
ATOM     11  S   UNL     1       5.874   5.818  16.732  0.00  0.00    +0.000 S 
ENDBRANCH   3   7
BRANCH   1  13
ATOM     12  O   UNL     1       2.827   2.494  21.997  0.00  0.00    +0.000 OA
ATOM     13  C   UNL     1       2.114   2.781  21.051  0.00  0.00    +0.000 C 
BRANCH  13  14
ATOM     14  O   UNL     1       0.779   2.957  21.161  0.00  0.00    +0.000 OA
ATOM     15  H   UNL     1       0.282   2.445  20.487  0.00  0.00    +0.000 HD
ENDBRANCH  13  14
ENDBRANCH   1  13
BRANCH   6  16
ATOM     16  O   UNL     1       0.879   1.827  18.625  0.00  0.00    +0.000 OA
ATOM     17  H   UNL     1       0.702   1.405  17.763  0.00  0.00    +0.000 HD
ENDBRANCH   6  16
TORSDOF 4
ENDMDL
MODEL 9
REMARK VINA RESULT:      -6.6      1.285      1.361
REMARK  Name = 
REMARK  4 active torsions:
REMARK  status: ('A' for Active; 'I' for Inactive)
REMARK    1  A    between atoms: C_2  and  O_3
REMARK    2  A    between atoms: C_2  and  C_4
REMARK    3  A    between atoms: C_6  and  C_7
REMARK    4  A    between atoms: C_14  and  O_15
REMARK                            x       y       z     vdW  Elec       q    Type
REMARK                         _______ _______ _______ _____ _____    ______ ____
ROOT
ATOM      1  C   UNL     1       6.524   5.551  17.944  0.00  0.00    +0.000 A 
ATOM      2  C   UNL     1       5.386   4.890  18.443  0.00  0.00    +0.000 A 
ATOM      3  C   UNL     1       4.395   4.405  17.575  0.00  0.00    +0.000 A 
ATOM      4  C   UNL     1       4.542   4.656  16.200  0.00  0.00    +0.000 A 
ATOM      5  C   UNL     1       5.672   5.307  15.693  0.00  0.00    +0.000 A 
ATOM      6  C   UNL     1       6.664   5.731  16.564  0.00  0.00    +0.000 A 
ENDROOT
BRANCH   3   7
ATOM      7  C   UNL     1       3.244   3.644  18.096  0.00  0.00    +0.000 A 
ATOM      8  C   UNL     1       1.896   3.972  18.089  0.00  0.00    +0.000 A 
ATOM      9  C   UNL     1       1.079   2.982  18.708  0.00  0.00    +0.000 A 
ATOM     10  C   UNL     1       1.818   1.926  19.185  0.00  0.00    +0.000 A 
ATOM     11  S   UNL     1       3.485   2.136  18.898  0.00  0.00    +0.000 S 
ENDBRANCH   3   7
BRANCH   1  13
ATOM     12  O   UNL     1       8.239   7.014  18.699  0.00  0.00    +0.000 OA
ATOM     13  C   UNL     1       7.528   6.049  18.921  0.00  0.00    +0.000 C 
BRANCH  13  14
ATOM     14  O   UNL     1       7.534   5.383  20.096  0.00  0.00    +0.000 OA
ATOM     15  H   UNL     1       6.626   5.211  20.428  0.00  0.00    +0.000 HD
ENDBRANCH  13  14
ENDBRANCH   1  13
BRANCH   6  16
ATOM     16  O   UNL     1       7.801   6.310  16.062  0.00  0.00    +0.000 OA
ATOM     17  H   UNL     1       8.440   5.604  15.846  0.00  0.00    +0.000 HD
ENDBRANCH   6  16
TORSDOF 4
ENDMDL
