MODEL 1
REMARK VINA RESULT:      -8.2      0.000      0.000
REMARK  Name = 
REMARK  8 active torsions:
REMARK  status: ('A' for Active; 'I' for Inactive)
REMARK    1  A    between atoms: C_1  and  C_2
REMARK    2  A    between atoms: C_2  and  C_3
REMARK    3  A    between atoms: C_3  and  C_4
REMARK    4  A    between atoms: C_4  and  C_5
REMARK    5  A    between atoms: C_5  and  C_6
REMARK    6  A    between atoms: C_6  and  C_7
REMARK    7  A    between atoms: C_7  and  N_8
REMARK    8  A    between atoms: C_17  and  C_18
REMARK                            x       y       z     vdW  Elec       q    Type
REMARK                         _______ _______ _______ _____ _____    ______ ____
ROOT
ATOM      1  N   UNL     1       0.299  10.486  19.376  0.00  0.00    +0.000 N 
ATOM      2  C   UNL     1      -0.103  10.502  20.696  0.00  0.00    +0.000 A 
ATOM      3  C   UNL     1      -0.917  11.400  21.408  0.00  0.00    +0.000 A 
ATOM      4  C   UNL     1      -1.160  11.159  22.759  0.00  0.00    +0.000 A 
ATOM      5  C   UNL     1      -0.604  10.054  23.389  0.00  0.00    +0.000 A 
ATOM      6  C   UNL     1       0.214   9.163  22.678  0.00  0.00    +0.000 A 
ATOM      7  C   UNL     1       0.475   9.384  21.308  0.00  0.00    +0.000 A 
ATOM      8  C   UNL     1       1.232   8.678  20.311  0.00  0.00    +0.000 A 
ATOM      9  C   UNL     1       2.025   7.502  20.306  0.00  0.00    +0.000 A 
ATOM     10  C   UNL     1       2.599   7.058  19.098  0.00  0.00    +0.000 A 
ATOM     11  C   UNL     1       2.327   7.729  17.910  0.00  0.00    +0.000 A 
ATOM     12  C   UNL     1       1.655   8.942  17.915  0.00  0.00    +0.000 A 
ATOM     13  C   UNL     1       1.089   9.384  19.117  0.00  0.00    +0.000 A 
ENDROOT
BRANCH  10  14
ATOM     14  C   UNL     1       3.459   5.842  19.072  0.00  0.00    +0.000 C 
ATOM     15  O   UNL     1       4.649   5.993  18.793  0.00  0.00    +0.000 OA
ATOM     16  N   UNL     1       2.904   4.595  19.396  0.00  0.00    +0.000 N 
ATOM     17  C   UNL     1       3.792   3.461  19.636  0.00  0.00    +0.000 C 
ATOM     18  C   UNL     1       3.501   2.315  18.668  0.00  0.00    +0.000 C 
ATOM     19  C   UNL     1       2.022   1.933  18.674  0.00  0.00    +0.000 C 
ATOM     20  C   UNL     1       1.146   3.155  18.434  0.00  0.00    +0.000 C 
ATOM     21  C   UNL     1       1.473   4.267  19.417  0.00  0.00    +0.000 C 
ENDBRANCH  10  14
BRANCH   1  22
ATOM     22  C   UNL     1      -0.059  11.474  18.369  0.00  0.00    +0.000 C 
BRANCH  22  23
ATOM     23  C   UNL     1      -1.544  11.437  18.005  0.00  0.00    +0.000 C 
BRANCH  23  24
ATOM     24  C   UNL     1      -1.937  10.071  17.457  0.00  0.00    +0.000 C 
BRANCH  24  25
ATOM     25  C   UNL     1      -3.122  10.198  16.504  0.00  0.00    +0.000 C 
BRANCH  25  26
ATOM     26  C   UNL     1      -3.985  11.400  16.874  0.00  0.00    +0.000 C 
BRANCH  26  28
ATOM     27  C   UNL     1      -5.300  11.979  18.929  0.00  0.00    +0.000 C 
ATOM     28  C   UNL     1      -5.135  10.991  17.788  0.00  0.00    +0.000 C 
ENDBRANCH  26  28
ENDBRANCH  25  26
ENDBRANCH  24  25
ENDBRANCH  23  24
ENDBRANCH  22  23
ENDBRANCH   1  22
TORSDOF 7
ENDMDL
MODEL 2
REMARK VINA RESULT:      -8.2      2.409      8.247
REMARK  Name = 
REMARK  8 active torsions:
REMARK  status: ('A' for Active; 'I' for Inactive)
REMARK    1  A    between atoms: C_1  and  C_2
REMARK    2  A    between atoms: C_2  and  C_3
REMARK    3  A    between atoms: C_3  and  C_4
REMARK    4  A    between atoms: C_4  and  C_5
REMARK    5  A    between atoms: C_5  and  C_6
REMARK    6  A    between atoms: C_6  and  C_7
REMARK    7  A    between atoms: C_7  and  N_8
REMARK    8  A    between atoms: C_17  and  C_18
REMARK                            x       y       z     vdW  Elec       q    Type
REMARK                         _______ _______ _______ _____ _____    ______ ____
ROOT
ATOM      1  N   UNL     1       4.449   4.542  18.478  0.00  0.00    +0.000 N 
ATOM      2  C   UNL     1       5.055   4.706  17.249  0.00  0.00    +0.000 A 
ATOM      3  C   UNL     1       5.924   3.872  16.523  0.00  0.00    +0.000 A 
ATOM      4  C   UNL     1       6.387   4.305  15.282  0.00  0.00    +0.000 A 
ATOM      5  C   UNL     1       6.000   5.538  14.775  0.00  0.00    +0.000 A 
ATOM      6  C   UNL     1       5.138   6.370  15.504  0.00  0.00    +0.000 A 
ATOM      7  C   UNL     1       4.654   5.956  16.764  0.00  0.00    +0.000 A 
ATOM      8  C   UNL     1       3.770   6.542  17.734  0.00  0.00    +0.000 A 
ATOM      9  C   UNL     1       3.053   7.763  17.823  0.00  0.00    +0.000 A 
ATOM     10  C   UNL     1       2.214   7.993  18.932  0.00  0.00    +0.000 A 
ATOM     11  C   UNL     1       2.036   7.000  19.890  0.00  0.00    +0.000 A 
ATOM     12  C   UNL     1       2.817   5.854  19.881  0.00  0.00    +0.000 A 
ATOM     13  C   UNL     1       3.654   5.628  18.781  0.00  0.00    +0.000 A 
ENDROOT
BRANCH  10  14
ATOM     14  C   UNL     1       1.472   9.278  19.063  0.00  0.00    +0.000 C 
ATOM     15  O   UNL     1       1.721  10.166  18.246  0.00  0.00    +0.000 OA
ATOM     16  N   UNL     1       0.507   9.420  20.071  0.00  0.00    +0.000 N 
ATOM     17  C   UNL     1      -0.403  10.562  20.032  0.00  0.00    +0.000 C 
ATOM     18  C   UNL     1      -0.282  11.413  21.295  0.00  0.00    +0.000 C 
ATOM     19  C   UNL     1      -0.430  10.568  22.560  0.00  0.00    +0.000 C 
ATOM     20  C   UNL     1       0.531   9.387  22.539  0.00  0.00    +0.000 C 
ATOM     21  C   UNL     1       0.374   8.574  21.264  0.00  0.00    +0.000 C 
ENDBRANCH  10  14
BRANCH   1  22
ATOM     22  C   UNL     1       4.597   3.385  19.347  0.00  0.00    +0.000 C 
BRANCH  22  23
ATOM     23  C   UNL     1       4.144   2.083  18.684  0.00  0.00    +0.000 C 
BRANCH  23  24
ATOM     24  C   UNL     1       2.764   2.241  18.061  0.00  0.00    +0.000 C 
BRANCH  24  25
ATOM     25  C   UNL     1       1.680   1.810  19.045  0.00  0.00    +0.000 C 
BRANCH  25  26
ATOM     26  C   UNL     1       0.693   2.946  19.292  0.00  0.00    +0.000 C 
BRANCH  26  28
ATOM     27  C   UNL     1       1.635   2.557  21.583  0.00  0.00    +0.000 C 
ATOM     28  C   UNL     1       0.840   3.506  20.703  0.00  0.00    +0.000 C 
ENDBRANCH  26  28
ENDBRANCH  25  26
ENDBRANCH  24  25
ENDBRANCH  23  24
ENDBRANCH  22  23
ENDBRANCH   1  22
TORSDOF 7
ENDMDL
MODEL 3
REMARK VINA RESULT:      -8.2      1.034      1.428
REMARK  Name = 
REMARK  8 active torsions:
REMARK  status: ('A' for Active; 'I' for Inactive)
REMARK    1  A    between atoms: C_1  and  C_2
REMARK    2  A    between atoms: C_2  and  C_3
REMARK    3  A    between atoms: C_3  and  C_4
REMARK    4  A    between atoms: C_4  and  C_5
REMARK    5  A    between atoms: C_5  and  C_6
REMARK    6  A    between atoms: C_6  and  C_7
REMARK    7  A    between atoms: C_7  and  N_8
REMARK    8  A    between atoms: C_17  and  C_18
REMARK                            x       y       z     vdW  Elec       q    Type
REMARK                         _______ _______ _______ _____ _____    ______ ____
ROOT
ATOM      1  N   UNL     1       0.548  10.628  19.499  0.00  0.00    +0.000 N 
ATOM      2  C   UNL     1       0.103  10.518  20.800  0.00  0.00    +0.000 A 
ATOM      3  C   UNL     1      -0.673  11.382  21.593  0.00  0.00    +0.000 A 
ATOM      4  C   UNL     1      -0.978  11.002  22.899  0.00  0.00    +0.000 A 
ATOM      5  C   UNL     1      -0.521   9.795  23.407  0.00  0.00    +0.000 A 
ATOM      6  C   UNL     1       0.259   8.937  22.616  0.00  0.00    +0.000 A 
ATOM      7  C   UNL     1       0.581   9.297  21.290  0.00  0.00    +0.000 A 
ATOM      8  C   UNL     1       1.323   8.660  20.236  0.00  0.00    +0.000 A 
ATOM      9  C   UNL     1       2.034   7.439  20.112  0.00  0.00    +0.000 A 
ATOM     10  C   UNL     1       2.618   7.100  18.875  0.00  0.00    +0.000 A 
ATOM     11  C   UNL     1       2.433   7.923  17.769  0.00  0.00    +0.000 A 
ATOM     12  C   UNL     1       1.845   9.172  17.900  0.00  0.00    +0.000 A 
ATOM     13  C   UNL     1       1.270   9.510  19.132  0.00  0.00    +0.000 A 
ENDROOT
BRANCH  10  14
ATOM     14  C   UNL     1       3.394   5.837  18.727  0.00  0.00    +0.000 C 
ATOM     15  O   UNL     1       4.467   5.896  18.126  0.00  0.00    +0.000 OA
ATOM     16  N   UNL     1       2.903   4.653  19.298  0.00  0.00    +0.000 N 
ATOM     17  C   UNL     1       3.781   3.490  19.391  0.00  0.00    +0.000 C 
ATOM     18  C   UNL     1       3.197   2.293  18.642  0.00  0.00    +0.000 C 
ATOM     19  C   UNL     1       1.762   2.000  19.079  0.00  0.00    +0.000 C 
ATOM     20  C   UNL     1       0.898   3.251  18.975  0.00  0.00    +0.000 C 
ATOM     21  C   UNL     1       1.522   4.413  19.732  0.00  0.00    +0.000 C 
ENDBRANCH  10  14
BRANCH   1  22
ATOM     22  C   UNL     1       0.293  11.750  18.608  0.00  0.00    +0.000 C 
BRANCH  22  23
ATOM     23  C   UNL     1      -1.156  12.236  18.668  0.00  0.00    +0.000 C 
BRANCH  23  24
ATOM     24  C   UNL     1      -1.962  11.692  17.497  0.00  0.00    +0.000 C 
BRANCH  24  25
ATOM     25  C   UNL     1      -2.105  10.176  17.604  0.00  0.00    +0.000 C 
BRANCH  25  26
ATOM     26  C   UNL     1      -2.869   9.621  16.407  0.00  0.00    +0.000 C 
BRANCH  26  28
ATOM     27  C   UNL     1      -3.315   9.978  13.965  0.00  0.00    +0.000 C 
ATOM     28  C   UNL     1      -2.942  10.644  15.278  0.00  0.00    +0.000 C 
ENDBRANCH  26  28
ENDBRANCH  25  26
ENDBRANCH  24  25
ENDBRANCH  23  24
ENDBRANCH  22  23
ENDBRANCH   1  22
TORSDOF 7
ENDMDL
MODEL 4
REMARK VINA RESULT:      -8.2      2.987      8.284
REMARK  Name = 
REMARK  8 active torsions:
REMARK  status: ('A' for Active; 'I' for Inactive)
REMARK    1  A    between atoms: C_1  and  C_2
REMARK    2  A    between atoms: C_2  and  C_3
REMARK    3  A    between atoms: C_3  and  C_4
REMARK    4  A    between atoms: C_4  and  C_5
REMARK    5  A    between atoms: C_5  and  C_6
REMARK    6  A    between atoms: C_6  and  C_7
REMARK    7  A    between atoms: C_7  and  N_8
REMARK    8  A    between atoms: C_17  and  C_18
REMARK                            x       y       z     vdW  Elec       q    Type
REMARK                         _______ _______ _______ _____ _____    ______ ____
ROOT
ATOM      1  N   UNL     1       3.481   5.480  18.162  0.00  0.00    +0.000 N 
ATOM      2  C   UNL     1       3.219   4.601  19.193  0.00  0.00    +0.000 A 
ATOM      3  C   UNL     1       3.616   3.268  19.400  0.00  0.00    +0.000 A 
ATOM      4  C   UNL     1       3.195   2.616  20.558  0.00  0.00    +0.000 A 
ATOM      5  C   UNL     1       2.396   3.269  21.485  0.00  0.00    +0.000 A 
ATOM      6  C   UNL     1       1.995   4.597  21.272  0.00  0.00    +0.000 A 
ATOM      7  C   UNL     1       2.409   5.281  20.109  0.00  0.00    +0.000 A 
ATOM      8  C   UNL     1       2.198   6.612  19.607  0.00  0.00    +0.000 A 
ATOM      9  C   UNL     1       1.485   7.750  20.063  0.00  0.00    +0.000 A 
ATOM     10  C   UNL     1       1.538   8.945  19.318  0.00  0.00    +0.000 A 
ATOM     11  C   UNL     1       2.343   9.025  18.186  0.00  0.00    +0.000 A 
ATOM     12  C   UNL     1       2.950   7.893  17.662  0.00  0.00    +0.000 A 
ATOM     13  C   UNL     1       2.891   6.705  18.401  0.00  0.00    +0.000 A 
ENDROOT
BRANCH  10  14
ATOM     14  C   UNL     1       0.775  10.146  19.760  0.00  0.00    +0.000 C 
ATOM     15  O   UNL     1       1.043  10.614  20.868  0.00  0.00    +0.000 OA
ATOM     16  N   UNL     1      -0.179  10.714  18.903  0.00  0.00    +0.000 N 
ATOM     17  C   UNL     1      -0.723  12.032  19.216  0.00  0.00    +0.000 C 
ATOM     18  C   UNL     1      -2.241  11.980  19.381  0.00  0.00    +0.000 C 
ATOM     19  C   UNL     1      -2.917  11.319  18.181  0.00  0.00    +0.000 C 
ATOM     20  C   UNL     1      -2.300   9.957  17.893  0.00  0.00    +0.000 C 
ATOM     21  C   UNL     1      -0.791  10.060  17.740  0.00  0.00    +0.000 C 
ENDBRANCH  10  14
BRANCH   1  22
ATOM     22  C   UNL     1       4.281   5.188  16.983  0.00  0.00    +0.000 C 
BRANCH  22  23
ATOM     23  C   UNL     1       5.780   5.133  17.281  0.00  0.00    +0.000 C 
BRANCH  23  24
ATOM     24  C   UNL     1       6.596   5.486  16.045  0.00  0.00    +0.000 C 
BRANCH  24  25
ATOM     25  C   UNL     1       5.817   5.151  14.776  0.00  0.00    +0.000 C 
BRANCH  25  26
ATOM     26  C   UNL     1       6.221   3.781  14.241  0.00  0.00    +0.000 C 
BRANCH  26  28
ATOM     27  C   UNL     1       5.154   3.232  12.039  0.00  0.00    +0.000 C 
ATOM     28  C   UNL     1       6.380   3.808  12.725  0.00  0.00    +0.000 C 
ENDBRANCH  26  28
ENDBRANCH  25  26
ENDBRANCH  24  25
ENDBRANCH  23  24
ENDBRANCH  22  23
ENDBRANCH   1  22
TORSDOF 7
ENDMDL
MODEL 5
REMARK VINA RESULT:      -8.1      3.052      8.283
REMARK  Name = 
REMARK  8 active torsions:
REMARK  status: ('A' for Active; 'I' for Inactive)
REMARK    1  A    between atoms: C_1  and  C_2
REMARK    2  A    between atoms: C_2  and  C_3
REMARK    3  A    between atoms: C_3  and  C_4
REMARK    4  A    between atoms: C_4  and  C_5
REMARK    5  A    between atoms: C_5  and  C_6
REMARK    6  A    between atoms: C_6  and  C_7
REMARK    7  A    between atoms: C_7  and  N_8
REMARK    8  A    between atoms: C_17  and  C_18
REMARK                            x       y       z     vdW  Elec       q    Type
REMARK                         _______ _______ _______ _____ _____    ______ ____
ROOT
ATOM      1  N   UNL     1       3.711   5.127  18.040  0.00  0.00    +0.000 N 
ATOM      2  C   UNL     1       3.423   4.296  19.102  0.00  0.00    +0.000 A 
ATOM      3  C   UNL     1       3.794   2.966  19.369  0.00  0.00    +0.000 A 
ATOM      4  C   UNL     1       3.348   2.369  20.547  0.00  0.00    +0.000 A 
ATOM      5  C   UNL     1       2.551   3.074  21.437  0.00  0.00    +0.000 A 
ATOM      6  C   UNL     1       2.177   4.399  21.165  0.00  0.00    +0.000 A 
ATOM      7  C   UNL     1       2.614   5.027  19.980  0.00  0.00    +0.000 A 
ATOM      8  C   UNL     1       2.433   6.340  19.421  0.00  0.00    +0.000 A 
ATOM      9  C   UNL     1       1.735   7.508  19.823  0.00  0.00    +0.000 A 
ATOM     10  C   UNL     1       1.818   8.670  19.030  0.00  0.00    +0.000 A 
ATOM     11  C   UNL     1       2.636   8.689  17.905  0.00  0.00    +0.000 A 
ATOM     12  C   UNL     1       3.228   7.526  17.434  0.00  0.00    +0.000 A 
ATOM     13  C   UNL     1       3.141   6.371  18.221  0.00  0.00    +0.000 A 
ENDROOT
BRANCH  10  14
ATOM     14  C   UNL     1       1.072   9.901  19.414  0.00  0.00    +0.000 C 
ATOM     15  O   UNL     1       1.327  10.937  18.799  0.00  0.00    +0.000 OA
ATOM     16  N   UNL     1       0.096   9.832  20.420  0.00  0.00    +0.000 N 
ATOM     17  C   UNL     1      -0.817  10.957  20.605  0.00  0.00    +0.000 C 
ATOM     18  C   UNL     1      -0.711  11.530  22.018  0.00  0.00    +0.000 C 
ATOM     19  C   UNL     1      -0.870  10.444  23.081  0.00  0.00    +0.000 C 
ATOM     20  C   UNL     1       0.094   9.292  22.828  0.00  0.00    +0.000 C 
ATOM     21  C   UNL     1      -0.048   8.759  21.411  0.00  0.00    +0.000 C 
ENDBRANCH  10  14
BRANCH   1  22
ATOM     22  C   UNL     1       4.519   4.773  16.882  0.00  0.00    +0.000 C 
BRANCH  22  23
ATOM     23  C   UNL     1       6.009   5.041  17.094  0.00  0.00    +0.000 C 
BRANCH  23  24
ATOM     24  C   UNL     1       6.827   4.548  15.908  0.00  0.00    +0.000 C 
BRANCH  24  25
ATOM     25  C   UNL     1       5.909   4.020  14.808  0.00  0.00    +0.000 C 
BRANCH  25  26
ATOM     26  C   UNL     1       6.515   4.272  13.432  0.00  0.00    +0.000 C 
BRANCH  26  28
ATOM     27  C   UNL     1       4.643   3.460  11.974  0.00  0.00    +0.000 C 
ATOM     28  C   UNL     1       6.069   3.210  12.432  0.00  0.00    +0.000 C 
ENDBRANCH  26  28
ENDBRANCH  25  26
ENDBRANCH  24  25
ENDBRANCH  23  24
ENDBRANCH  22  23
ENDBRANCH   1  22
TORSDOF 7
ENDMDL
MODEL 6
REMARK VINA RESULT:      -8.1      2.577      8.161
REMARK  Name = 
REMARK  8 active torsions:
REMARK  status: ('A' for Active; 'I' for Inactive)
REMARK    1  A    between atoms: C_1  and  C_2
REMARK    2  A    between atoms: C_2  and  C_3
REMARK    3  A    between atoms: C_3  and  C_4
REMARK    4  A    between atoms: C_4  and  C_5
REMARK    5  A    between atoms: C_5  and  C_6
REMARK    6  A    between atoms: C_6  and  C_7
REMARK    7  A    between atoms: C_7  and  N_8
REMARK    8  A    between atoms: C_17  and  C_18
REMARK                            x       y       z     vdW  Elec       q    Type
REMARK                         _______ _______ _______ _____ _____    ______ ____
ROOT
ATOM      1  N   UNL     1       3.351   5.214  18.162  0.00  0.00    +0.000 N 
ATOM      2  C   UNL     1       3.167   4.357  19.228  0.00  0.00    +0.000 A 
ATOM      3  C   UNL     1       3.558   3.020  19.424  0.00  0.00    +0.000 A 
ATOM      4  C   UNL     1       3.231   2.395  20.626  0.00  0.00    +0.000 A 
ATOM      5  C   UNL     1       2.529   3.079  21.608  0.00  0.00    +0.000 A 
ATOM      6  C   UNL     1       2.134   4.410  21.408  0.00  0.00    +0.000 A 
ATOM      7  C   UNL     1       2.453   5.067  20.200  0.00  0.00    +0.000 A 
ATOM      8  C   UNL     1       2.221   6.393  19.695  0.00  0.00    +0.000 A 
ATOM      9  C   UNL     1       1.571   7.551  20.192  0.00  0.00    +0.000 A 
ATOM     10  C   UNL     1       1.578   8.733  19.423  0.00  0.00    +0.000 A 
ATOM     11  C   UNL     1       2.280   8.779  18.223  0.00  0.00    +0.000 A 
ATOM     12  C   UNL     1       2.817   7.627  17.667  0.00  0.00    +0.000 A 
ATOM     13  C   UNL     1       2.806   6.453  18.430  0.00  0.00    +0.000 A 
ENDROOT
BRANCH  10  14
ATOM     14  C   UNL     1       0.879   9.955  19.910  0.00  0.00    +0.000 C 
ATOM     15  O   UNL     1       1.143  10.347  21.048  0.00  0.00    +0.000 OA
ATOM     16  N   UNL     1      -0.014  10.625  19.061  0.00  0.00    +0.000 N 
ATOM     17  C   UNL     1      -0.485  11.957  19.430  0.00  0.00    +0.000 C 
ATOM     18  C   UNL     1      -2.007  11.993  19.554  0.00  0.00    +0.000 C 
ATOM     19  C   UNL     1      -2.688  11.440  18.303  0.00  0.00    +0.000 C 
ATOM     20  C   UNL     1      -2.148  10.058  17.958  0.00  0.00    +0.000 C 
ATOM     21  C   UNL     1      -0.631  10.073  17.849  0.00  0.00    +0.000 C 
ENDBRANCH  10  14
BRANCH   1  22
ATOM     22  C   UNL     1       4.037   4.887  16.921  0.00  0.00    +0.000 C 
BRANCH  22  23
ATOM     23  C   UNL     1       5.353   5.648  16.753  0.00  0.00    +0.000 C 
BRANCH  23  24
ATOM     24  C   UNL     1       6.475   4.977  17.534  0.00  0.00    +0.000 C 
BRANCH  24  25
ATOM     25  C   UNL     1       6.753   5.735  18.829  0.00  0.00    +0.000 C 
BRANCH  25  26
ATOM     26  C   UNL     1       7.998   6.604  18.688  0.00  0.00    +0.000 C 
BRANCH  26  28
ATOM     27  C   UNL     1       8.360   9.036  18.194  0.00  0.00    +0.000 C 
ATOM     28  C   UNL     1       7.770   7.732  17.686  0.00  0.00    +0.000 C 
ENDBRANCH  26  28
ENDBRANCH  25  26
ENDBRANCH  24  25
ENDBRANCH  23  24
ENDBRANCH  22  23
ENDBRANCH   1  22
TORSDOF 7
ENDMDL
MODEL 7
REMARK VINA RESULT:      -8.0      2.521      8.260
REMARK  Name = 
REMARK  8 active torsions:
REMARK  status: ('A' for Active; 'I' for Inactive)
REMARK    1  A    between atoms: C_1  and  C_2
REMARK    2  A    between atoms: C_2  and  C_3
REMARK    3  A    between atoms: C_3  and  C_4
REMARK    4  A    between atoms: C_4  and  C_5
REMARK    5  A    between atoms: C_5  and  C_6
REMARK    6  A    between atoms: C_6  and  C_7
REMARK    7  A    between atoms: C_7  and  N_8
REMARK    8  A    between atoms: C_17  and  C_18
REMARK                            x       y       z     vdW  Elec       q    Type
REMARK                         _______ _______ _______ _____ _____    ______ ____
ROOT
ATOM      1  N   UNL     1       3.502   5.645  18.107  0.00  0.00    +0.000 N 
ATOM      2  C   UNL     1       3.275   4.726  19.110  0.00  0.00    +0.000 A 
ATOM      3  C   UNL     1       3.707   3.397  19.267  0.00  0.00    +0.000 A 
ATOM      4  C   UNL     1       3.317   2.695  20.406  0.00  0.00    +0.000 A 
ATOM      5  C   UNL     1       2.513   3.296  21.364  0.00  0.00    +0.000 A 
ATOM      6  C   UNL     1       2.078   4.620  21.202  0.00  0.00    +0.000 A 
ATOM      7  C   UNL     1       2.459   5.354  20.058  0.00  0.00    +0.000 A 
ATOM      8  C   UNL     1       2.209   6.695  19.604  0.00  0.00    +0.000 A 
ATOM      9  C   UNL     1       1.474   7.799  20.108  0.00  0.00    +0.000 A 
ATOM     10  C   UNL     1       1.488   9.019  19.404  0.00  0.00    +0.000 A 
ATOM     11  C   UNL     1       2.276   9.157  18.266  0.00  0.00    +0.000 A 
ATOM     12  C   UNL     1       2.904   8.060  17.696  0.00  0.00    +0.000 A 
ATOM     13  C   UNL     1       2.885   6.846  18.394  0.00  0.00    +0.000 A 
ENDROOT
BRANCH  10  14
ATOM     14  C   UNL     1       0.702  10.184  19.896  0.00  0.00    +0.000 C 
ATOM     15  O   UNL     1       0.945  10.597  21.031  0.00  0.00    +0.000 OA
ATOM     16  N   UNL     1      -0.246  10.785  19.054  0.00  0.00    +0.000 N 
ATOM     17  C   UNL     1      -0.814  12.077  19.427  0.00  0.00    +0.000 C 
ATOM     18  C   UNL     1      -2.334  11.997  19.564  0.00  0.00    +0.000 C 
ATOM     19  C   UNL     1      -2.981  11.392  18.319  0.00  0.00    +0.000 C 
ATOM     20  C   UNL     1      -2.340  10.056  17.969  0.00  0.00    +0.000 C 
ATOM     21  C   UNL     1      -0.830  10.186  17.848  0.00  0.00    +0.000 C 
ENDBRANCH  10  14
BRANCH   1  22
ATOM     22  C   UNL     1       4.294   5.414  16.908  0.00  0.00    +0.000 C 
BRANCH  22  23
ATOM     23  C   UNL     1       4.667   3.943  16.720  0.00  0.00    +0.000 C 
BRANCH  23  24
ATOM     24  C   UNL     1       5.982   3.807  15.964  0.00  0.00    +0.000 C 
BRANCH  24  25
ATOM     25  C   UNL     1       6.940   4.931  16.349  0.00  0.00    +0.000 C 
BRANCH  25  26
ATOM     26  C   UNL     1       7.635   4.619  17.670  0.00  0.00    +0.000 C 
BRANCH  26  28
ATOM     27  C   UNL     1       7.638   7.121  17.838  0.00  0.00    +0.000 C 
ATOM     28  C   UNL     1       7.586   5.816  18.614  0.00  0.00    +0.000 C 
ENDBRANCH  26  28
ENDBRANCH  25  26
ENDBRANCH  24  25
ENDBRANCH  23  24
ENDBRANCH  22  23
ENDBRANCH   1  22
TORSDOF 7
ENDMDL
MODEL 8
REMARK VINA RESULT:      -7.9      3.452      8.725
REMARK  Name = 
REMARK  8 active torsions:
REMARK  status: ('A' for Active; 'I' for Inactive)
REMARK    1  A    between atoms: C_1  and  C_2
REMARK    2  A    between atoms: C_2  and  C_3
REMARK    3  A    between atoms: C_3  and  C_4
REMARK    4  A    between atoms: C_4  and  C_5
REMARK    5  A    between atoms: C_5  and  C_6
REMARK    6  A    between atoms: C_6  and  C_7
REMARK    7  A    between atoms: C_7  and  N_8
REMARK    8  A    between atoms: C_17  and  C_18
REMARK                            x       y       z     vdW  Elec       q    Type
REMARK                         _______ _______ _______ _____ _____    ______ ____
ROOT
ATOM      1  N   UNL     1       4.383   4.494  17.258  0.00  0.00    +0.000 N 
ATOM      2  C   UNL     1       3.587   3.542  17.859  0.00  0.00    +0.000 A 
ATOM      3  C   UNL     1       3.711   2.143  17.939  0.00  0.00    +0.000 A 
ATOM      4  C   UNL     1       2.736   1.422  18.627  0.00  0.00    +0.000 A 
ATOM      5  C   UNL     1       1.663   2.073  19.218  0.00  0.00    +0.000 A 
ATOM      6  C   UNL     1       1.538   3.467  19.131  0.00  0.00    +0.000 A 
ATOM      7  C   UNL     1       2.511   4.222  18.441  0.00  0.00    +0.000 A 
ATOM      8  C   UNL     1       2.688   5.626  18.186  0.00  0.00    +0.000 A 
ATOM      9  C   UNL     1       1.957   6.799  18.506  0.00  0.00    +0.000 A 
ATOM     10  C   UNL     1       2.467   8.057  18.127  0.00  0.00    +0.000 A 
ATOM     11  C   UNL     1       3.712   8.148  17.512  0.00  0.00    +0.000 A 
ATOM     12  C   UNL     1       4.381   7.010  17.087  0.00  0.00    +0.000 A 
ATOM     13  C   UNL     1       3.871   5.760  17.460  0.00  0.00    +0.000 A 
ENDROOT
BRANCH  10  14
ATOM     14  C   UNL     1       1.705   9.301  18.426  0.00  0.00    +0.000 C 
ATOM     15  O   UNL     1       1.816  10.240  17.637  0.00  0.00    +0.000 OA
ATOM     16  N   UNL     1       0.874   9.349  19.555  0.00  0.00    +0.000 N 
ATOM     17  C   UNL     1      -0.072  10.453  19.697  0.00  0.00    +0.000 C 
ATOM     18  C   UNL     1       0.182  11.239  20.982  0.00  0.00    +0.000 C 
ATOM     19  C   UNL     1       0.227  10.323  22.205  0.00  0.00    +0.000 C 
ATOM     20  C   UNL     1       1.217   9.186  21.994  0.00  0.00    +0.000 C 
ATOM     21  C   UNL     1       0.925   8.436  20.703  0.00  0.00    +0.000 C 
ENDBRANCH  10  14
BRANCH   1  22
ATOM     22  C   UNL     1       5.610   4.231  16.521  0.00  0.00    +0.000 C 
BRANCH  22  23
ATOM     23  C   UNL     1       5.378   4.085  15.017  0.00  0.00    +0.000 C 
BRANCH  23  24
ATOM     24  C   UNL     1       6.648   4.401  14.237  0.00  0.00    +0.000 C 
BRANCH  24  25
ATOM     25  C   UNL     1       6.550   3.858  12.813  0.00  0.00    +0.000 C 
BRANCH  25  26
ATOM     26  C   UNL     1       5.114   3.463  12.485  0.00  0.00    +0.000 C 
BRANCH  26  28
ATOM     27  C   UNL     1       6.074   1.441  11.354  0.00  0.00    +0.000 C 
ATOM     28  C   UNL     1       5.059   2.566  11.252  0.00  0.00    +0.000 C 
ENDBRANCH  26  28
ENDBRANCH  25  26
ENDBRANCH  24  25
ENDBRANCH  23  24
ENDBRANCH  22  23
ENDBRANCH   1  22
TORSDOF 7
ENDMDL
MODEL 9
REMARK VINA RESULT:      -7.9      1.799      2.687
REMARK  Name = 
REMARK  8 active torsions:
REMARK  status: ('A' for Active; 'I' for Inactive)
REMARK    1  A    between atoms: C_1  and  C_2
REMARK    2  A    between atoms: C_2  and  C_3
REMARK    3  A    between atoms: C_3  and  C_4
REMARK    4  A    between atoms: C_4  and  C_5
REMARK    5  A    between atoms: C_5  and  C_6
REMARK    6  A    between atoms: C_6  and  C_7
REMARK    7  A    between atoms: C_7  and  N_8
REMARK    8  A    between atoms: C_17  and  C_18
REMARK                            x       y       z     vdW  Elec       q    Type
REMARK                         _______ _______ _______ _____ _____    ______ ____
ROOT
ATOM      1  N   UNL     1       0.373  10.669  19.463  0.00  0.00    +0.000 N 
ATOM      2  C   UNL     1      -0.009  10.585  20.786  0.00  0.00    +0.000 A 
ATOM      3  C   UNL     1      -0.771  11.451  21.590  0.00  0.00    +0.000 A 
ATOM      4  C   UNL     1      -1.004  11.101  22.919  0.00  0.00    +0.000 A 
ATOM      5  C   UNL     1      -0.490   9.921  23.438  0.00  0.00    +0.000 A 
ATOM      6  C   UNL     1       0.275   9.062  22.635  0.00  0.00    +0.000 A 
ATOM      7  C   UNL     1       0.526   9.392  21.286  0.00  0.00    +0.000 A 
ATOM      8  C   UNL     1       1.235   8.745  20.216  0.00  0.00    +0.000 A 
ATOM      9  C   UNL     1       1.974   7.540  20.093  0.00  0.00    +0.000 A 
ATOM     10  C   UNL     1       2.508   7.181  18.839  0.00  0.00    +0.000 A 
ATOM     11  C   UNL     1       2.250   7.967  17.721  0.00  0.00    +0.000 A 
ATOM     12  C   UNL     1       1.634   9.203  17.845  0.00  0.00    +0.000 A 
ATOM     13  C   UNL     1       1.107   9.561  19.093  0.00  0.00    +0.000 A 
ENDROOT
BRANCH  10  14
ATOM     14  C   UNL     1       3.312   5.936  18.689  0.00  0.00    +0.000 C 
ATOM     15  O   UNL     1       3.018   4.979  19.407  0.00  0.00    +0.000 OA
ATOM     16  N   UNL     1       4.333   5.883  17.729  0.00  0.00    +0.000 N 
ATOM     17  C   UNL     1       4.931   4.593  17.395  0.00  0.00    +0.000 C 
ATOM     18  C   UNL     1       6.435   4.592  17.665  0.00  0.00    +0.000 C 
ATOM     19  C   UNL     1       7.131   5.771  16.986  0.00  0.00    +0.000 C 
ATOM     20  C   UNL     1       6.457   7.085  17.359  0.00  0.00    +0.000 C 
ATOM     21  C   UNL     1       4.964   7.036  17.076  0.00  0.00    +0.000 C 
ENDBRANCH  10  14
BRANCH   1  22
ATOM     22  C   UNL     1       0.045  11.758  18.555  0.00  0.00    +0.000 C 
BRANCH  22  23
ATOM     23  C   UNL     1      -1.427  11.761  18.139  0.00  0.00    +0.000 C 
BRANCH  23  24
ATOM     24  C   UNL     1      -1.975  10.342  18.065  0.00  0.00    +0.000 C 
BRANCH  24  25
ATOM     25  C   UNL     1      -2.152   9.913  16.611  0.00  0.00    +0.000 C 
BRANCH  25  26
ATOM     26  C   UNL     1      -2.992  10.929  15.846  0.00  0.00    +0.000 C 
BRANCH  26  28
ATOM     27  C   UNL     1      -2.864   9.730  13.648  0.00  0.00    +0.000 C 
ATOM     28  C   UNL     1      -3.787  10.258  14.732  0.00  0.00    +0.000 C 
ENDBRANCH  26  28
ENDBRANCH  25  26
ENDBRANCH  24  25
ENDBRANCH  23  24
ENDBRANCH  22  23
ENDBRANCH   1  22
TORSDOF 7
ENDMDL
