MODEL 1
REMARK VINA RESULT:      -5.9      0.000      0.000
REMARK  Name = 
REMARK  2 active torsions:
REMARK  status: ('A' for Active; 'I' for Inactive)
REMARK    1  A    between atoms: C_5  and  C_6
REMARK    2  A    between atoms: C_6  and  N_7
REMARK                            x       y       z     vdW  Elec       q    Type
REMARK                         _______ _______ _______ _____ _____    ______ ____
ROOT
ATOM      1  C   UNL     1       4.204   3.753  18.626  0.00  0.00    +0.000 C 
ENDROOT
BRANCH   1   6
ATOM      2  F   UNL     1       0.034   2.421  19.015  0.00  0.00    +0.000 F 
ATOM      3  C   UNL     1       1.311   2.859  19.036  0.00  0.00    +0.000 C 
ATOM      4  F   UNL     1       1.616   3.125  20.328  0.00  0.00    +0.000 F 
ATOM      5  C   UNL     1       2.339   1.980  18.290  0.00  0.00    +0.000 C 
ATOM      6  C   UNL     1       3.016   3.279  17.790  0.00  0.00    +0.000 C 
ATOM      7  C   UNL     1       1.659   3.987  18.037  0.00  0.00    +0.000 C 
ENDBRANCH   1   6
BRANCH   1   8
ATOM      8  N   UNL     1       5.351   4.127  17.808  0.00  0.00    +0.000 N 
ATOM      9  C   UNL     1       5.388   4.250  16.449  0.00  0.00    +0.000 A 
ATOM     10  C   UNL     1       6.667   4.646  16.145  0.00  0.00    +0.000 A 
ATOM     11 CL   UNL     1       7.333   4.966  14.625  0.00  0.00    +0.000 Cl
ATOM     12  C   UNL     1       7.323   4.739  17.384  0.00  0.00    +0.000 A 
ATOM     13  N   UNL     1       6.521   4.429  18.406  0.00  0.00    +0.000 NA
ENDBRANCH   1   8
TORSDOF 2
ENDMDL
MODEL 2
REMARK VINA RESULT:      -5.9      1.974      2.359
REMARK  Name = 
REMARK  2 active torsions:
REMARK  status: ('A' for Active; 'I' for Inactive)
REMARK    1  A    between atoms: C_5  and  C_6
REMARK    2  A    between atoms: C_6  and  N_7
REMARK                            x       y       z     vdW  Elec       q    Type
REMARK                         _______ _______ _______ _____ _____    ______ ____
ROOT
ATOM      1  C   UNL     1       2.692   5.019  18.906  0.00  0.00    +0.000 C 
ENDROOT
BRANCH   1   6
ATOM      2  F   UNL     1       1.268   2.379  22.118  0.00  0.00    +0.000 F 
ATOM      3  C   UNL     1       1.755   3.277  21.235  0.00  0.00    +0.000 C 
ATOM      4  F   UNL     1       2.410   4.220  21.951  0.00  0.00    +0.000 F 
ATOM      5  C   UNL     1       2.549   2.692  20.045  0.00  0.00    +0.000 C 
ATOM      6  C   UNL     1       1.874   3.749  19.137  0.00  0.00    +0.000 C 
ATOM      7  C   UNL     1       0.747   3.826  20.199  0.00  0.00    +0.000 C 
ENDBRANCH   1   6
BRANCH   1   8
ATOM      8  N   UNL     1       3.954   4.757  18.226  0.00  0.00    +0.000 N 
ATOM      9  C   UNL     1       5.212   4.965  18.713  0.00  0.00    +0.000 A 
ATOM     10  C   UNL     1       6.069   4.546  17.727  0.00  0.00    +0.000 A 
ATOM     11 CL   UNL     1       7.759   4.548  17.734  0.00  0.00    +0.000 Cl
ATOM     12  C   UNL     1       5.236   4.096  16.688  0.00  0.00    +0.000 A 
ATOM     13  N   UNL     1       3.940   4.217  16.990  0.00  0.00    +0.000 NA
ENDBRANCH   1   8
TORSDOF 2
ENDMDL
MODEL 3
REMARK VINA RESULT:      -5.9      1.816      2.123
REMARK  Name = 
REMARK  2 active torsions:
REMARK  status: ('A' for Active; 'I' for Inactive)
REMARK    1  A    between atoms: C_5  and  C_6
REMARK    2  A    between atoms: C_6  and  N_7
REMARK                            x       y       z     vdW  Elec       q    Type
REMARK                         _______ _______ _______ _____ _____    ______ ____
ROOT
ATOM      1  C   UNL     1       4.507   4.131  17.017  0.00  0.00    +0.000 C 
ENDROOT
BRANCH   1   6
ATOM      2  F   UNL     1       0.707   3.118  18.977  0.00  0.00    +0.000 F 
ATOM      3  C   UNL     1       1.796   3.502  18.278  0.00  0.00    +0.000 C 
ATOM      4  F   UNL     1       1.366   4.331  17.299  0.00  0.00    +0.000 F 
ATOM      5  C   UNL     1       2.981   4.037  19.113  0.00  0.00    +0.000 C 
ATOM      6  C   UNL     1       3.935   3.285  18.154  0.00  0.00    +0.000 C 
ATOM      7  C   UNL     1       2.735   2.366  17.808  0.00  0.00    +0.000 C 
ENDBRANCH   1   6
BRANCH   1   8
ATOM      8  N   UNL     1       5.636   4.950  17.441  0.00  0.00    +0.000 N 
ATOM      9  C   UNL     1       5.919   6.227  17.052  0.00  0.00    +0.000 A 
ATOM     10  C   UNL     1       7.056   6.582  17.734  0.00  0.00    +0.000 A 
ATOM     11 CL   UNL     1       7.900   8.045  17.678  0.00  0.00    +0.000 Cl
ATOM     12  C   UNL     1       7.380   5.457  18.511  0.00  0.00    +0.000 A 
ATOM     13  N   UNL     1       6.511   4.457  18.341  0.00  0.00    +0.000 NA
ENDBRANCH   1   8
TORSDOF 2
ENDMDL
MODEL 4
REMARK VINA RESULT:      -5.9      1.822      1.985
REMARK  Name = 
REMARK  2 active torsions:
REMARK  status: ('A' for Active; 'I' for Inactive)
REMARK    1  A    between atoms: C_5  and  C_6
REMARK    2  A    between atoms: C_6  and  N_7
REMARK                            x       y       z     vdW  Elec       q    Type
REMARK                         _______ _______ _______ _____ _____    ______ ____
ROOT
ATOM      1  C   UNL     1       4.139   4.134  17.675  0.00  0.00    +0.000 C 
ENDROOT
BRANCH   1   6
ATOM      2  F   UNL     1       0.490   4.141  20.123  0.00  0.00    +0.000 F 
ATOM      3  C   UNL     1       1.655   4.029  19.453  0.00  0.00    +0.000 C 
ATOM      4  F   UNL     1       2.297   2.948  19.953  0.00  0.00    +0.000 F 
ATOM      5  C   UNL     1       1.555   4.074  17.911  0.00  0.00    +0.000 C 
ATOM      6  C   UNL     1       2.849   4.923  17.899  0.00  0.00    +0.000 C 
ATOM      7  C   UNL     1       2.512   5.314  19.361  0.00  0.00    +0.000 C 
ENDBRANCH   1   6
BRANCH   1   8
ATOM      8  N   UNL     1       5.334   4.936  17.908  0.00  0.00    +0.000 N 
ATOM      9  C   UNL     1       5.666   6.113  17.303  0.00  0.00    +0.000 A 
ATOM     10  C   UNL     1       6.858   6.498  17.865  0.00  0.00    +0.000 A 
ATOM     11 CL   UNL     1       7.778   7.876  17.532  0.00  0.00    +0.000 Cl
ATOM     12  C   UNL     1       7.160   5.494  18.800  0.00  0.00    +0.000 A 
ATOM     13  N   UNL     1       6.228   4.538  18.835  0.00  0.00    +0.000 NA
ENDBRANCH   1   8
TORSDOF 2
ENDMDL
MODEL 5
REMARK VINA RESULT:      -5.8      2.166      2.403
REMARK  Name = 
REMARK  2 active torsions:
REMARK  status: ('A' for Active; 'I' for Inactive)
REMARK    1  A    between atoms: C_5  and  C_6
REMARK    2  A    between atoms: C_6  and  N_7
REMARK                            x       y       z     vdW  Elec       q    Type
REMARK                         _______ _______ _______ _____ _____    ______ ____
ROOT
ATOM      1  C   UNL     1       2.898   3.317  17.595  0.00  0.00    +0.000 C 
ENDROOT
BRANCH   1   6
ATOM      2  F   UNL     1       0.765   2.798  21.401  0.00  0.00    +0.000 F 
ATOM      3  C   UNL     1       1.534   2.896  20.296  0.00  0.00    +0.000 C 
ATOM      4  F   UNL     1       2.700   2.267  20.569  0.00  0.00    +0.000 F 
ATOM      5  C   UNL     1       0.862   2.478  18.968  0.00  0.00    +0.000 C 
ATOM      6  C   UNL     1       1.581   3.668  18.286  0.00  0.00    +0.000 C 
ATOM      7  C   UNL     1       1.679   4.312  19.693  0.00  0.00    +0.000 C 
ENDBRANCH   1   6
BRANCH   1   8
ATOM      8  N   UNL     1       3.955   4.278  17.883  0.00  0.00    +0.000 N 
ATOM      9  C   UNL     1       5.049   4.086  18.677  0.00  0.00    +0.000 A 
ATOM     10  C   UNL     1       5.763   5.257  18.619  0.00  0.00    +0.000 A 
ATOM     11 CL   UNL     1       7.218   5.638  19.390  0.00  0.00    +0.000 Cl
ATOM     12  C   UNL     1       5.025   6.091  17.762  0.00  0.00    +0.000 A 
ATOM     13  N   UNL     1       3.921   5.495  17.303  0.00  0.00    +0.000 NA
ENDBRANCH   1   8
TORSDOF 2
ENDMDL
MODEL 6
REMARK VINA RESULT:      -5.8      1.894      2.161
REMARK  Name = 
REMARK  2 active torsions:
REMARK  status: ('A' for Active; 'I' for Inactive)
REMARK    1  A    between atoms: C_5  and  C_6
REMARK    2  A    between atoms: C_6  and  N_7
REMARK                            x       y       z     vdW  Elec       q    Type
REMARK                         _______ _______ _______ _____ _____    ______ ____
ROOT
ATOM      1  C   UNL     1       2.450   4.845  18.576  0.00  0.00    +0.000 C 
ENDROOT
BRANCH   1   6
ATOM      2  F   UNL     1       1.530   2.321  22.053  0.00  0.00    +0.000 F 
ATOM      3  C   UNL     1       1.841   3.202  21.079  0.00  0.00    +0.000 C 
ATOM      4  F   UNL     1       2.272   4.330  21.688  0.00  0.00    +0.000 F 
ATOM      5  C   UNL     1       2.765   2.672  19.959  0.00  0.00    +0.000 C 
ATOM      6  C   UNL     1       1.907   3.465  18.942  0.00  0.00    +0.000 C 
ATOM      7  C   UNL     1       0.765   3.417  19.989  0.00  0.00    +0.000 C 
ENDBRANCH   1   6
BRANCH   1   8
ATOM      8  N   UNL     1       3.906   4.877  18.515  0.00  0.00    +0.000 N 
ATOM      9  C   UNL     1       4.696   4.467  17.479  0.00  0.00    +0.000 A 
ATOM     10  C   UNL     1       5.987   4.716  17.874  0.00  0.00    +0.000 A 
ATOM     11 CL   UNL     1       7.418   4.427  17.023  0.00  0.00    +0.000 Cl
ATOM     12  C   UNL     1       5.873   5.280  19.156  0.00  0.00    +0.000 A 
ATOM     13  N   UNL     1       4.602   5.386  19.552  0.00  0.00    +0.000 NA
ENDBRANCH   1   8
TORSDOF 2
ENDMDL
MODEL 7
REMARK VINA RESULT:      -5.8      1.700      1.990
REMARK  Name = 
REMARK  2 active torsions:
REMARK  status: ('A' for Active; 'I' for Inactive)
REMARK    1  A    between atoms: C_5  and  C_6
REMARK    2  A    between atoms: C_6  and  N_7
REMARK                            x       y       z     vdW  Elec       q    Type
REMARK                         _______ _______ _______ _____ _____    ______ ____
ROOT
ATOM      1  C   UNL     1       2.237   3.853  17.463  0.00  0.00    +0.000 C 
ENDROOT
BRANCH   1   6
ATOM      2  F   UNL     1       0.814   2.663  21.447  0.00  0.00    +0.000 F 
ATOM      3  C   UNL     1       1.207   3.161  20.255  0.00  0.00    +0.000 C 
ATOM      4  F   UNL     1       0.999   4.498  20.298  0.00  0.00    +0.000 F 
ATOM      5  C   UNL     1       2.612   2.735  19.774  0.00  0.00    +0.000 C 
ATOM      6  C   UNL     1       2.034   2.620  18.342  0.00  0.00    +0.000 C 
ATOM      7  C   UNL     1       0.642   2.452  19.003  0.00  0.00    +0.000 C 
ENDBRANCH   1   6
BRANCH   1   8
ATOM      8  N   UNL     1       3.595   4.377  17.537  0.00  0.00    +0.000 N 
ATOM      9  C   UNL     1       4.726   3.807  17.029  0.00  0.00    +0.000 A 
ATOM     10  C   UNL     1       5.746   4.677  17.322  0.00  0.00    +0.000 A 
ATOM     11 CL   UNL     1       7.389   4.531  16.952  0.00  0.00    +0.000 Cl
ATOM     12  C   UNL     1       5.132   5.743  18.001  0.00  0.00    +0.000 A 
ATOM     13  N   UNL     1       3.814   5.568  18.130  0.00  0.00    +0.000 NA
ENDBRANCH   1   8
TORSDOF 2
ENDMDL
MODEL 8
REMARK VINA RESULT:      -5.8      1.405      1.574
REMARK  Name = 
REMARK  2 active torsions:
REMARK  status: ('A' for Active; 'I' for Inactive)
REMARK    1  A    between atoms: C_5  and  C_6
REMARK    2  A    between atoms: C_6  and  N_7
REMARK                            x       y       z     vdW  Elec       q    Type
REMARK                         _______ _______ _______ _____ _____    ______ ____
ROOT
ATOM      1  C   UNL     1       4.260   3.828  18.529  0.00  0.00    +0.000 C 
ENDROOT
BRANCH   1   6
ATOM      2  F   UNL     1       0.192   2.166  18.536  0.00  0.00    +0.000 F 
ATOM      3  C   UNL     1       1.436   2.668  18.677  0.00  0.00    +0.000 C 
ATOM      4  F   UNL     1       1.738   2.612  19.995  0.00  0.00    +0.000 F 
ATOM      5  C   UNL     1       2.512   2.080  17.737  0.00  0.00    +0.000 C 
ATOM      6  C   UNL     1       3.096   3.507  17.591  0.00  0.00    +0.000 C 
ATOM      7  C   UNL     1       1.698   4.035  18.004  0.00  0.00    +0.000 C 
ENDBRANCH   1   6
BRANCH   1   8
ATOM      8  N   UNL     1       5.276   4.659  17.896  0.00  0.00    +0.000 N 
ATOM      9  C   UNL     1       5.803   5.823  18.376  0.00  0.00    +0.000 A 
ATOM     10  C   UNL     1       6.736   6.219  17.450  0.00  0.00    +0.000 A 
ATOM     11 CL   UNL     1       7.728   7.587  17.479  0.00  0.00    +0.000 Cl
ATOM     12  C   UNL     1       6.703   5.230  16.453  0.00  0.00    +0.000 A 
ATOM     13  N   UNL     1       5.815   4.269  16.723  0.00  0.00    +0.000 NA
ENDBRANCH   1   8
TORSDOF 2
ENDMDL
MODEL 9
REMARK VINA RESULT:      -5.8      1.471      1.800
REMARK  Name = 
REMARK  2 active torsions:
REMARK  status: ('A' for Active; 'I' for Inactive)
REMARK    1  A    between atoms: C_5  and  C_6
REMARK    2  A    between atoms: C_6  and  N_7
REMARK                            x       y       z     vdW  Elec       q    Type
REMARK                         _______ _______ _______ _____ _____    ______ ____
ROOT
ATOM      1  C   UNL     1       3.692   4.798  19.036  0.00  0.00    +0.000 C 
ENDROOT
BRANCH   1   6
ATOM      2  F   UNL     1       0.146   2.235  18.627  0.00  0.00    +0.000 F 
ATOM      3  C   UNL     1       1.311   2.902  18.770  0.00  0.00    +0.000 C 
ATOM      4  F   UNL     1       2.291   1.972  18.846  0.00  0.00    +0.000 F 
ATOM      5  C   UNL     1       1.568   4.038  17.754  0.00  0.00    +0.000 C 
ATOM      6  C   UNL     1       2.170   4.871  18.911  0.00  0.00    +0.000 C 
ATOM      7  C   UNL     1       1.345   3.981  19.876  0.00  0.00    +0.000 C 
ENDBRANCH   1   6
BRANCH   1   8
ATOM      8  N   UNL     1       4.368   4.973  17.757  0.00  0.00    +0.000 N 
ATOM      9  C   UNL     1       4.916   3.997  16.975  0.00  0.00    +0.000 A 
ATOM     10  C   UNL     1       5.408   4.640  15.867  0.00  0.00    +0.000 A 
ATOM     11 CL   UNL     1       6.202   3.972  14.533  0.00  0.00    +0.000 Cl
ATOM     12  C   UNL     1       5.105   5.998  16.069  0.00  0.00    +0.000 A 
ATOM     13  N   UNL     1       4.463   6.207  17.221  0.00  0.00    +0.000 NA
ENDBRANCH   1   8
TORSDOF 2
ENDMDL
