MODEL 1
REMARK VINA RESULT:      -7.7      0.000      0.000
REMARK  Name = 
REMARK  2 active torsions:
REMARK  status: ('A' for Active; 'I' for Inactive)
REMARK    1  A    between atoms: C_7  and  C_8
REMARK    2  A    between atoms: C_13  and  O_14
REMARK                            x       y       z     vdW  Elec       q    Type
REMARK                         _______ _______ _______ _____ _____    ______ ____
ROOT
ATOM      1  N   UNL     1       6.018   4.534  14.324  0.00  0.00    +0.000 NA
ATOM      2  C   UNL     1       7.143   5.140  14.488  0.00  0.00    +0.000 C 
ATOM      3  N   UNL     1       7.970   5.395  13.364  0.00  0.00    +0.000 N 
ATOM      4  N   UNL     1       7.562   5.565  15.787  0.00  0.00    +0.000 N 
ATOM      5  C   UNL     1       6.799   5.339  16.965  0.00  0.00    +0.000 A 
ATOM      6  N   UNL     1       5.635   4.668  16.974  0.00  0.00    +0.000 NA
ATOM      7  C   UNL     1       5.081   4.571  18.209  0.00  0.00    +0.000 A 
ATOM      8  C   UNL     1       5.838   5.193  19.212  0.00  0.00    +0.000 A 
ATOM      9  S   UNL     1       7.219   5.860  18.504  0.00  0.00    +0.000 S 
ATOM     10  H   UNL     1       5.695   4.222  13.396  0.00  0.00    +0.000 HD
ATOM     11  H   UNL     1       7.681   5.092  12.421  0.00  0.00    +0.000 HD
ATOM     12  H   UNL     1       8.870   5.880  13.479  0.00  0.00    +0.000 HD
ATOM     13  H   UNL     1       8.459   6.061  15.879  0.00  0.00    +0.000 HD
ENDROOT
BRANCH   7  14
ATOM     14  C   UNL     1       3.783   3.860  18.407  0.00  0.00    +0.000 A 
ATOM     15  C   UNL     1       2.573   4.415  17.943  0.00  0.00    +0.000 A 
ATOM     16  C   UNL     1       1.362   3.741  18.123  0.00  0.00    +0.000 A 
ATOM     17  C   UNL     1       1.333   2.505  18.766  0.00  0.00    +0.000 A 
ATOM     18  C   UNL     1       2.515   1.937  19.235  0.00  0.00    +0.000 A 
ATOM     19  C   UNL     1       3.739   2.600  19.065  0.00  0.00    +0.000 A 
BRANCH  19  20
ATOM     20  O   UNL     1       4.866   2.022  19.535  0.00  0.00    +0.000 OA
ATOM     21  H   UNL     1       5.136   1.126  19.291  0.00  0.00    +0.000 HD
ENDBRANCH  19  20
ENDBRANCH   7  14
TORSDOF 2
ENDMDL
MODEL 2
REMARK VINA RESULT:      -7.3      2.335      2.738
REMARK  Name = 
REMARK  2 active torsions:
REMARK  status: ('A' for Active; 'I' for Inactive)
REMARK    1  A    between atoms: C_7  and  C_8
REMARK    2  A    between atoms: C_13  and  O_14
REMARK                            x       y       z     vdW  Elec       q    Type
REMARK                         _______ _______ _______ _____ _____    ______ ____
ROOT
ATOM      1  N   UNL     1       6.033   4.086  16.412  0.00  0.00    +0.000 NA
ATOM      2  C   UNL     1       6.396   5.194  15.864  0.00  0.00    +0.000 C 
ATOM      3  N   UNL     1       7.503   5.206  14.978  0.00  0.00    +0.000 N 
ATOM      4  N   UNL     1       5.689   6.408  16.132  0.00  0.00    +0.000 N 
ATOM      5  C   UNL     1       4.577   6.485  17.014  0.00  0.00    +0.000 A 
ATOM      6  N   UNL     1       4.114   5.435  17.711  0.00  0.00    +0.000 NA
ATOM      7  C   UNL     1       3.046   5.737  18.491  0.00  0.00    +0.000 A 
ATOM      8  C   UNL     1       2.651   7.080  18.403  0.00  0.00    +0.000 A 
ATOM      9  S   UNL     1       3.683   7.871  17.324  0.00  0.00    +0.000 S 
ATOM     10  H   UNL     1       6.525   3.199  16.231  0.00  0.00    +0.000 HD
ATOM     11  H   UNL     1       8.024   4.338  14.777  0.00  0.00    +0.000 HD
ATOM     12  H   UNL     1       7.803   6.082  14.530  0.00  0.00    +0.000 HD
ATOM     13  H   UNL     1       5.997   7.272  15.662  0.00  0.00    +0.000 HD
ENDROOT
BRANCH   7  14
ATOM     14  C   UNL     1       2.398   4.690  19.335  0.00  0.00    +0.000 A 
ATOM     15  C   UNL     1       2.642   4.622  20.722  0.00  0.00    +0.000 A 
ATOM     16  C   UNL     1       2.026   3.645  21.509  0.00  0.00    +0.000 A 
ATOM     17  C   UNL     1       1.159   2.719  20.931  0.00  0.00    +0.000 A 
ATOM     18  C   UNL     1       0.904   2.764  19.563  0.00  0.00    +0.000 A 
ATOM     19  C   UNL     1       1.515   3.736  18.758  0.00  0.00    +0.000 A 
BRANCH  19  20
ATOM     20  O   UNL     1       1.248   3.750  17.433  0.00  0.00    +0.000 OA
ATOM     21  H   UNL     1       0.491   3.288  17.047  0.00  0.00    +0.000 HD
ENDBRANCH  19  20
ENDBRANCH   7  14
TORSDOF 2
ENDMDL
MODEL 3
REMARK VINA RESULT:      -7.3      1.201      1.696
REMARK  Name = 
REMARK  2 active torsions:
REMARK  status: ('A' for Active; 'I' for Inactive)
REMARK    1  A    between atoms: C_7  and  C_8
REMARK    2  A    between atoms: C_13  and  O_14
REMARK                            x       y       z     vdW  Elec       q    Type
REMARK                         _______ _______ _______ _____ _____    ______ ____
ROOT
ATOM      1  N   UNL     1       5.991   4.571  14.345  0.00  0.00    +0.000 NA
ATOM      2  C   UNL     1       7.126   5.153  14.525  0.00  0.00    +0.000 C 
ATOM      3  N   UNL     1       7.955   5.429  13.407  0.00  0.00    +0.000 N 
ATOM      4  N   UNL     1       7.555   5.529  15.836  0.00  0.00    +0.000 N 
ATOM      5  C   UNL     1       6.790   5.279  17.008  0.00  0.00    +0.000 A 
ATOM      6  N   UNL     1       5.615   4.628  16.999  0.00  0.00    +0.000 NA
ATOM      7  C   UNL     1       5.062   4.501  18.231  0.00  0.00    +0.000 A 
ATOM      8  C   UNL     1       5.832   5.078  19.252  0.00  0.00    +0.000 A 
ATOM      9  S   UNL     1       7.222   5.744  18.561  0.00  0.00    +0.000 S 
ATOM     10  H   UNL     1       5.660   4.295  13.409  0.00  0.00    +0.000 HD
ATOM     11  H   UNL     1       7.659   5.161  12.456  0.00  0.00    +0.000 HD
ATOM     12  H   UNL     1       8.863   5.895  13.535  0.00  0.00    +0.000 HD
ATOM     13  H   UNL     1       8.461   6.007  15.941  0.00  0.00    +0.000 HD
ENDROOT
BRANCH   7  14
ATOM     14  C   UNL     1       3.753   3.806  18.410  0.00  0.00    +0.000 A 
ATOM     15  C   UNL     1       3.697   2.458  18.820  0.00  0.00    +0.000 A 
ATOM     16  C   UNL     1       2.469   1.814  18.994  0.00  0.00    +0.000 A 
ATOM     17  C   UNL     1       1.277   2.498  18.764  0.00  0.00    +0.000 A 
ATOM     18  C   UNL     1       1.306   3.829  18.356  0.00  0.00    +0.000 A 
ATOM     19  C   UNL     1       2.529   4.490  18.174  0.00  0.00    +0.000 A 
BRANCH  19  20
ATOM     20  O   UNL     1       2.521   5.781  17.774  0.00  0.00    +0.000 OA
ATOM     21  H   UNL     1       2.299   6.512  18.367  0.00  0.00    +0.000 HD
ENDBRANCH  19  20
ENDBRANCH   7  14
TORSDOF 2
ENDMDL
MODEL 4
REMARK VINA RESULT:      -7.1      2.023      2.268
REMARK  Name = 
REMARK  2 active torsions:
REMARK  status: ('A' for Active; 'I' for Inactive)
REMARK    1  A    between atoms: C_7  and  C_8
REMARK    2  A    between atoms: C_13  and  O_14
REMARK                            x       y       z     vdW  Elec       q    Type
REMARK                         _______ _______ _______ _____ _____    ______ ____
ROOT
ATOM      1  N   UNL     1       6.369   4.031  16.305  0.00  0.00    +0.000 NA
ATOM      2  C   UNL     1       6.546   5.133  15.661  0.00  0.00    +0.000 C 
ATOM      3  N   UNL     1       7.543   5.202  14.654  0.00  0.00    +0.000 N 
ATOM      4  N   UNL     1       5.744   6.282  15.945  0.00  0.00    +0.000 N 
ATOM      5  C   UNL     1       4.732   6.300  16.943  0.00  0.00    +0.000 A 
ATOM      6  N   UNL     1       4.465   5.255  17.743  0.00  0.00    +0.000 NA
ATOM      7  C   UNL     1       3.462   5.495  18.624  0.00  0.00    +0.000 A 
ATOM      8  C   UNL     1       2.915   6.782  18.511  0.00  0.00    +0.000 A 
ATOM      9  S   UNL     1       3.731   7.603  17.281  0.00  0.00    +0.000 S 
ATOM     10  H   UNL     1       6.932   3.190  16.114  0.00  0.00    +0.000 HD
ATOM     11  H   UNL     1       8.131   4.381  14.441  0.00  0.00    +0.000 HD
ATOM     12  H   UNL     1       7.695   6.074  14.130  0.00  0.00    +0.000 HD
ATOM     13  H   UNL     1       5.902   7.141  15.399  0.00  0.00    +0.000 HD
ENDROOT
BRANCH   7  14
ATOM     14  C   UNL     1       3.028   4.442  19.590  0.00  0.00    +0.000 A 
ATOM     15  C   UNL     1       1.779   4.522  20.238  0.00  0.00    +0.000 A 
ATOM     16  C   UNL     1       1.374   3.530  21.135  0.00  0.00    +0.000 A 
ATOM     17  C   UNL     1       2.203   2.442  21.402  0.00  0.00    +0.000 A 
ATOM     18  C   UNL     1       3.443   2.342  20.776  0.00  0.00    +0.000 A 
ATOM     19  C   UNL     1       3.866   3.329  19.875  0.00  0.00    +0.000 A 
BRANCH  19  20
ATOM     20  O   UNL     1       5.076   3.203  19.288  0.00  0.00    +0.000 OA
ATOM     21  H   UNL     1       5.185   3.050  18.339  0.00  0.00    +0.000 HD
ENDBRANCH  19  20
ENDBRANCH   7  14
TORSDOF 2
ENDMDL
MODEL 5
REMARK VINA RESULT:      -7.1      3.598      4.931
REMARK  Name = 
REMARK  2 active torsions:
REMARK  status: ('A' for Active; 'I' for Inactive)
REMARK    1  A    between atoms: C_7  and  C_8
REMARK    2  A    between atoms: C_13  and  O_14
REMARK                            x       y       z     vdW  Elec       q    Type
REMARK                         _______ _______ _______ _____ _____    ______ ____
ROOT
ATOM      1  N   UNL     1       2.766   2.787  19.036  0.00  0.00    +0.000 NA
ATOM      2  C   UNL     1       3.712   2.223  18.367  0.00  0.00    +0.000 C 
ATOM      3  N   UNL     1       3.894   0.819  18.463  0.00  0.00    +0.000 N 
ATOM      4  N   UNL     1       4.572   2.994  17.526  0.00  0.00    +0.000 N 
ATOM      5  C   UNL     1       4.464   4.404  17.382  0.00  0.00    +0.000 A 
ATOM      6  N   UNL     1       3.572   5.149  18.057  0.00  0.00    +0.000 NA
ATOM      7  C   UNL     1       3.648   6.472  17.765  0.00  0.00    +0.000 A 
ATOM      8  C   UNL     1       4.638   6.781  16.821  0.00  0.00    +0.000 A 
ATOM      9  S   UNL     1       5.413   5.349  16.371  0.00  0.00    +0.000 S 
ATOM     10  H   UNL     1       2.132   2.250  19.645  0.00  0.00    +0.000 HD
ATOM     11  H   UNL     1       3.282   0.251  19.068  0.00  0.00    +0.000 HD
ATOM     12  H   UNL     1       4.644   0.354  17.933  0.00  0.00    +0.000 HD
ATOM     13  H   UNL     1       5.307   2.508  16.993  0.00  0.00    +0.000 HD
ENDROOT
BRANCH   7  14
ATOM     14  C   UNL     1       2.730   7.449  18.421  0.00  0.00    +0.000 A 
ATOM     15  C   UNL     1       2.239   8.569  17.718  0.00  0.00    +0.000 A 
ATOM     16  C   UNL     1       1.373   9.477  18.334  0.00  0.00    +0.000 A 
ATOM     17  C   UNL     1       0.980   9.287  19.658  0.00  0.00    +0.000 A 
ATOM     18  C   UNL     1       1.452   8.190  20.373  0.00  0.00    +0.000 A 
ATOM     19  C   UNL     1       2.323   7.271  19.772  0.00  0.00    +0.000 A 
BRANCH  19  20
ATOM     20  O   UNL     1       2.765   6.219  20.497  0.00  0.00    +0.000 OA
ATOM     21  H   UNL     1       3.700   6.082  20.705  0.00  0.00    +0.000 HD
ENDBRANCH  19  20
ENDBRANCH   7  14
TORSDOF 2
ENDMDL
MODEL 6
REMARK VINA RESULT:      -7.1      3.516      5.831
REMARK  Name = 
REMARK  2 active torsions:
REMARK  status: ('A' for Active; 'I' for Inactive)
REMARK    1  A    between atoms: C_7  and  C_8
REMARK    2  A    between atoms: C_13  and  O_14
REMARK                            x       y       z     vdW  Elec       q    Type
REMARK                         _______ _______ _______ _____ _____    ______ ____
ROOT
ATOM      1  N   UNL     1       3.231   2.652  20.609  0.00  0.00    +0.000 NA
ATOM      2  C   UNL     1       2.278   3.247  21.239  0.00  0.00    +0.000 C 
ATOM      3  N   UNL     1       1.572   2.554  22.255  0.00  0.00    +0.000 N 
ATOM      4  N   UNL     1       1.930   4.599  20.930  0.00  0.00    +0.000 N 
ATOM      5  C   UNL     1       2.580   5.360  19.920  0.00  0.00    +0.000 A 
ATOM      6  N   UNL     1       3.549   4.867  19.131  0.00  0.00    +0.000 NA
ATOM      7  C   UNL     1       4.024   5.769  18.236  0.00  0.00    +0.000 A 
ATOM      8  C   UNL     1       3.404   7.024  18.325  0.00  0.00    +0.000 A 
ATOM      9  S   UNL     1       2.246   6.963  19.552  0.00  0.00    +0.000 S 
ATOM     10  H   UNL     1       3.501   1.680  20.817  0.00  0.00    +0.000 HD
ATOM     11  H   UNL     1       1.811   1.578  22.487  0.00  0.00    +0.000 HD
ATOM     12  H   UNL     1       0.811   3.017  22.769  0.00  0.00    +0.000 HD
ATOM     13  H   UNL     1       1.174   5.049  21.465  0.00  0.00    +0.000 HD
ENDROOT
BRANCH   7  14
ATOM     14  C   UNL     1       5.108   5.394  17.280  0.00  0.00    +0.000 A 
ATOM     15  C   UNL     1       4.959   5.608  15.894  0.00  0.00    +0.000 A 
ATOM     16  C   UNL     1       5.980   5.263  15.004  0.00  0.00    +0.000 A 
ATOM     17  C   UNL     1       7.165   4.701  15.476  0.00  0.00    +0.000 A 
ATOM     18  C   UNL     1       7.335   4.479  16.840  0.00  0.00    +0.000 A 
ATOM     19  C   UNL     1       6.320   4.816  17.747  0.00  0.00    +0.000 A 
BRANCH  19  20
ATOM     20  O   UNL     1       6.516   4.583  19.064  0.00  0.00    +0.000 OA
ATOM     21  H   UNL     1       7.055   5.161  19.623  0.00  0.00    +0.000 HD
ENDBRANCH  19  20
ENDBRANCH   7  14
TORSDOF 2
ENDMDL
MODEL 7
REMARK VINA RESULT:      -6.9      3.522      4.626
REMARK  Name = 
REMARK  2 active torsions:
REMARK  status: ('A' for Active; 'I' for Inactive)
REMARK    1  A    between atoms: C_7  and  C_8
REMARK    2  A    between atoms: C_13  and  O_14
REMARK                            x       y       z     vdW  Elec       q    Type
REMARK                         _______ _______ _______ _____ _____    ______ ____
ROOT
ATOM      1  N   UNL     1       6.760   5.957  18.371  0.00  0.00    +0.000 NA
ATOM      2  C   UNL     1       6.894   4.756  17.924  0.00  0.00    +0.000 C 
ATOM      3  N   UNL     1       8.195   4.220  17.741  0.00  0.00    +0.000 N 
ATOM      4  N   UNL     1       5.749   3.956  17.621  0.00  0.00    +0.000 N 
ATOM      5  C   UNL     1       4.413   4.420  17.767  0.00  0.00    +0.000 A 
ATOM      6  N   UNL     1       4.102   5.667  18.160  0.00  0.00    +0.000 NA
ATOM      7  C   UNL     1       2.766   5.891  18.228  0.00  0.00    +0.000 A 
ATOM      8  C   UNL     1       1.993   4.775  17.875  0.00  0.00    +0.000 A 
ATOM      9  S   UNL     1       3.036   3.508  17.474  0.00  0.00    +0.000 S 
ATOM     10  H   UNL     1       7.571   6.550  18.599  0.00  0.00    +0.000 HD
ATOM     11  H   UNL     1       9.030   4.787  17.953  0.00  0.00    +0.000 HD
ATOM     12  H   UNL     1       8.319   3.262  17.388  0.00  0.00    +0.000 HD
ATOM     13  H   UNL     1       5.894   2.995  17.282  0.00  0.00    +0.000 HD
ENDROOT
BRANCH   7  14
ATOM     14  C   UNL     1       2.239   7.222  18.651  0.00  0.00    +0.000 A 
ATOM     15  C   UNL     1       2.084   8.271  17.720  0.00  0.00    +0.000 A 
ATOM     16  C   UNL     1       1.582   9.512  18.118  0.00  0.00    +0.000 A 
ATOM     17  C   UNL     1       1.224   9.733  19.447  0.00  0.00    +0.000 A 
ATOM     18  C   UNL     1       1.370   8.714  20.385  0.00  0.00    +0.000 A 
ATOM     19  C   UNL     1       1.874   7.463  20.003  0.00  0.00    +0.000 A 
BRANCH  19  20
ATOM     20  O   UNL     1       2.005   6.497  20.940  0.00  0.00    +0.000 OA
ATOM     21  H   UNL     1       1.552   5.645  20.880  0.00  0.00    +0.000 HD
ENDBRANCH  19  20
ENDBRANCH   7  14
TORSDOF 2
ENDMDL
MODEL 8
REMARK VINA RESULT:      -6.9      3.727      4.790
REMARK  Name = 
REMARK  2 active torsions:
REMARK  status: ('A' for Active; 'I' for Inactive)
REMARK    1  A    between atoms: C_7  and  C_8
REMARK    2  A    between atoms: C_13  and  O_14
REMARK                            x       y       z     vdW  Elec       q    Type
REMARK                         _______ _______ _______ _____ _____    ______ ____
ROOT
ATOM      1  N   UNL     1       6.692   6.063  17.945  0.00  0.00    +0.000 NA
ATOM      2  C   UNL     1       6.898   4.804  18.126  0.00  0.00    +0.000 C 
ATOM      3  N   UNL     1       8.157   4.245  17.787  0.00  0.00    +0.000 N 
ATOM      4  N   UNL     1       5.875   3.967  18.671  0.00  0.00    +0.000 N 
ATOM      5  C   UNL     1       4.584   4.444  19.027  0.00  0.00    +0.000 A 
ATOM      6  N   UNL     1       4.189   5.715  18.843  0.00  0.00    +0.000 NA
ATOM      7  C   UNL     1       2.917   5.947  19.252  0.00  0.00    +0.000 A 
ATOM      8  C   UNL     1       2.285   4.813  19.783  0.00  0.00    +0.000 A 
ATOM      9  S   UNL     1       3.367   3.517  19.716  0.00  0.00    +0.000 S 
ATOM     10  H   UNL     1       7.415   6.685  17.557  0.00  0.00    +0.000 HD
ATOM     11  H   UNL     1       8.903   4.837  17.391  0.00  0.00    +0.000 HD
ATOM     12  H   UNL     1       8.337   3.243  17.928  0.00  0.00    +0.000 HD
ATOM     13  H   UNL     1       6.080   2.968  18.818  0.00  0.00    +0.000 HD
ENDROOT
BRANCH   7  14
ATOM     14  C   UNL     1       2.313   7.306  19.126  0.00  0.00    +0.000 A 
ATOM     15  C   UNL     1       2.281   7.974  17.884  0.00  0.00    +0.000 A 
ATOM     16  C   UNL     1       1.707   9.243  17.769  0.00  0.00    +0.000 A 
ATOM     17  C   UNL     1       1.153   9.868  18.884  0.00  0.00    +0.000 A 
ATOM     18  C   UNL     1       1.174   9.230  20.122  0.00  0.00    +0.000 A 
ATOM     19  C   UNL     1       1.749   7.959  20.256  0.00  0.00    +0.000 A 
BRANCH  19  20
ATOM     20  O   UNL     1       1.755   7.369  21.472  0.00  0.00    +0.000 OA
ATOM     21  H   UNL     1       1.723   6.409  21.590  0.00  0.00    +0.000 HD
ENDBRANCH  19  20
ENDBRANCH   7  14
TORSDOF 2
ENDMDL
MODEL 9
REMARK VINA RESULT:      -6.9      3.676      4.701
REMARK  Name = 
REMARK  2 active torsions:
REMARK  status: ('A' for Active; 'I' for Inactive)
REMARK    1  A    between atoms: C_7  and  C_8
REMARK    2  A    between atoms: C_13  and  O_14
REMARK                            x       y       z     vdW  Elec       q    Type
REMARK                         _______ _______ _______ _____ _____    ______ ____
ROOT
ATOM      1  N   UNL     1       6.449   6.044  17.756  0.00  0.00    +0.000 NA
ATOM      2  C   UNL     1       6.735   4.792  17.851  0.00  0.00    +0.000 C 
ATOM      3  N   UNL     1       7.946   4.307  17.293  0.00  0.00    +0.000 N 
ATOM      4  N   UNL     1       5.850   3.888  18.518  0.00  0.00    +0.000 N 
ATOM      5  C   UNL     1       4.614   4.290  19.093  0.00  0.00    +0.000 A 
ATOM      6  N   UNL     1       4.141   5.546  19.026  0.00  0.00    +0.000 NA
ATOM      7  C   UNL     1       2.942   5.702  19.642  0.00  0.00    +0.000 A 
ATOM      8  C   UNL     1       2.453   4.521  20.219  0.00  0.00    +0.000 A 
ATOM      9  S   UNL     1       3.564   3.283  19.929  0.00  0.00    +0.000 S 
ATOM     10  H   UNL     1       7.074   6.713  17.283  0.00  0.00    +0.000 HD
ATOM     11  H   UNL     1       8.593   4.947  16.807  0.00  0.00    +0.000 HD
ATOM     12  H   UNL     1       8.189   3.310  17.363  0.00  0.00    +0.000 HD
ATOM     13  H   UNL     1       6.119   2.897  18.589  0.00  0.00    +0.000 HD
ENDROOT
BRANCH   7  14
ATOM     14  C   UNL     1       2.268   7.033  19.668  0.00  0.00    +0.000 A 
ATOM     15  C   UNL     1       1.551   7.462  20.805  0.00  0.00    +0.000 A 
ATOM     16  C   UNL     1       0.929   8.713  20.828  0.00  0.00    +0.000 A 
ATOM     17  C   UNL     1       1.008   9.559  19.723  0.00  0.00    +0.000 A 
ATOM     18  C   UNL     1       1.708   9.157  18.588  0.00  0.00    +0.000 A 
ATOM     19  C   UNL     1       2.336   7.904  18.547  0.00  0.00    +0.000 A 
BRANCH  19  20
ATOM     20  O   UNL     1       3.004   7.545  17.428  0.00  0.00    +0.000 OA
ATOM     21  H   UNL     1       3.965   7.436  17.404  0.00  0.00    +0.000 HD
ENDBRANCH  19  20
ENDBRANCH   7  14
TORSDOF 2
ENDMDL
