MODEL 1
REMARK VINA RESULT:      -7.9      0.000      0.000
REMARK  Name = 
REMARK  7 active torsions:
REMARK  status: ('A' for Active; 'I' for Inactive)
REMARK    1  A    between atoms: N_1  and  C_2
REMARK    2  A    between atoms: C_2  and  C_4
REMARK    3  A    between atoms: C_8  and  C_9
REMARK    4  A    between atoms: N_11  and  C_12
REMARK    5  A    between atoms: C_12  and  C_13
REMARK    6  A    between atoms: C_13  and  O_14
REMARK    7  A    between atoms: C_17  and  N_18
REMARK                            x       y       z     vdW  Elec       q    Type
REMARK                         _______ _______ _______ _____ _____    ______ ____
ROOT
ATOM      1  C   UNL     1       4.899   4.778  16.408  0.00  0.00    +0.000 A 
ATOM      2  C   UNL     1       5.043   5.977  17.105  0.00  0.00    +0.000 A 
ATOM      3  N   UNL     1       4.871   5.590  18.399  0.00  0.00    +0.000 N 
ATOM      4  C   UNL     1       3.750   4.809  18.376  0.00  0.00    +0.000 A 
ATOM      5  C   UNL     1       2.806   4.621  19.381  0.00  0.00    +0.000 A 
ATOM      6  C   UNL     1       1.847   3.646  19.190  0.00  0.00    +0.000 A 
ATOM      7  C   UNL     1       1.876   2.900  18.002  0.00  0.00    +0.000 A 
ATOM      8  C   UNL     1       2.879   3.082  17.000  0.00  0.00    +0.000 A 
ATOM      9  C   UNL     1       3.820   4.127  17.148  0.00  0.00    +0.000 A 
ENDROOT
BRANCH   1  14
ATOM     10  C   UNL     1       5.879   3.600  12.922  0.00  0.00    +0.000 A 
ATOM     11  C   UNL     1       7.061   4.294  12.697  0.00  0.00    +0.000 A 
ATOM     12  C   UNL     1       7.607   5.078  13.729  0.00  0.00    +0.000 A 
ATOM     13  C   UNL     1       6.965   5.215  14.977  0.00  0.00    +0.000 A 
ATOM     14  C   UNL     1       5.777   4.540  15.237  0.00  0.00    +0.000 A 
ATOM     15  C   UNL     1       5.280   3.719  14.186  0.00  0.00    +0.000 A 
BRANCH  10  16
ATOM     16  C   UNL     1       5.201   2.817  11.853  0.00  0.00    +0.000 C 
ATOM     17  S   UNL     1       3.806   3.268  11.039  0.00  0.00    +0.000 S 
BRANCH  16  18
ATOM     18  N   UNL     1       5.759   1.618  11.479  0.00  0.00    +0.000 N 
ATOM     19  H   UNL     1       5.967   0.939  12.200  0.00  0.00    +0.000 HD
ATOM     20  H   UNL     1       6.063   1.415  10.537  0.00  0.00    +0.000 HD
ENDBRANCH  16  18
ENDBRANCH  10  16
ENDBRANCH   1  14
BRANCH   6  21
ATOM     21  N   UNL     1       0.764   3.591  20.083  0.00  0.00    +0.000 N 
ATOM     22  H   UNL     1      -0.116   3.897  19.673  0.00  0.00    +0.000 HD
ATOM     23  H   UNL     1       0.938   3.990  20.989  0.00  0.00    +0.000 HD
ENDBRANCH   6  21
BRANCH   3  24
ATOM     24  C   UNL     1       5.979   5.295  19.309  0.00  0.00    +0.000 C 
BRANCH  24  25
ATOM     25  C   UNL     1       7.340   5.518  18.687  0.00  0.00    +0.000 C 
BRANCH  25  26
ATOM     26  O   UNL     1       7.906   4.293  18.236  0.00  0.00    +0.000 OA
ATOM     27  H   UNL     1       7.913   4.322  17.261  0.00  0.00    +0.000 HD
ENDBRANCH  25  26
ENDBRANCH  24  25
ENDBRANCH   3  24
TORSDOF 7
ENDMDL
MODEL 2
REMARK VINA RESULT:      -7.6      1.129      1.304
REMARK  Name = 
REMARK  7 active torsions:
REMARK  status: ('A' for Active; 'I' for Inactive)
REMARK    1  A    between atoms: N_1  and  C_2
REMARK    2  A    between atoms: C_2  and  C_4
REMARK    3  A    between atoms: C_8  and  C_9
REMARK    4  A    between atoms: N_11  and  C_12
REMARK    5  A    between atoms: C_12  and  C_13
REMARK    6  A    between atoms: C_13  and  O_14
REMARK    7  A    between atoms: C_17  and  N_18
REMARK                            x       y       z     vdW  Elec       q    Type
REMARK                         _______ _______ _______ _____ _____    ______ ____
ROOT
ATOM      1  C   UNL     1       5.910   5.039  16.002  0.00  0.00    +0.000 A 
ATOM      2  C   UNL     1       6.416   6.122  16.722  0.00  0.00    +0.000 A 
ATOM      3  N   UNL     1       6.381   5.667  18.006  0.00  0.00    +0.000 N 
ATOM      4  C   UNL     1       5.132   5.130  18.143  0.00  0.00    +0.000 A 
ATOM      5  C   UNL     1       4.347   5.047  19.290  0.00  0.00    +0.000 A 
ATOM      6  C   UNL     1       3.186   4.303  19.224  0.00  0.00    +0.000 A 
ATOM      7  C   UNL     1       2.862   3.672  18.014  0.00  0.00    +0.000 A 
ATOM      8  C   UNL     1       3.702   3.736  16.860  0.00  0.00    +0.000 A 
ATOM      9  C   UNL     1       4.854   4.555  16.890  0.00  0.00    +0.000 A 
ENDROOT
BRANCH   1  14
ATOM     10  C   UNL     1       6.149   3.589  12.490  0.00  0.00    +0.000 A 
ATOM     11  C   UNL     1       7.203   4.310  11.944  0.00  0.00    +0.000 A 
ATOM     12  C   UNL     1       7.917   5.208  12.756  0.00  0.00    +0.000 A 
ATOM     13  C   UNL     1       7.567   5.432  14.103  0.00  0.00    +0.000 A 
ATOM     14  C   UNL     1       6.514   4.733  14.683  0.00  0.00    +0.000 A 
ATOM     15  C   UNL     1       5.845   3.798  13.845  0.00  0.00    +0.000 A 
BRANCH  10  16
ATOM     16  C   UNL     1       5.298   2.682  11.673  0.00  0.00    +0.000 C 
ATOM     17  S   UNL     1       3.800   3.062  11.021  0.00  0.00    +0.000 S 
BRANCH  16  18
ATOM     18  N   UNL     1       5.769   1.418  11.409  0.00  0.00    +0.000 N 
ATOM     19  H   UNL     1       6.508   1.313  10.726  0.00  0.00    +0.000 HD
ATOM     20  H   UNL     1       5.355   0.578  11.788  0.00  0.00    +0.000 HD
ENDBRANCH  16  18
ENDBRANCH  10  16
ENDBRANCH   1  14
BRANCH   6  21
ATOM     21  N   UNL     1       2.278   4.389  20.292  0.00  0.00    +0.000 N 
ATOM     22  H   UNL     1       1.691   3.562  20.393  0.00  0.00    +0.000 HD
ATOM     23  H   UNL     1       1.761   5.249  20.343  0.00  0.00    +0.000 HD
ENDBRANCH   6  21
BRANCH   3  24
ATOM     24  C   UNL     1       7.535   5.080  18.687  0.00  0.00    +0.000 C 
BRANCH  24  25
ATOM     25  C   UNL     1       8.080   5.948  19.799  0.00  0.00    +0.000 C 
BRANCH  25  26
ATOM     26  O   UNL     1       8.339   5.182  20.970  0.00  0.00    +0.000 OA
ATOM     27  H   UNL     1       7.915   4.313  20.843  0.00  0.00    +0.000 HD
ENDBRANCH  25  26
ENDBRANCH  24  25
ENDBRANCH   3  24
TORSDOF 7
ENDMDL
MODEL 3
REMARK VINA RESULT:      -7.4      1.850      2.718
REMARK  Name = 
REMARK  7 active torsions:
REMARK  status: ('A' for Active; 'I' for Inactive)
REMARK    1  A    between atoms: N_1  and  C_2
REMARK    2  A    between atoms: C_2  and  C_4
REMARK    3  A    between atoms: C_8  and  C_9
REMARK    4  A    between atoms: N_11  and  C_12
REMARK    5  A    between atoms: C_12  and  C_13
REMARK    6  A    between atoms: C_13  and  O_14
REMARK    7  A    between atoms: C_17  and  N_18
REMARK                            x       y       z     vdW  Elec       q    Type
REMARK                         _______ _______ _______ _____ _____    ______ ____
ROOT
ATOM      1  C   UNL     1       5.449   4.793  16.379  0.00  0.00    +0.000 A 
ATOM      2  C   UNL     1       5.591   3.830  17.378  0.00  0.00    +0.000 A 
ATOM      3  N   UNL     1       4.336   3.758  17.901  0.00  0.00    +0.000 N 
ATOM      4  C   UNL     1       3.971   5.061  18.094  0.00  0.00    +0.000 A 
ATOM      5  C   UNL     1       3.120   5.586  19.062  0.00  0.00    +0.000 A 
ATOM      6  C   UNL     1       2.763   6.915  18.953  0.00  0.00    +0.000 A 
ATOM      7  C   UNL     1       3.272   7.660  17.878  0.00  0.00    +0.000 A 
ATOM      8  C   UNL     1       4.111   7.090  16.872  0.00  0.00    +0.000 A 
ATOM      9  C   UNL     1       4.546   5.753  17.013  0.00  0.00    +0.000 A 
ENDROOT
BRANCH   1  14
ATOM     10  C   UNL     1       6.051   3.631  12.804  0.00  0.00    +0.000 A 
ATOM     11  C   UNL     1       7.146   4.398  12.425  0.00  0.00    +0.000 A 
ATOM     12  C   UNL     1       7.766   5.230  13.373  0.00  0.00    +0.000 A 
ATOM     13  C   UNL     1       7.281   5.343  14.692  0.00  0.00    +0.000 A 
ATOM     14  C   UNL     1       6.184   4.596  15.107  0.00  0.00    +0.000 A 
ATOM     15  C   UNL     1       5.612   3.730  14.134  0.00  0.00    +0.000 A 
BRANCH  10  16
ATOM     16  C   UNL     1       5.295   2.790  11.836  0.00  0.00    +0.000 C 
ATOM     17  S   UNL     1       3.855   3.208  11.086  0.00  0.00    +0.000 S 
BRANCH  16  18
ATOM     18  N   UNL     1       5.815   1.560  11.507  0.00  0.00    +0.000 N 
ATOM     19  H   UNL     1       5.380   1.040  10.756  0.00  0.00    +0.000 HD
ATOM     20  H   UNL     1       6.545   1.105  12.035  0.00  0.00    +0.000 HD
ENDBRANCH  16  18
ENDBRANCH  10  16
ENDBRANCH   1  14
BRANCH   6  21
ATOM     21  N   UNL     1       2.092   7.516  20.031  0.00  0.00    +0.000 N 
ATOM     22  H   UNL     1       1.598   6.851  20.623  0.00  0.00    +0.000 HD
ATOM     23  H   UNL     1       1.538   8.320  19.792  0.00  0.00    +0.000 HD
ENDBRANCH   6  21
BRANCH   3  24
ATOM     24  C   UNL     1       3.353   2.748  17.507  0.00  0.00    +0.000 C 
BRANCH  24  25
ATOM     25  C   UNL     1       3.156   1.666  18.546  0.00  0.00    +0.000 C 
BRANCH  25  26
ATOM     26  O   UNL     1       4.098   0.613  18.377  0.00  0.00    +0.000 OA
ATOM     27  H   UNL     1       4.097   0.093  19.201  0.00  0.00    +0.000 HD
ENDBRANCH  25  26
ENDBRANCH  24  25
ENDBRANCH   3  24
TORSDOF 7
ENDMDL
MODEL 4
REMARK VINA RESULT:      -7.4      4.290      7.237
REMARK  Name = 
REMARK  7 active torsions:
REMARK  status: ('A' for Active; 'I' for Inactive)
REMARK    1  A    between atoms: N_1  and  C_2
REMARK    2  A    between atoms: C_2  and  C_4
REMARK    3  A    between atoms: C_8  and  C_9
REMARK    4  A    between atoms: N_11  and  C_12
REMARK    5  A    between atoms: C_12  and  C_13
REMARK    6  A    between atoms: C_13  and  O_14
REMARK    7  A    between atoms: C_17  and  N_18
REMARK                            x       y       z     vdW  Elec       q    Type
REMARK                         _______ _______ _______ _____ _____    ______ ____
ROOT
ATOM      1  C   UNL     1       2.766   6.198  18.496  0.00  0.00    +0.000 A 
ATOM      2  C   UNL     1       2.190   4.930  18.556  0.00  0.00    +0.000 A 
ATOM      3  N   UNL     1       3.270   4.108  18.442  0.00  0.00    +0.000 N 
ATOM      4  C   UNL     1       3.975   4.615  17.387  0.00  0.00    +0.000 A 
ATOM      5  C   UNL     1       4.785   3.936  16.482  0.00  0.00    +0.000 A 
ATOM      6  C   UNL     1       5.538   4.688  15.601  0.00  0.00    +0.000 A 
ATOM      7  C   UNL     1       5.447   6.087  15.666  0.00  0.00    +0.000 A 
ATOM      8  C   UNL     1       4.640   6.764  16.631  0.00  0.00    +0.000 A 
ATOM      9  C   UNL     1       3.807   6.008  17.487  0.00  0.00    +0.000 A 
ENDROOT
BRANCH   1  14
ATOM     10  C   UNL     1       1.153   9.528  19.396  0.00  0.00    +0.000 A 
ATOM     11  C   UNL     1       0.722   9.304  20.698  0.00  0.00    +0.000 A 
ATOM     12  C   UNL     1       1.047   8.094  21.333  0.00  0.00    +0.000 A 
ATOM     13  C   UNL     1       1.766   7.077  20.671  0.00  0.00    +0.000 A 
ATOM     14  C   UNL     1       2.209   7.262  19.367  0.00  0.00    +0.000 A 
ATOM     15  C   UNL     1       1.902   8.517  18.772  0.00  0.00    +0.000 A 
BRANCH  10  16
ATOM     16  C   UNL     1       0.778  10.749  18.632  0.00  0.00    +0.000 C 
ATOM     17  S   UNL     1       1.549  12.236  18.715  0.00  0.00    +0.000 S 
BRANCH  16  18
ATOM     18  N   UNL     1      -0.288  10.667  17.768  0.00  0.00    +0.000 N 
ATOM     19  H   UNL     1      -0.938   9.899  17.879  0.00  0.00    +0.000 HD
ATOM     20  H   UNL     1      -0.405  11.273  16.969  0.00  0.00    +0.000 HD
ENDBRANCH  16  18
ENDBRANCH  10  16
ENDBRANCH   1  14
BRANCH   6  21
ATOM     21  N   UNL     1       6.185   4.027  14.544  0.00  0.00    +0.000 N 
ATOM     22  H   UNL     1       5.543   3.624  13.864  0.00  0.00    +0.000 HD
ATOM     23  H   UNL     1       6.916   3.396  14.821  0.00  0.00    +0.000 HD
ENDBRANCH   6  21
BRANCH   3  24
ATOM     24  C   UNL     1       3.952   3.506  19.588  0.00  0.00    +0.000 C 
BRANCH  24  25
ATOM     25  C   UNL     1       4.061   2.000  19.498  0.00  0.00    +0.000 C 
BRANCH  25  26
ATOM     26  O   UNL     1       5.224   1.528  20.168  0.00  0.00    +0.000 OA
ATOM     27  H   UNL     1       4.962   1.313  21.082  0.00  0.00    +0.000 HD
ENDBRANCH  25  26
ENDBRANCH  24  25
ENDBRANCH   3  24
TORSDOF 7
ENDMDL
MODEL 5
REMARK VINA RESULT:      -7.3      4.552      7.566
REMARK  Name = 
REMARK  7 active torsions:
REMARK  status: ('A' for Active; 'I' for Inactive)
REMARK    1  A    between atoms: N_1  and  C_2
REMARK    2  A    between atoms: C_2  and  C_4
REMARK    3  A    between atoms: C_8  and  C_9
REMARK    4  A    between atoms: N_11  and  C_12
REMARK    5  A    between atoms: C_12  and  C_13
REMARK    6  A    between atoms: C_13  and  O_14
REMARK    7  A    between atoms: C_17  and  N_18
REMARK                            x       y       z     vdW  Elec       q    Type
REMARK                         _______ _______ _______ _____ _____    ______ ____
ROOT
ATOM      1  C   UNL     1       2.974   6.690  18.138  0.00  0.00    +0.000 A 
ATOM      2  C   UNL     1       2.456   5.398  18.051  0.00  0.00    +0.000 A 
ATOM      3  N   UNL     1       3.472   4.637  18.547  0.00  0.00    +0.000 N 
ATOM      4  C   UNL     1       4.587   5.096  17.903  0.00  0.00    +0.000 A 
ATOM      5  C   UNL     1       5.740   4.394  17.564  0.00  0.00    +0.000 A 
ATOM      6  C   UNL     1       6.810   5.113  17.071  0.00  0.00    +0.000 A 
ATOM      7  C   UNL     1       6.680   6.504  16.939  0.00  0.00    +0.000 A 
ATOM      8  C   UNL     1       5.502   7.210  17.332  0.00  0.00    +0.000 A 
ATOM      9  C   UNL     1       4.373   6.479  17.767  0.00  0.00    +0.000 A 
ENDROOT
BRANCH   1  14
ATOM     10  C   UNL     1       1.119   9.076  20.454  0.00  0.00    +0.000 A 
ATOM     11  C   UNL     1       0.701  10.071  19.580  0.00  0.00    +0.000 A 
ATOM     12  C   UNL     1       0.932   9.919  18.202  0.00  0.00    +0.000 A 
ATOM     13  C   UNL     1       1.617   8.801  17.682  0.00  0.00    +0.000 A 
ATOM     14  C   UNL     1       2.056   7.787  18.527  0.00  0.00    +0.000 A 
ATOM     15  C   UNL     1       1.763   7.953  19.910  0.00  0.00    +0.000 A 
BRANCH  10  16
ATOM     16  C   UNL     1       0.983   9.206  21.931  0.00  0.00    +0.000 C 
ATOM     17  S   UNL     1      -0.399   9.682  22.752  0.00  0.00    +0.000 S 
BRANCH  16  18
ATOM     18  N   UNL     1       2.075   8.902  22.709  0.00  0.00    +0.000 N 
ATOM     19  H   UNL     1       2.524   8.005  22.577  0.00  0.00    +0.000 HD
ATOM     20  H   UNL     1       2.396   9.483  23.470  0.00  0.00    +0.000 HD
ENDBRANCH  16  18
ENDBRANCH  10  16
ENDBRANCH   1  14
BRANCH   6  21
ATOM     21  N   UNL     1       7.892   4.406  16.520  0.00  0.00    +0.000 N 
ATOM     22  H   UNL     1       7.689   3.422  16.351  0.00  0.00    +0.000 HD
ATOM     23  H   UNL     1       8.774   4.555  16.976  0.00  0.00    +0.000 HD
ENDBRANCH   6  21
BRANCH   3  24
ATOM     24  C   UNL     1       3.534   4.179  19.935  0.00  0.00    +0.000 C 
BRANCH  24  25
ATOM     25  C   UNL     1       3.604   2.673  20.066  0.00  0.00    +0.000 C 
BRANCH  25  26
ATOM     26  O   UNL     1       4.947   2.211  19.980  0.00  0.00    +0.000 OA
ATOM     27  H   UNL     1       5.491   2.964  19.684  0.00  0.00    +0.000 HD
ENDBRANCH  25  26
ENDBRANCH  24  25
ENDBRANCH   3  24
TORSDOF 7
ENDMDL
MODEL 6
REMARK VINA RESULT:      -7.1      1.361      1.418
REMARK  Name = 
REMARK  7 active torsions:
REMARK  status: ('A' for Active; 'I' for Inactive)
REMARK    1  A    between atoms: N_1  and  C_2
REMARK    2  A    between atoms: C_2  and  C_4
REMARK    3  A    between atoms: C_8  and  C_9
REMARK    4  A    between atoms: N_11  and  C_12
REMARK    5  A    between atoms: C_12  and  C_13
REMARK    6  A    between atoms: C_13  and  O_14
REMARK    7  A    between atoms: C_17  and  N_18
REMARK                            x       y       z     vdW  Elec       q    Type
REMARK                         _______ _______ _______ _____ _____    ______ ____
ROOT
ATOM      1  C   UNL     1       5.424   5.089  15.842  0.00  0.00    +0.000 A 
ATOM      2  C   UNL     1       5.542   6.393  16.322  0.00  0.00    +0.000 A 
ATOM      3  N   UNL     1       5.521   6.216  17.672  0.00  0.00    +0.000 N 
ATOM      4  C   UNL     1       4.464   5.377  17.890  0.00  0.00    +0.000 A 
ATOM      5  C   UNL     1       3.635   5.303  19.005  0.00  0.00    +0.000 A 
ATOM      6  C   UNL     1       2.739   4.255  19.073  0.00  0.00    +0.000 A 
ATOM      7  C   UNL     1       2.713   3.326  18.021  0.00  0.00    +0.000 A 
ATOM      8  C   UNL     1       3.601   3.398  16.905  0.00  0.00    +0.000 A 
ATOM      9  C   UNL     1       4.470   4.507  16.786  0.00  0.00    +0.000 A 
ENDROOT
BRANCH   1  14
ATOM     10  C   UNL     1       6.142   3.452  12.481  0.00  0.00    +0.000 A 
ATOM     11  C   UNL     1       7.266   4.144  12.049  0.00  0.00    +0.000 A 
ATOM     12  C   UNL     1       7.866   5.086  12.903  0.00  0.00    +0.000 A 
ATOM     13  C   UNL     1       7.332   5.381  14.175  0.00  0.00    +0.000 A 
ATOM     14  C   UNL     1       6.204   4.713  14.639  0.00  0.00    +0.000 A 
ATOM     15  C   UNL     1       5.653   3.733  13.766  0.00  0.00    +0.000 A 
BRANCH  10  16
ATOM     16  C   UNL     1       5.408   2.501  11.602  0.00  0.00    +0.000 C 
ATOM     17  S   UNL     1       5.974   1.015  11.071  0.00  0.00    +0.000 S 
BRANCH  16  18
ATOM     18  N   UNL     1       4.145   2.852  11.186  0.00  0.00    +0.000 N 
ATOM     19  H   UNL     1       3.806   3.779  11.410  0.00  0.00    +0.000 HD
ATOM     20  H   UNL     1       3.501   2.205  10.753  0.00  0.00    +0.000 HD
ENDBRANCH  16  18
ENDBRANCH  10  16
ENDBRANCH   1  14
BRANCH   6  21
ATOM     21  N   UNL     1       1.752   4.285  20.072  0.00  0.00    +0.000 N 
ATOM     22  H   UNL     1       0.810   4.133  19.715  0.00  0.00    +0.000 HD
ATOM     23  H   UNL     1       1.814   5.059  20.709  0.00  0.00    +0.000 HD
ENDBRANCH   6  21
BRANCH   3  24
ATOM     24  C   UNL     1       6.728   6.142  18.496  0.00  0.00    +0.000 C 
BRANCH  24  25
ATOM     25  C   UNL     1       7.843   7.041  18.009  0.00  0.00    +0.000 C 
BRANCH  25  26
ATOM     26  O   UNL     1       8.642   7.502  19.092  0.00  0.00    +0.000 OA
ATOM     27  H   UNL     1       8.940   6.715  19.584  0.00  0.00    +0.000 HD
ENDBRANCH  25  26
ENDBRANCH  24  25
ENDBRANCH   3  24
TORSDOF 7
ENDMDL
MODEL 7
REMARK VINA RESULT:      -7.0      4.346      7.422
REMARK  Name = 
REMARK  7 active torsions:
REMARK  status: ('A' for Active; 'I' for Inactive)
REMARK    1  A    between atoms: N_1  and  C_2
REMARK    2  A    between atoms: C_2  and  C_4
REMARK    3  A    between atoms: C_8  and  C_9
REMARK    4  A    between atoms: N_11  and  C_12
REMARK    5  A    between atoms: C_12  and  C_13
REMARK    6  A    between atoms: C_13  and  O_14
REMARK    7  A    between atoms: C_17  and  N_18
REMARK                            x       y       z     vdW  Elec       q    Type
REMARK                         _______ _______ _______ _____ _____    ______ ____
ROOT
ATOM      1  C   UNL     1       2.968   6.491  18.371  0.00  0.00    +0.000 A 
ATOM      2  C   UNL     1       2.253   5.377  17.931  0.00  0.00    +0.000 A 
ATOM      3  N   UNL     1       3.196   4.393  17.949  0.00  0.00    +0.000 N 
ATOM      4  C   UNL     1       4.277   4.946  17.324  0.00  0.00    +0.000 A 
ATOM      5  C   UNL     1       5.259   4.310  16.569  0.00  0.00    +0.000 A 
ATOM      6  C   UNL     1       6.355   5.053  16.180  0.00  0.00    +0.000 A 
ATOM      7  C   UNL     1       6.423   6.401  16.564  0.00  0.00    +0.000 A 
ATOM      8  C   UNL     1       5.424   7.024  17.374  0.00  0.00    +0.000 A 
ATOM      9  C   UNL     1       4.260   6.297  17.715  0.00  0.00    +0.000 A 
ENDROOT
BRANCH   1  14
ATOM     10  C   UNL     1       0.912   9.541  19.353  0.00  0.00    +0.000 A 
ATOM     11  C   UNL     1       0.545   9.242  20.658  0.00  0.00    +0.000 A 
ATOM     12  C   UNL     1       1.055   8.084  21.270  0.00  0.00    +0.000 A 
ATOM     13  C   UNL     1       1.898   7.189  20.578  0.00  0.00    +0.000 A 
ATOM     14  C   UNL     1       2.283   7.452  19.268  0.00  0.00    +0.000 A 
ATOM     15  C   UNL     1       1.785   8.657  18.698  0.00  0.00    +0.000 A 
BRANCH  10  16
ATOM     16  C   UNL     1       0.349  10.705  18.614  0.00  0.00    +0.000 C 
ATOM     17  S   UNL     1      -1.267  10.936  18.230  0.00  0.00    +0.000 S 
BRANCH  16  18
ATOM     18  N   UNL     1       1.215  11.694  18.213  0.00  0.00    +0.000 N 
ATOM     19  H   UNL     1       1.859  12.074  18.894  0.00  0.00    +0.000 HD
ATOM     20  H   UNL     1       1.179  12.130  17.302  0.00  0.00    +0.000 HD
ENDBRANCH  16  18
ENDBRANCH  10  16
ENDBRANCH   1  14
BRANCH   6  21
ATOM     21  N   UNL     1       7.239   4.496  15.241  0.00  0.00    +0.000 N 
ATOM     22  H   UNL     1       7.668   3.627  15.554  0.00  0.00    +0.000 HD
ATOM     23  H   UNL     1       7.898   5.141  14.841  0.00  0.00    +0.000 HD
ENDBRANCH   6  21
BRANCH   3  24
ATOM     24  C   UNL     1       3.362   3.454  19.059  0.00  0.00    +0.000 C 
BRANCH  24  25
ATOM     25  C   UNL     1       2.423   2.270  18.987  0.00  0.00    +0.000 C 
BRANCH  25  26
ATOM     26  O   UNL     1       2.417   1.696  17.685  0.00  0.00    +0.000 OA
ATOM     27  H   UNL     1       2.353   2.431  17.048  0.00  0.00    +0.000 HD
ENDBRANCH  25  26
ENDBRANCH  24  25
ENDBRANCH   3  24
TORSDOF 7
ENDMDL
MODEL 8
REMARK VINA RESULT:      -7.0      4.344      6.905
REMARK  Name = 
REMARK  7 active torsions:
REMARK  status: ('A' for Active; 'I' for Inactive)
REMARK    1  A    between atoms: N_1  and  C_2
REMARK    2  A    between atoms: C_2  and  C_4
REMARK    3  A    between atoms: C_8  and  C_9
REMARK    4  A    between atoms: N_11  and  C_12
REMARK    5  A    between atoms: C_12  and  C_13
REMARK    6  A    between atoms: C_13  and  O_14
REMARK    7  A    between atoms: C_17  and  N_18
REMARK                            x       y       z     vdW  Elec       q    Type
REMARK                         _______ _______ _______ _____ _____    ______ ____
ROOT
ATOM      1  C   UNL     1       3.127   6.202  18.466  0.00  0.00    +0.000 A 
ATOM      2  C   UNL     1       4.511   6.346  18.370  0.00  0.00    +0.000 A 
ATOM      3  N   UNL     1       4.847   5.383  17.468  0.00  0.00    +0.000 N 
ATOM      4  C   UNL     1       4.188   4.266  17.900  0.00  0.00    +0.000 A 
ATOM      5  C   UNL     1       4.563   2.933  17.760  0.00  0.00    +0.000 A 
ATOM      6  C   UNL     1       3.649   1.965  18.125  0.00  0.00    +0.000 A 
ATOM      7  C   UNL     1       2.398   2.374  18.613  0.00  0.00    +0.000 A 
ATOM      8  C   UNL     1       2.019   3.748  18.711  0.00  0.00    +0.000 A 
ATOM      9  C   UNL     1       2.971   4.749  18.412  0.00  0.00    +0.000 A 
ENDROOT
BRANCH   1  14
ATOM     10  C   UNL     1       1.259   9.023  20.213  0.00  0.00    +0.000 A 
ATOM     11  C   UNL     1       1.098   9.949  19.190  0.00  0.00    +0.000 A 
ATOM     12  C   UNL     1       1.508   9.614  17.887  0.00  0.00    +0.000 A 
ATOM     13  C   UNL     1       2.120   8.378  17.596  0.00  0.00    +0.000 A 
ATOM     14  C   UNL     1       2.303   7.428  18.595  0.00  0.00    +0.000 A 
ATOM     15  C   UNL     1       1.833   7.783  19.890  0.00  0.00    +0.000 A 
BRANCH  10  16
ATOM     16  C   UNL     1       0.924   9.337  21.629  0.00  0.00    +0.000 C 
ATOM     17  S   UNL     1      -0.417  10.194  22.155  0.00  0.00    +0.000 S 
BRANCH  16  18
ATOM     18  N   UNL     1       1.775   8.881  22.609  0.00  0.00    +0.000 N 
ATOM     19  H   UNL     1       1.383   8.349  23.375  0.00  0.00    +0.000 HD
ATOM     20  H   UNL     1       2.753   9.129  22.656  0.00  0.00    +0.000 HD
ENDBRANCH  16  18
ENDBRANCH  10  16
ENDBRANCH   1  14
BRANCH   6  21
ATOM     21  N   UNL     1       4.083   0.631  18.201  0.00  0.00    +0.000 N 
ATOM     22  H   UNL     1       5.088   0.539  18.337  0.00  0.00    +0.000 HD
ATOM     23  H   UNL     1       3.724   0.025  17.484  0.00  0.00    +0.000 HD
ENDBRANCH   6  21
BRANCH   3  24
ATOM     24  C   UNL     1       5.038   5.643  16.041  0.00  0.00    +0.000 C 
BRANCH  24  25
ATOM     25  C   UNL     1       6.433   5.317  15.553  0.00  0.00    +0.000 C 
BRANCH  25  26
ATOM     26  O   UNL     1       7.418   5.995  16.324  0.00  0.00    +0.000 OA
ATOM     27  H   UNL     1       7.307   6.949  16.157  0.00  0.00    +0.000 HD
ENDBRANCH  25  26
ENDBRANCH  24  25
ENDBRANCH   3  24
TORSDOF 7
ENDMDL
MODEL 9
REMARK VINA RESULT:      -6.7      6.556      8.202
REMARK  Name = 
REMARK  7 active torsions:
REMARK  status: ('A' for Active; 'I' for Inactive)
REMARK    1  A    between atoms: N_1  and  C_2
REMARK    2  A    between atoms: C_2  and  C_4
REMARK    3  A    between atoms: C_8  and  C_9
REMARK    4  A    between atoms: N_11  and  C_12
REMARK    5  A    between atoms: C_12  and  C_13
REMARK    6  A    between atoms: C_13  and  O_14
REMARK    7  A    between atoms: C_17  and  N_18
REMARK                            x       y       z     vdW  Elec       q    Type
REMARK                         _______ _______ _______ _____ _____    ______ ____
ROOT
ATOM      1  C   UNL     1       1.022   9.157  19.534  0.00  0.00    +0.000 A 
ATOM      2  C   UNL     1       0.252   9.858  18.605  0.00  0.00    +0.000 A 
ATOM      3  N   UNL     1       0.088  11.067  19.210  0.00  0.00    +0.000 N 
ATOM      4  C   UNL     1      -0.285  10.762  20.488  0.00  0.00    +0.000 A 
ATOM      5  C   UNL     1      -1.099  11.492  21.349  0.00  0.00    +0.000 A 
ATOM      6  C   UNL     1      -1.195  11.069  22.660  0.00  0.00    +0.000 A 
ATOM      7  C   UNL     1      -0.469   9.934  23.053  0.00  0.00    +0.000 A 
ATOM      8  C   UNL     1       0.394   9.223  22.163  0.00  0.00    +0.000 A 
ATOM      9  C   UNL     1       0.442   9.600  20.801  0.00  0.00    +0.000 A 
ENDROOT
BRANCH   1  14
ATOM     10  C   UNL     1       3.066   5.962  19.200  0.00  0.00    +0.000 A 
ATOM     11  C   UNL     1       3.721   6.155  17.991  0.00  0.00    +0.000 A 
ATOM     12  C   UNL     1       3.582   7.382  17.320  0.00  0.00    +0.000 A 
ATOM     13  C   UNL     1       2.758   8.413  17.820  0.00  0.00    +0.000 A 
ATOM     14  C   UNL     1       2.082   8.253  19.024  0.00  0.00    +0.000 A 
ATOM     15  C   UNL     1       2.284   7.016  19.698  0.00  0.00    +0.000 A 
BRANCH  10  16
ATOM     16  C   UNL     1       3.101   4.662  19.925  0.00  0.00    +0.000 C 
ATOM     17  S   UNL     1       2.032   4.174  21.122  0.00  0.00    +0.000 S 
BRANCH  16  18
ATOM     18  N   UNL     1       4.085   3.763  19.589  0.00  0.00    +0.000 N 
ATOM     19  H   UNL     1       4.000   3.263  18.714  0.00  0.00    +0.000 HD
ATOM     20  H   UNL     1       4.837   3.502  20.211  0.00  0.00    +0.000 HD
ENDBRANCH  16  18
ENDBRANCH  10  16
ENDBRANCH   1  14
BRANCH   6  21
ATOM     21  N   UNL     1      -2.174  11.654  23.480  0.00  0.00    +0.000 N 
ATOM     22  H   UNL     1      -3.067  11.164  23.458  0.00  0.00    +0.000 HD
ATOM     23  H   UNL     1      -2.266  12.650  23.389  0.00  0.00    +0.000 HD
ENDBRANCH   6  21
BRANCH   3  24
ATOM     24  C   UNL     1       0.925  12.233  18.924  0.00  0.00    +0.000 C 
BRANCH  24  25
ATOM     25  C   UNL     1       0.143  13.419  18.402  0.00  0.00    +0.000 C 
BRANCH  25  26
ATOM     26  O   UNL     1      -0.937  12.999  17.576  0.00  0.00    +0.000 OA
ATOM     27  H   UNL     1      -1.471  13.790  17.377  0.00  0.00    +0.000 HD
ENDBRANCH  25  26
ENDBRANCH  24  25
ENDBRANCH   3  24
TORSDOF 7
ENDMDL
