MODEL 1
REMARK VINA RESULT:      -6.0      0.000      0.000
REMARK  Name = 
REMARK  6 active torsions:
REMARK  status: ('A' for Active; 'I' for Inactive)
REMARK    1  A    between atoms: C_2  and  C_3
REMARK    2  A    between atoms: C_3  and  N_4
REMARK    3  A    between atoms: C_10  and  O_11
REMARK    4  A    between atoms: C_12  and  O_13
REMARK    5  A    between atoms: C_16  and  C_17
REMARK    6  A    between atoms: C_20  and  O_21
REMARK                            x       y       z     vdW  Elec       q    Type
REMARK                         _______ _______ _______ _____ _____    ______ ____
ROOT
ATOM      1  N   UNL     1       7.233   6.251  17.872  0.00  0.00    +0.000 NA
ATOM      2  C   UNL     1       7.128   5.128  18.824  0.00  0.00    +0.000 C 
ATOM      3  C   UNL     1       6.390   3.891  18.290  0.00  0.00    +0.000 C 
ATOM      4  C   UNL     1       4.887   4.019  18.422  0.00  0.00    +0.000 A 
ATOM      5  C   UNL     1       4.213   4.990  17.632  0.00  0.00    +0.000 A 
ATOM      6  C   UNL     1       2.827   5.196  17.815  0.00  0.00    +0.000 A 
ATOM      7  C   UNL     1       2.131   4.459  18.762  0.00  0.00    +0.000 A 
ATOM      8  C   UNL     1       2.777   3.490  19.521  0.00  0.00    +0.000 A 
ATOM      9  C   UNL     1       4.145   3.254  19.357  0.00  0.00    +0.000 A 
ATOM     10 BR   UNL     1       4.955   1.921  20.457  0.00  0.00    +0.000 Br
ATOM     11  C   UNL     1       4.966   5.926  16.669  0.00  0.00    +0.000 C 
ATOM     12  C   UNL     1       5.918   6.832  17.519  0.00  0.00    +0.000 C 
ENDROOT
BRANCH  11  13
ATOM     13  C   UNL     1       5.601   5.288  15.422  0.00  0.00    +0.000 A 
ATOM     14  C   UNL     1       6.900   5.616  14.997  0.00  0.00    +0.000 A 
ATOM     15  C   UNL     1       7.439   5.064  13.826  0.00  0.00    +0.000 A 
ATOM     16  C   UNL     1       6.691   4.160  13.078  0.00  0.00    +0.000 A 
ATOM     17  C   UNL     1       5.436   3.767  13.507  0.00  0.00    +0.000 A 
ATOM     18  C   UNL     1       4.906   4.314  14.677  0.00  0.00    +0.000 A 
BRANCH  16  19
ATOM     19  O   UNL     1       7.154   3.633  11.911  0.00  0.00    +0.000 OA
ATOM     20  H   UNL     1       7.763   2.908  12.123  0.00  0.00    +0.000 HD
ENDBRANCH  16  19
ENDBRANCH  11  13
BRANCH   7  21
ATOM     21  O   UNL     1       0.802   4.672  19.010  0.00  0.00    +0.000 OA
ATOM     22  H   UNL     1       0.281   4.204  18.334  0.00  0.00    +0.000 HD
ENDBRANCH   7  21
BRANCH   8  23
ATOM     23  O   UNL     1       2.036   2.802  20.449  0.00  0.00    +0.000 OA
ATOM     24  H   UNL     1       2.527   1.972  20.603  0.00  0.00    +0.000 HD
ENDBRANCH   8  23
BRANCH   1  25
ATOM     25  C   UNL     1       8.124   7.304  18.384  0.00  0.00    +0.000 C 
BRANCH  25  27
ATOM     26  C   UNL     1       8.471   9.773  18.054  0.00  0.00    +0.000 C 
ATOM     27  C   UNL     1       7.890   8.619  17.697  0.00  0.00    +0.000 C 
ENDBRANCH  25  27
ENDBRANCH   1  25
TORSDOF 6
ENDMDL
MODEL 2
REMARK VINA RESULT:      -5.7      9.199     11.129
REMARK  Name = 
REMARK  6 active torsions:
REMARK  status: ('A' for Active; 'I' for Inactive)
REMARK    1  A    between atoms: C_2  and  C_3
REMARK    2  A    between atoms: C_3  and  N_4
REMARK    3  A    between atoms: C_10  and  O_11
REMARK    4  A    between atoms: C_12  and  O_13
REMARK    5  A    between atoms: C_16  and  C_17
REMARK    6  A    between atoms: C_20  and  O_21
REMARK                            x       y       z     vdW  Elec       q    Type
REMARK                         _______ _______ _______ _____ _____    ______ ____
ROOT
ATOM      1  N   UNL     1       0.202  10.723  19.168  0.00  0.00    +0.000 NA
ATOM      2  C   UNL     1      -0.964  10.536  18.283  0.00  0.00    +0.000 C 
ATOM      3  C   UNL     1      -1.771  11.810  17.992  0.00  0.00    +0.000 C 
ATOM      4  C   UNL     1      -2.772  12.117  19.086  0.00  0.00    +0.000 A 
ATOM      5  C   UNL     1      -2.287  12.494  20.368  0.00  0.00    +0.000 A 
ATOM      6  C   UNL     1      -3.200  12.684  21.430  0.00  0.00    +0.000 A 
ATOM      7  C   UNL     1      -4.560  12.497  21.223  0.00  0.00    +0.000 A 
ATOM      8  C   UNL     1      -5.044  12.154  19.966  0.00  0.00    +0.000 A 
ATOM      9  C   UNL     1      -4.168  11.969  18.893  0.00  0.00    +0.000 A 
ATOM     10 BR   UNL     1      -4.919  11.474  17.208  0.00  0.00    +0.000 Br
ATOM     11  C   UNL     1      -0.782  12.577  20.681  0.00  0.00    +0.000 C 
ATOM     12  C   UNL     1      -0.177  11.141  20.537  0.00  0.00    +0.000 C 
ENDROOT
BRANCH  11  13
ATOM     13  C   UNL     1       0.016  13.701  19.999  0.00  0.00    +0.000 A 
ATOM     14  C   UNL     1      -0.597  14.882  19.547  0.00  0.00    +0.000 A 
ATOM     15  C   UNL     1       0.140  15.870  18.880  0.00  0.00    +0.000 A 
ATOM     16  C   UNL     1       1.505  15.696  18.675  0.00  0.00    +0.000 A 
ATOM     17  C   UNL     1       2.149  14.575  19.167  0.00  0.00    +0.000 A 
ATOM     18  C   UNL     1       1.413  13.598  19.837  0.00  0.00    +0.000 A 
BRANCH  16  19
ATOM     19  O   UNL     1       2.253  16.607  17.992  0.00  0.00    +0.000 OA
ATOM     20  H   UNL     1       1.832  16.766  17.132  0.00  0.00    +0.000 HD
ENDBRANCH  16  19
ENDBRANCH  11  13
BRANCH   7  21
ATOM     21  O   UNL     1      -5.468  12.613  22.240  0.00  0.00    +0.000 OA
ATOM     22  H   UNL     1      -5.034  12.364  23.074  0.00  0.00    +0.000 HD
ENDBRANCH   7  21
BRANCH   8  23
ATOM     23  O   UNL     1      -6.398  11.973  19.828  0.00  0.00    +0.000 OA
ATOM     24  H   UNL     1      -6.638  11.313  20.508  0.00  0.00    +0.000 HD
ENDBRANCH   8  23
BRANCH   1  25
ATOM     25  C   UNL     1       1.029   9.508  19.227  0.00  0.00    +0.000 C 
BRANCH  25  27
ATOM     26  C   UNL     1       2.605   8.252  17.724  0.00  0.00    +0.000 C 
ATOM     27  C   UNL     1       1.702   9.223  17.915  0.00  0.00    +0.000 C 
ENDBRANCH  25  27
ENDBRANCH   1  25
TORSDOF 6
ENDMDL
MODEL 3
REMARK VINA RESULT:      -5.7     10.295     12.012
REMARK  Name = 
REMARK  6 active torsions:
REMARK  status: ('A' for Active; 'I' for Inactive)
REMARK    1  A    between atoms: C_2  and  C_3
REMARK    2  A    between atoms: C_3  and  N_4
REMARK    3  A    between atoms: C_10  and  O_11
REMARK    4  A    between atoms: C_12  and  O_13
REMARK    5  A    between atoms: C_16  and  C_17
REMARK    6  A    between atoms: C_20  and  O_21
REMARK                            x       y       z     vdW  Elec       q    Type
REMARK                         _______ _______ _______ _____ _____    ______ ____
ROOT
ATOM      1  N   UNL     1      -0.381  13.899  19.919  0.00  0.00    +0.000 NA
ATOM      2  C   UNL     1      -0.142  14.807  21.057  0.00  0.00    +0.000 C 
ATOM      3  C   UNL     1      -0.128  14.130  22.436  0.00  0.00    +0.000 C 
ATOM      4  C   UNL     1      -1.521  13.947  22.999  0.00  0.00    +0.000 A 
ATOM      5  C   UNL     1      -2.403  13.035  22.356  0.00  0.00    +0.000 A 
ATOM      6  C   UNL     1      -3.739  12.926  22.801  0.00  0.00    +0.000 A 
ATOM      7  C   UNL     1      -4.189  13.708  23.856  0.00  0.00    +0.000 A 
ATOM      8  C   UNL     1      -3.327  14.582  24.508  0.00  0.00    +0.000 A 
ATOM      9  C   UNL     1      -1.997  14.706  24.098  0.00  0.00    +0.000 A 
ATOM     10 BR   UNL     1      -0.890  15.949  25.034  0.00  0.00    +0.000 Br
ATOM     11  C   UNL     1      -1.991  12.251  21.097  0.00  0.00    +0.000 C 
ATOM     12  C   UNL     1      -1.726  13.281  19.948  0.00  0.00    +0.000 C 
ENDROOT
BRANCH  11  13
ATOM     13  C   UNL     1      -0.918  11.162  21.267  0.00  0.00    +0.000 A 
ATOM     14  C   UNL     1      -0.110  10.740  20.197  0.00  0.00    +0.000 A 
ATOM     15  C   UNL     1       0.825   9.707  20.361  0.00  0.00    +0.000 A 
ATOM     16  C   UNL     1       0.975   9.099  21.603  0.00  0.00    +0.000 A 
ATOM     17  C   UNL     1       0.240   9.538  22.690  0.00  0.00    +0.000 A 
ATOM     18  C   UNL     1      -0.683  10.571  22.525  0.00  0.00    +0.000 A 
BRANCH  16  19
ATOM     19  O   UNL     1       1.836   8.062  21.799  0.00  0.00    +0.000 OA
ATOM     20  H   UNL     1       2.722   8.426  21.953  0.00  0.00    +0.000 HD
ENDBRANCH  16  19
ENDBRANCH  11  13
BRANCH   7  21
ATOM     21  O   UNL     1      -5.491  13.674  24.277  0.00  0.00    +0.000 OA
ATOM     22  H   UNL     1      -5.928  12.906  23.872  0.00  0.00    +0.000 HD
ENDBRANCH   7  21
BRANCH   8  23
ATOM     23  O   UNL     1      -3.835  15.335  25.537  0.00  0.00    +0.000 OA
ATOM     24  H   UNL     1      -3.996  14.700  26.262  0.00  0.00    +0.000 HD
ENDBRANCH   8  23
BRANCH   1  25
ATOM     25  C   UNL     1      -0.175  14.586  18.634  0.00  0.00    +0.000 C 
BRANCH  25  27
ATOM     26  C   UNL     1      -0.564  17.014  18.109  0.00  0.00    +0.000 C 
ATOM     27  C   UNL     1       0.055  16.059  18.817  0.00  0.00    +0.000 C 
ENDBRANCH  25  27
ENDBRANCH   1  25
TORSDOF 6
ENDMDL
MODEL 4
REMARK VINA RESULT:      -5.7      2.992      6.598
REMARK  Name = 
REMARK  6 active torsions:
REMARK  status: ('A' for Active; 'I' for Inactive)
REMARK    1  A    between atoms: C_2  and  C_3
REMARK    2  A    between atoms: C_3  and  N_4
REMARK    3  A    between atoms: C_10  and  O_11
REMARK    4  A    between atoms: C_12  and  O_13
REMARK    5  A    between atoms: C_16  and  C_17
REMARK    6  A    between atoms: C_20  and  O_21
REMARK                            x       y       z     vdW  Elec       q    Type
REMARK                         _______ _______ _______ _____ _____    ______ ____
ROOT
ATOM      1  N   UNL     1       2.920   3.481  19.385  0.00  0.00    +0.000 NA
ATOM      2  C   UNL     1       4.381   3.420  19.583  0.00  0.00    +0.000 C 
ATOM      3  C   UNL     1       5.121   4.750  19.371  0.00  0.00    +0.000 C 
ATOM      4  C   UNL     1       5.426   5.009  17.911  0.00  0.00    +0.000 A 
ATOM      5  C   UNL     1       4.345   5.256  17.021  0.00  0.00    +0.000 A 
ATOM      6  C   UNL     1       4.599   5.397  15.638  0.00  0.00    +0.000 A 
ATOM      7  C   UNL     1       5.894   5.291  15.152  0.00  0.00    +0.000 A 
ATOM      8  C   UNL     1       6.960   5.075  16.018  0.00  0.00    +0.000 A 
ATOM      9  C   UNL     1       6.743   4.941  17.392  0.00  0.00    +0.000 A 
ATOM     10 BR   UNL     1       8.262   4.623  18.505  0.00  0.00    +0.000 Br
ATOM     11  C   UNL     1       2.879   5.244  17.493  0.00  0.00    +0.000 C 
ATOM     12  C   UNL     1       2.541   3.799  17.990  0.00  0.00    +0.000 C 
ENDROOT
BRANCH  11  13
ATOM     13  C   UNL     1       2.431   6.384  18.423  0.00  0.00    +0.000 A 
ATOM     14  C   UNL     1       2.096   6.158  19.770  0.00  0.00    +0.000 A 
ATOM     15  C   UNL     1       1.638   7.202  20.586  0.00  0.00    +0.000 A 
ATOM     16  C   UNL     1       1.529   8.489  20.068  0.00  0.00    +0.000 A 
ATOM     17  C   UNL     1       1.914   8.755  18.767  0.00  0.00    +0.000 A 
ATOM     18  C   UNL     1       2.377   7.714  17.960  0.00  0.00    +0.000 A 
BRANCH  16  19
ATOM     19  O   UNL     1       1.046   9.525  20.809  0.00  0.00    +0.000 OA
ATOM     20  H   UNL     1       0.197   9.255  21.195  0.00  0.00    +0.000 HD
ENDBRANCH  16  19
ENDBRANCH  11  13
BRANCH   7  21
ATOM     21  O   UNL     1       6.173   5.362  13.814  0.00  0.00    +0.000 OA
ATOM     22  H   UNL     1       6.779   4.637  13.584  0.00  0.00    +0.000 HD
ENDBRANCH   7  21
BRANCH   8  23
ATOM     23  O   UNL     1       8.216   4.968  15.475  0.00  0.00    +0.000 OA
ATOM     24  H   UNL     1       8.605   4.173  15.888  0.00  0.00    +0.000 HD
ENDBRANCH   8  23
BRANCH   1  25
ATOM     25  C   UNL     1       2.271   2.228  19.805  0.00  0.00    +0.000 C 
BRANCH  25  27
ATOM     26  C   UNL     1       1.872   3.189  22.094  0.00  0.00    +0.000 C 
ATOM     27  C   UNL     1       1.495   2.399  21.080  0.00  0.00    +0.000 C 
ENDBRANCH  25  27
ENDBRANCH   1  25
TORSDOF 6
ENDMDL
MODEL 5
REMARK VINA RESULT:      -5.6      9.074     10.843
REMARK  Name = 
REMARK  6 active torsions:
REMARK  status: ('A' for Active; 'I' for Inactive)
REMARK    1  A    between atoms: C_2  and  C_3
REMARK    2  A    between atoms: C_3  and  N_4
REMARK    3  A    between atoms: C_10  and  O_11
REMARK    4  A    between atoms: C_12  and  O_13
REMARK    5  A    between atoms: C_16  and  C_17
REMARK    6  A    between atoms: C_20  and  O_21
REMARK                            x       y       z     vdW  Elec       q    Type
REMARK                         _______ _______ _______ _____ _____    ______ ____
ROOT
ATOM      1  N   UNL     1      -0.080  13.612  19.349  0.00  0.00    +0.000 NA
ATOM      2  C   UNL     1      -1.148  13.975  20.301  0.00  0.00    +0.000 C 
ATOM      3  C   UNL     1      -1.955  12.792  20.856  0.00  0.00    +0.000 C 
ATOM      4  C   UNL     1      -3.066  12.367  19.920  0.00  0.00    +0.000 A 
ATOM      5  C   UNL     1      -2.721  11.785  18.669  0.00  0.00    +0.000 A 
ATOM      6  C   UNL     1      -3.739  11.477  17.739  0.00  0.00    +0.000 A 
ATOM      7  C   UNL     1      -5.066  11.747  18.042  0.00  0.00    +0.000 A 
ATOM      8  C   UNL     1      -5.415  12.293  19.272  0.00  0.00    +0.000 A 
ATOM      9  C   UNL     1      -4.433  12.598  20.217  0.00  0.00    +0.000 A 
ATOM     10 BR   UNL     1      -5.000  13.368  21.871  0.00  0.00    +0.000 Br
ATOM     11  C   UNL     1      -1.257  11.595  18.233  0.00  0.00    +0.000 C 
ATOM     12  C   UNL     1      -0.603  13.011  18.101  0.00  0.00    +0.000 C 
ENDROOT
BRANCH  11  13
ATOM     13  C   UNL     1      -0.424  10.553  18.999  0.00  0.00    +0.000 A 
ATOM     14  C   UNL     1      -0.776  10.122  20.290  0.00  0.00    +0.000 A 
ATOM     15  C   UNL     1       0.027   9.211  20.992  0.00  0.00    +0.000 A 
ATOM     16  C   UNL     1       1.181   8.708  20.402  0.00  0.00    +0.000 A 
ATOM     17  C   UNL     1       1.518   9.063  19.108  0.00  0.00    +0.000 A 
ATOM     18  C   UNL     1       0.712   9.963  18.410  0.00  0.00    +0.000 A 
BRANCH  16  19
ATOM     19  O   UNL     1       2.016   7.858  21.062  0.00  0.00    +0.000 OA
ATOM     20  H   UNL     1       1.476   7.226  21.563  0.00  0.00    +0.000 HD
ENDBRANCH  16  19
ENDBRANCH  11  13
BRANCH   7  21
ATOM     21  O   UNL     1      -6.074  11.519  17.144  0.00  0.00    +0.000 OA
ATOM     22  H   UNL     1      -6.153  12.295  16.564  0.00  0.00    +0.000 HD
ENDBRANCH   7  21
BRANCH   8  23
ATOM     23  O   UNL     1      -6.743  12.546  19.507  0.00  0.00    +0.000 OA
ATOM     24  H   UNL     1      -7.192  12.366  18.658  0.00  0.00    +0.000 HD
ENDBRANCH   8  23
BRANCH   1  25
ATOM     25  C   UNL     1       0.769  14.770  19.029  0.00  0.00    +0.000 C 
BRANCH  25  27
ATOM     26  C   UNL     1       0.474  17.171  18.343  0.00  0.00    +0.000 C 
ATOM     27  C   UNL     1      -0.045  15.973  18.645  0.00  0.00    +0.000 C 
ENDBRANCH  25  27
ENDBRANCH   1  25
TORSDOF 6
ENDMDL
MODEL 6
REMARK VINA RESULT:      -5.6      9.112     10.852
REMARK  Name = 
REMARK  6 active torsions:
REMARK  status: ('A' for Active; 'I' for Inactive)
REMARK    1  A    between atoms: C_2  and  C_3
REMARK    2  A    between atoms: C_3  and  N_4
REMARK    3  A    between atoms: C_10  and  O_11
REMARK    4  A    between atoms: C_12  and  O_13
REMARK    5  A    between atoms: C_16  and  C_17
REMARK    6  A    between atoms: C_20  and  O_21
REMARK                            x       y       z     vdW  Elec       q    Type
REMARK                         _______ _______ _______ _____ _____    ______ ____
ROOT
ATOM      1  N   UNL     1      -0.127  13.716  19.306  0.00  0.00    +0.000 NA
ATOM      2  C   UNL     1      -1.185  14.044  20.281  0.00  0.00    +0.000 C 
ATOM      3  C   UNL     1      -1.935  12.834  20.858  0.00  0.00    +0.000 C 
ATOM      4  C   UNL     1      -3.051  12.364  19.949  0.00  0.00    +0.000 A 
ATOM      5  C   UNL     1      -2.713  11.790  18.692  0.00  0.00    +0.000 A 
ATOM      6  C   UNL     1      -3.740  11.441  17.787  0.00  0.00    +0.000 A 
ATOM      7  C   UNL     1      -5.069  11.663  18.119  0.00  0.00    +0.000 A 
ATOM      8  C   UNL     1      -5.410  12.200  19.355  0.00  0.00    +0.000 A 
ATOM      9  C   UNL     1      -4.418  12.546  20.277  0.00  0.00    +0.000 A 
ATOM     10 BR   UNL     1      -4.975  13.300  21.941  0.00  0.00    +0.000 Br
ATOM     11  C   UNL     1      -1.253  11.653  18.223  0.00  0.00    +0.000 C 
ATOM     12  C   UNL     1      -0.656  13.092  18.071  0.00  0.00    +0.000 C 
ENDROOT
BRANCH  11  13
ATOM     13  C   UNL     1      -0.365  10.646  18.973  0.00  0.00    +0.000 A 
ATOM     14  C   UNL     1       0.815  10.130  18.410  0.00  0.00    +0.000 A 
ATOM     15  C   UNL     1       1.581   9.172  19.089  0.00  0.00    +0.000 A 
ATOM     16  C   UNL     1       1.184   8.732  20.347  0.00  0.00    +0.000 A 
ATOM     17  C   UNL     1       0.063   9.269  20.955  0.00  0.00    +0.000 A 
ATOM     18  C   UNL     1      -0.692  10.229  20.280  0.00  0.00    +0.000 A 
BRANCH  16  19
ATOM     19  O   UNL     1       1.870   7.769  21.024  0.00  0.00    +0.000 OA
ATOM     20  H   UNL     1       2.240   7.146  20.379  0.00  0.00    +0.000 HD
ENDBRANCH  16  19
ENDBRANCH  11  13
BRANCH   7  21
ATOM     21  O   UNL     1      -6.088  11.395  17.246  0.00  0.00    +0.000 OA
ATOM     22  H   UNL     1      -5.972  10.492  16.902  0.00  0.00    +0.000 HD
ENDBRANCH   7  21
BRANCH   8  23
ATOM     23  O   UNL     1      -6.740  12.405  19.620  0.00  0.00    +0.000 OA
ATOM     24  H   UNL     1      -6.831  12.275  20.585  0.00  0.00    +0.000 HD
ENDBRANCH   8  23
BRANCH   1  25
ATOM     25  C   UNL     1       0.671  14.904  18.963  0.00  0.00    +0.000 C 
BRANCH  25  27
ATOM     26  C   UNL     1      -0.288  17.020  18.001  0.00  0.00    +0.000 C 
ATOM     27  C   UNL     1      -0.145  16.164  19.022  0.00  0.00    +0.000 C 
ENDBRANCH  25  27
ENDBRANCH   1  25
TORSDOF 6
ENDMDL
MODEL 7
REMARK VINA RESULT:      -5.6     10.150     11.923
REMARK  Name = 
REMARK  6 active torsions:
REMARK  status: ('A' for Active; 'I' for Inactive)
REMARK    1  A    between atoms: C_2  and  C_3
REMARK    2  A    between atoms: C_3  and  N_4
REMARK    3  A    between atoms: C_10  and  O_11
REMARK    4  A    between atoms: C_12  and  O_13
REMARK    5  A    between atoms: C_16  and  C_17
REMARK    6  A    between atoms: C_20  and  O_21
REMARK                            x       y       z     vdW  Elec       q    Type
REMARK                         _______ _______ _______ _____ _____    ______ ____
ROOT
ATOM      1  N   UNL     1      -0.274  13.885  20.035  0.00  0.00    +0.000 NA
ATOM      2  C   UNL     1      -0.058  14.803  21.171  0.00  0.00    +0.000 C 
ATOM      3  C   UNL     1      -0.159  14.153  22.559  0.00  0.00    +0.000 C 
ATOM      4  C   UNL     1      -1.591  14.048  23.040  0.00  0.00    +0.000 A 
ATOM      5  C   UNL     1      -2.477  13.168  22.360  0.00  0.00    +0.000 A 
ATOM      6  C   UNL     1      -3.841  13.133  22.727  0.00  0.00    +0.000 A 
ATOM      7  C   UNL     1      -4.313  13.955  23.740  0.00  0.00    +0.000 A 
ATOM      8  C   UNL     1      -3.449  14.800  24.427  0.00  0.00    +0.000 A 
ATOM      9  C   UNL     1      -2.092  14.850  24.096  0.00  0.00    +0.000 A 
ATOM     10 BR   UNL     1      -0.983  16.057  25.076  0.00  0.00    +0.000 Br
ATOM     11  C   UNL     1      -2.030  12.341  21.141  0.00  0.00    +0.000 C 
ATOM     12  C   UNL     1      -1.648  13.334  19.994  0.00  0.00    +0.000 C 
ENDROOT
BRANCH  11  13
ATOM     13  C   UNL     1      -1.024  11.205  21.393  0.00  0.00    +0.000 A 
ATOM     14  C   UNL     1      -0.858  10.625  22.663  0.00  0.00    +0.000 A 
ATOM     15  C   UNL     1       0.103   9.628  22.883  0.00  0.00    +0.000 A 
ATOM     16  C   UNL     1       0.896   9.186  21.828  0.00  0.00    +0.000 A 
ATOM     17  C   UNL     1       0.710   9.690  20.554  0.00  0.00    +0.000 A 
ATOM     18  C   UNL     1      -0.254  10.677  20.338  0.00  0.00    +0.000 A 
BRANCH  16  19
ATOM     19  O   UNL     1       1.872   8.253  22.003  0.00  0.00    +0.000 OA
ATOM     20  H   UNL     1       1.665   7.485  21.447  0.00  0.00    +0.000 HD
ENDBRANCH  16  19
ENDBRANCH  11  13
BRANCH   7  21
ATOM     21  O   UNL     1      -5.638  13.993  24.082  0.00  0.00    +0.000 OA
ATOM     22  H   UNL     1      -5.849  14.885  24.407  0.00  0.00    +0.000 HD
ENDBRANCH   7  21
BRANCH   8  23
ATOM     23  O   UNL     1      -3.979  15.596  25.411  0.00  0.00    +0.000 OA
ATOM     24  H   UNL     1      -3.475  16.432  25.362  0.00  0.00    +0.000 HD
ENDBRANCH   8  23
BRANCH   1  25
ATOM     25  C   UNL     1       0.041  14.537  18.754  0.00  0.00    +0.000 C 
BRANCH  25  27
ATOM     26  C   UNL     1       2.139  13.182  18.465  0.00  0.00    +0.000 C 
ATOM     27  C   UNL     1       1.479  14.343  18.365  0.00  0.00    +0.000 C 
ENDBRANCH  25  27
ENDBRANCH   1  25
TORSDOF 6
ENDMDL
MODEL 8
REMARK VINA RESULT:      -5.6      8.915     10.807
REMARK  Name = 
REMARK  6 active torsions:
REMARK  status: ('A' for Active; 'I' for Inactive)
REMARK    1  A    between atoms: C_2  and  C_3
REMARK    2  A    between atoms: C_3  and  N_4
REMARK    3  A    between atoms: C_10  and  O_11
REMARK    4  A    between atoms: C_12  and  O_13
REMARK    5  A    between atoms: C_16  and  C_17
REMARK    6  A    between atoms: C_20  and  O_21
REMARK                            x       y       z     vdW  Elec       q    Type
REMARK                         _______ _______ _______ _____ _____    ______ ____
ROOT
ATOM      1  N   UNL     1       0.075  10.654  18.569  0.00  0.00    +0.000 NA
ATOM      2  C   UNL     1      -1.352  10.886  18.276  0.00  0.00    +0.000 C 
ATOM      3  C   UNL     1      -1.869  12.288  18.630  0.00  0.00    +0.000 C 
ATOM      4  C   UNL     1      -2.249  12.407  20.091  0.00  0.00    +0.000 A 
ATOM      5  C   UNL     1      -1.222  12.335  21.072  0.00  0.00    +0.000 A 
ATOM      6  C   UNL     1      -1.566  12.340  22.442  0.00  0.00    +0.000 A 
ATOM      7  C   UNL     1      -2.897  12.408  22.827  0.00  0.00    +0.000 A 
ATOM      8  C   UNL     1      -3.906  12.503  21.876  0.00  0.00    +0.000 A 
ATOM      9  C   UNL     1      -3.598  12.512  20.513  0.00  0.00    +0.000 A 
ATOM     10 BR   UNL     1      -5.048  12.623  19.275  0.00  0.00    +0.000 Br
ATOM     11  C   UNL     1       0.254  12.119  20.694  0.00  0.00    +0.000 C 
ATOM     12  C   UNL     1       0.381  10.714  20.016  0.00  0.00    +0.000 C 
ENDROOT
BRANCH  11  13
ATOM     13  C   UNL     1       0.969  13.270  19.965  0.00  0.00    +0.000 A 
ATOM     14  C   UNL     1       0.539  14.604  20.077  0.00  0.00    +0.000 A 
ATOM     15  C   UNL     1       1.172  15.630  19.361  0.00  0.00    +0.000 A 
ATOM     16  C   UNL     1       2.255  15.336  18.540  0.00  0.00    +0.000 A 
ATOM     17  C   UNL     1       2.743  14.044  18.461  0.00  0.00    +0.000 A 
ATOM     18  C   UNL     1       2.115  13.026  19.181  0.00  0.00    +0.000 A 
BRANCH  16  19
ATOM     19  O   UNL     1       2.872  16.291  17.791  0.00  0.00    +0.000 OA
ATOM     20  H   UNL     1       3.353  16.886  18.389  0.00  0.00    +0.000 HD
ENDBRANCH  16  19
ENDBRANCH  11  13
BRANCH   7  21
ATOM     21  O   UNL     1      -3.273  12.354  24.142  0.00  0.00    +0.000 OA
ATOM     22  H   UNL     1      -2.478  12.226  24.687  0.00  0.00    +0.000 HD
ENDBRANCH   7  21
BRANCH   8  23
ATOM     23  O   UNL     1      -5.203  12.557  22.320  0.00  0.00    +0.000 OA
ATOM     24  H   UNL     1      -5.521  11.633  22.292  0.00  0.00    +0.000 HD
ENDBRANCH   8  23
BRANCH   1  25
ATOM     25  C   UNL     1       0.533   9.370  18.015  0.00  0.00    +0.000 C 
BRANCH  25  27
ATOM     26  C   UNL     1       2.757   8.201  17.934  0.00  0.00    +0.000 C 
ATOM     27  C   UNL     1       2.027   9.323  17.870  0.00  0.00    +0.000 C 
ENDBRANCH  25  27
ENDBRANCH   1  25
TORSDOF 6
ENDMDL
MODEL 9
REMARK VINA RESULT:      -5.6      9.721     11.476
REMARK  Name = 
REMARK  6 active torsions:
REMARK  status: ('A' for Active; 'I' for Inactive)
REMARK    1  A    between atoms: C_2  and  C_3
REMARK    2  A    between atoms: C_3  and  N_4
REMARK    3  A    between atoms: C_10  and  O_11
REMARK    4  A    between atoms: C_12  and  O_13
REMARK    5  A    between atoms: C_16  and  C_17
REMARK    6  A    between atoms: C_20  and  O_21
REMARK                            x       y       z     vdW  Elec       q    Type
REMARK                         _______ _______ _______ _____ _____    ______ ____
ROOT
ATOM      1  N   UNL     1       0.054  13.875  19.989  0.00  0.00    +0.000 NA
ATOM      2  C   UNL     1       0.054  14.647  21.247  0.00  0.00    +0.000 C 
ATOM      3  C   UNL     1      -0.227  13.826  22.514  0.00  0.00    +0.000 C 
ATOM      4  C   UNL     1      -1.709  13.625  22.750  0.00  0.00    +0.000 A 
ATOM      5  C   UNL     1      -2.441  12.815  21.839  0.00  0.00    +0.000 A 
ATOM      6  C   UNL     1      -3.842  12.699  21.982  0.00  0.00    +0.000 A 
ATOM      7  C   UNL     1      -4.498  13.375  23.000  0.00  0.00    +0.000 A 
ATOM      8  C   UNL     1      -3.787  14.148  23.910  0.00  0.00    +0.000 A 
ATOM      9  C   UNL     1      -2.400  14.275  23.803  0.00  0.00    +0.000 A 
ATOM     10 BR   UNL     1      -1.506  15.376  25.082  0.00  0.00    +0.000 Br
ATOM     11  C   UNL     1      -1.779  12.159  20.614  0.00  0.00    +0.000 C 
ATOM     12  C   UNL     1      -1.271  13.299  19.669  0.00  0.00    +0.000 C 
ENDROOT
BRANCH  11  13
ATOM     13  C   UNL     1      -0.773  11.027  20.881  0.00  0.00    +0.000 A 
ATOM     14  C   UNL     1       0.066  10.522  19.872  0.00  0.00    +0.000 A 
ATOM     15  C   UNL     1       0.937   9.453  20.124  0.00  0.00    +0.000 A 
ATOM     16  C   UNL     1       0.992   8.888  21.394  0.00  0.00    +0.000 A 
ATOM     17  C   UNL     1       0.228   9.406  22.424  0.00  0.00    +0.000 A 
ATOM     18  C   UNL     1      -0.632  10.476  22.171  0.00  0.00    +0.000 A 
BRANCH  16  19
ATOM     19  O   UNL     1       1.789   7.819  21.674  0.00  0.00    +0.000 OA
ATOM     20  H   UNL     1       1.275   7.183  22.196  0.00  0.00    +0.000 HD
ENDBRANCH  16  19
ENDBRANCH  11  13
BRANCH   7  21
ATOM     21  O   UNL     1      -5.860  13.335  23.134  0.00  0.00    +0.000 OA
ATOM     22  H   UNL     1      -6.119  13.939  23.851  0.00  0.00    +0.000 HD
ENDBRANCH   7  21
BRANCH   8  23
ATOM     23  O   UNL     1      -4.495  14.800  24.889  0.00  0.00    +0.000 OA
ATOM     24  H   UNL     1      -3.818  15.197  25.471  0.00  0.00    +0.000 HD
ENDBRANCH   8  23
BRANCH   1  25
ATOM     25  C   UNL     1       0.530  14.691  18.861  0.00  0.00    +0.000 C 
BRANCH  25  27
ATOM     26  C   UNL     1       2.367  13.079  18.266  0.00  0.00    +0.000 C 
ATOM     27  C   UNL     1       1.933  14.332  18.463  0.00  0.00    +0.000 C 
ENDBRANCH  25  27
ENDBRANCH   1  25
TORSDOF 6
ENDMDL
