MODEL 1
REMARK VINA RESULT:     -10.1      0.000      0.000
REMARK  Name = 
REMARK  5 active torsions:
REMARK  status: ('A' for Active; 'I' for Inactive)
REMARK    1  A    between atoms: N_6  and  C_7
REMARK    2  A    between atoms: C_7  and  C_8
REMARK    3  A    between atoms: C_15  and  C_16
REMARK    4  A    between atoms: C_15  and  C_20
REMARK    5  A    between atoms: C_25  and  C_26
REMARK                            x       y       z     vdW  Elec       q    Type
REMARK                         _______ _______ _______ _____ _____    ______ ____
ROOT
ATOM      1  O   UNL     1       3.520   1.666  18.216  0.00  0.00    +0.000 OA
ATOM      2  C   UNL     1       3.955   2.738  17.816  0.00  0.00    +0.000 A 
ATOM      3  N   UNL     1       4.981   2.850  16.938  0.00  0.00    +0.000 N 
ATOM      4  C   UNL     1       5.524   4.026  16.500  0.00  0.00    +0.000 A 
ATOM      5  O   UNL     1       6.545   4.000  15.817  0.00  0.00    +0.000 OA
ATOM      6  N   UNL     1       4.849   5.175  16.874  0.00  0.00    +0.000 N 
ATOM      7  C   UNL     1       3.805   5.149  17.788  0.00  0.00    +0.000 A 
ATOM      8  C   UNL     1       3.368   3.995  18.304  0.00  0.00    +0.000 A 
ATOM      9  C   UNL     1       2.296   3.876  19.361  0.00  0.00    +0.000 C 
ATOM     10  N   UNL     1       1.936   5.276  19.758  0.00  0.00    +0.000 N 
ATOM     11  C   UNL     1       2.404   6.392  19.123  0.00  0.00    +0.000 C 
ATOM     12  N   UNL     1       3.270   6.361  18.158  0.00  0.00    +0.000 NA
ATOM     13  H   UNL     1       5.434   2.002  16.631  0.00  0.00    +0.000 HD
ATOM     14  H   UNL     1       1.098   5.357  20.330  0.00  0.00    +0.000 HD
ENDROOT
BRANCH  11  15
ATOM     15  C   UNL     1       1.899   7.724  19.590  0.00  0.00    +0.000 A 
ATOM     16  C   UNL     1       1.796   8.789  18.680  0.00  0.00    +0.000 A 
ATOM     17  C   UNL     1       1.313  10.029  19.101  0.00  0.00    +0.000 A 
ATOM     18  C   UNL     1       0.927  10.198  20.426  0.00  0.00    +0.000 A 
ATOM     19  F   UNL     1       0.451  11.386  20.823  0.00  0.00    +0.000 F 
ATOM     20  C   UNL     1       1.016   9.151  21.338  0.00  0.00    +0.000 A 
ATOM     21  C   UNL     1       1.501   7.906  20.919  0.00  0.00    +0.000 A 
ENDBRANCH  11  15
BRANCH   9  22
ATOM     22  C   UNL     1       1.036   3.164  18.799  0.00  0.00    +0.000 C 
ATOM     23  F   UNL     1       0.644   3.669  17.601  0.00  0.00    +0.000 F 
ATOM     24  F   UNL     1       1.113   1.831  18.657  0.00  0.00    +0.000 F 
ATOM     25  F   UNL     1      -0.025   3.378  19.638  0.00  0.00    +0.000 F 
ENDBRANCH   9  22
BRANCH   9  26
ATOM     26  C   UNL     1       2.814   3.146  20.635  0.00  0.00    +0.000 C 
ATOM     27  F   UNL     1       4.156   2.943  20.614  0.00  0.00    +0.000 F 
ATOM     28  F   UNL     1       2.599   3.924  21.741  0.00  0.00    +0.000 F 
ATOM     29  F   UNL     1       2.239   1.966  20.922  0.00  0.00    +0.000 F 
ENDBRANCH   9  26
BRANCH   6  30
ATOM     30  C   UNL     1       5.340   6.447  16.331  0.00  0.00    +0.000 C 
BRANCH  30  31
ATOM     31  C   UNL     1       6.499   6.944  17.120  0.00  0.00    +0.000 A 
ATOM     32  C   UNL     1       7.320   6.372  18.072  0.00  0.00    +0.000 A 
ATOM     33  C   UNL     1       8.194   7.396  18.511  0.00  0.00    +0.000 A 
ATOM     34  C   UNL     1       7.887   8.509  17.765  0.00  0.00    +0.000 A 
ATOM     35  O   UNL     1       6.872   8.240  16.906  0.00  0.00    +0.000 OA
ENDBRANCH  30  31
ENDBRANCH   6  30
TORSDOF 5
ENDMDL
MODEL 2
REMARK VINA RESULT:      -9.9      0.110      1.073
REMARK  Name = 
REMARK  5 active torsions:
REMARK  status: ('A' for Active; 'I' for Inactive)
REMARK    1  A    between atoms: N_6  and  C_7
REMARK    2  A    between atoms: C_7  and  C_8
REMARK    3  A    between atoms: C_15  and  C_16
REMARK    4  A    between atoms: C_15  and  C_20
REMARK    5  A    between atoms: C_25  and  C_26
REMARK                            x       y       z     vdW  Elec       q    Type
REMARK                         _______ _______ _______ _____ _____    ______ ____
ROOT
ATOM      1  O   UNL     1       3.525   1.719  18.172  0.00  0.00    +0.000 OA
ATOM      2  C   UNL     1       3.959   2.800  17.797  0.00  0.00    +0.000 A 
ATOM      3  N   UNL     1       4.990   2.932  16.927  0.00  0.00    +0.000 N 
ATOM      4  C   UNL     1       5.533   4.119  16.517  0.00  0.00    +0.000 A 
ATOM      5  O   UNL     1       6.557   4.109  15.839  0.00  0.00    +0.000 OA
ATOM      6  N   UNL     1       4.854   5.258  16.912  0.00  0.00    +0.000 N 
ATOM      7  C   UNL     1       3.805   5.210  17.819  0.00  0.00    +0.000 A 
ATOM      8  C   UNL     1       3.368   4.045  18.308  0.00  0.00    +0.000 A 
ATOM      9  C   UNL     1       2.291   3.901  19.357  0.00  0.00    +0.000 C 
ATOM     10  N   UNL     1       1.925   5.293  19.782  0.00  0.00    +0.000 N 
ATOM     11  C   UNL     1       2.395   6.422  19.174  0.00  0.00    +0.000 C 
ATOM     12  N   UNL     1       3.266   6.413  18.212  0.00  0.00    +0.000 NA
ATOM     13  H   UNL     1       5.447   2.093  16.604  0.00  0.00    +0.000 HD
ATOM     14  H   UNL     1       1.084   5.359  20.351  0.00  0.00    +0.000 HD
ENDROOT
BRANCH  11  15
ATOM     15  C   UNL     1       1.884   7.743  19.666  0.00  0.00    +0.000 A 
ATOM     16  C   UNL     1       1.551   7.902  21.021  0.00  0.00    +0.000 A 
ATOM     17  C   UNL     1       1.088   9.132  21.492  0.00  0.00    +0.000 A 
ATOM     18  C   UNL     1       0.966  10.199  20.609  0.00  0.00    +0.000 A 
ATOM     19  F   UNL     1       0.534  11.381  21.067  0.00  0.00    +0.000 F 
ATOM     20  C   UNL     1       1.298  10.060  19.265  0.00  0.00    +0.000 A 
ATOM     21  C   UNL     1       1.762   8.827  18.789  0.00  0.00    +0.000 A 
ENDBRANCH  11  15
BRANCH   9  22
ATOM     22  C   UNL     1       1.034   3.200  18.774  0.00  0.00    +0.000 C 
ATOM     23  F   UNL     1       0.625   3.755  17.604  0.00  0.00    +0.000 F 
ATOM     24  F   UNL     1       1.128   1.876  18.569  0.00  0.00    +0.000 F 
ATOM     25  F   UNL     1      -0.021   3.359  19.630  0.00  0.00    +0.000 F 
ENDBRANCH   9  22
BRANCH   9  26
ATOM     26  C   UNL     1       2.803   3.146  20.618  0.00  0.00    +0.000 C 
ATOM     27  F   UNL     1       2.524   3.802  21.772  0.00  0.00    +0.000 F 
ATOM     28  F   UNL     1       2.159   1.944  20.739  0.00  0.00    +0.000 F 
ATOM     29  F   UNL     1       4.112   2.843  20.640  0.00  0.00    +0.000 F 
ENDBRANCH   9  26
BRANCH   6  30
ATOM     30  C   UNL     1       5.345   6.543  16.398  0.00  0.00    +0.000 C 
BRANCH  30  31
ATOM     31  C   UNL     1       6.530   7.001  17.174  0.00  0.00    +0.000 A 
ATOM     32  C   UNL     1       7.347   6.400  18.110  0.00  0.00    +0.000 A 
ATOM     33  C   UNL     1       8.257   7.395  18.542  0.00  0.00    +0.000 A 
ATOM     34  C   UNL     1       7.971   8.521  17.807  0.00  0.00    +0.000 A 
ATOM     35  O   UNL     1       6.937   8.287  16.961  0.00  0.00    +0.000 OA
ENDBRANCH  30  31
ENDBRANCH   6  30
TORSDOF 5
ENDMDL
MODEL 3
REMARK VINA RESULT:      -9.0      0.912      1.307
REMARK  Name = 
REMARK  5 active torsions:
REMARK  status: ('A' for Active; 'I' for Inactive)
REMARK    1  A    between atoms: N_6  and  C_7
REMARK    2  A    between atoms: C_7  and  C_8
REMARK    3  A    between atoms: C_15  and  C_16
REMARK    4  A    between atoms: C_15  and  C_20
REMARK    5  A    between atoms: C_25  and  C_26
REMARK                            x       y       z     vdW  Elec       q    Type
REMARK                         _______ _______ _______ _____ _____    ______ ____
ROOT
ATOM      1  O   UNL     1       4.214   2.087  17.547  0.00  0.00    +0.000 OA
ATOM      2  C   UNL     1       4.659   3.197  17.286  0.00  0.00    +0.000 A 
ATOM      3  N   UNL     1       5.816   3.400  16.608  0.00  0.00    +0.000 N 
ATOM      4  C   UNL     1       6.369   4.620  16.334  0.00  0.00    +0.000 A 
ATOM      5  O   UNL     1       7.492   4.673  15.839  0.00  0.00    +0.000 OA
ATOM      6  N   UNL     1       5.585   5.718  16.642  0.00  0.00    +0.000 N 
ATOM      7  C   UNL     1       4.401   5.597  17.357  0.00  0.00    +0.000 A 
ATOM      8  C   UNL     1       3.938   4.399  17.727  0.00  0.00    +0.000 A 
ATOM      9  C   UNL     1       2.706   4.176  18.573  0.00  0.00    +0.000 C 
ATOM     10  N   UNL     1       2.215   5.536  18.973  0.00  0.00    +0.000 N 
ATOM     11  C   UNL     1       2.733   6.704  18.489  0.00  0.00    +0.000 C 
ATOM     12  N   UNL     1       3.753   6.764  17.690  0.00  0.00    +0.000 NA
ATOM     13  H   UNL     1       6.355   2.590  16.341  0.00  0.00    +0.000 HD
ATOM     14  H   UNL     1       1.288   5.550  19.393  0.00  0.00    +0.000 HD
ENDROOT
BRANCH  11  15
ATOM     15  C   UNL     1       2.090   7.986  18.928  0.00  0.00    +0.000 A 
ATOM     16  C   UNL     1       1.624   8.118  20.246  0.00  0.00    +0.000 A 
ATOM     17  C   UNL     1       1.037   9.312  20.669  0.00  0.00    +0.000 A 
ATOM     18  C   UNL     1       0.926  10.371  19.776  0.00  0.00    +0.000 A 
ATOM     19  F   UNL     1       0.374  11.520  20.189  0.00  0.00    +0.000 F 
ATOM     20  C   UNL     1       1.389  10.259  18.469  0.00  0.00    +0.000 A 
ATOM     21  C   UNL     1       1.977   9.063  18.041  0.00  0.00    +0.000 A 
ENDBRANCH  11  15
BRANCH   9  22
ATOM     22  C   UNL     1       1.597   3.452  17.763  0.00  0.00    +0.000 C 
ATOM     23  F   UNL     1       2.023   3.059  16.535  0.00  0.00    +0.000 F 
ATOM     24  F   UNL     1       1.033   2.380  18.345  0.00  0.00    +0.000 F 
ATOM     25  F   UNL     1       0.565   4.317  17.521  0.00  0.00    +0.000 F 
ENDBRANCH   9  22
BRANCH   9  26
ATOM     26  C   UNL     1       3.031   3.392  19.879  0.00  0.00    +0.000 C 
ATOM     27  F   UNL     1       4.323   3.533  20.267  0.00  0.00    +0.000 F 
ATOM     28  F   UNL     1       2.299   3.895  20.921  0.00  0.00    +0.000 F 
ATOM     29  F   UNL     1       2.761   2.076  19.867  0.00  0.00    +0.000 F 
ENDBRANCH   9  26
BRANCH   6  30
ATOM     30  C   UNL     1       6.100   7.038  16.260  0.00  0.00    +0.000 C 
BRANCH  30  31
ATOM     31  C   UNL     1       7.110   7.514  17.245  0.00  0.00    +0.000 A 
ATOM     32  C   UNL     1       7.772   6.914  18.297  0.00  0.00    +0.000 A 
ATOM     33  C   UNL     1       8.550   7.927  18.907  0.00  0.00    +0.000 A 
ATOM     34  C   UNL     1       8.355   9.064  18.160  0.00  0.00    +0.000 A 
ATOM     35  O   UNL     1       7.497   8.819  17.138  0.00  0.00    +0.000 OA
ENDBRANCH  30  31
ENDBRANCH   6  30
TORSDOF 5
ENDMDL
MODEL 4
REMARK VINA RESULT:      -9.0      0.761      1.057
REMARK  Name = 
REMARK  5 active torsions:
REMARK  status: ('A' for Active; 'I' for Inactive)
REMARK    1  A    between atoms: N_6  and  C_7
REMARK    2  A    between atoms: C_7  and  C_8
REMARK    3  A    between atoms: C_15  and  C_16
REMARK    4  A    between atoms: C_15  and  C_20
REMARK    5  A    between atoms: C_25  and  C_26
REMARK                            x       y       z     vdW  Elec       q    Type
REMARK                         _______ _______ _______ _____ _____    ______ ____
ROOT
ATOM      1  O   UNL     1       3.981   2.012  17.802  0.00  0.00    +0.000 OA
ATOM      2  C   UNL     1       4.412   3.120  17.506  0.00  0.00    +0.000 A 
ATOM      3  N   UNL     1       5.525   3.314  16.758  0.00  0.00    +0.000 N 
ATOM      4  C   UNL     1       6.064   4.532  16.442  0.00  0.00    +0.000 A 
ATOM      5  O   UNL     1       7.155   4.578  15.879  0.00  0.00    +0.000 OA
ATOM      6  N   UNL     1       5.303   5.634  16.791  0.00  0.00    +0.000 N 
ATOM      7  C   UNL     1       4.165   5.521  17.577  0.00  0.00    +0.000 A 
ATOM      8  C   UNL     1       3.722   4.327  17.983  0.00  0.00    +0.000 A 
ATOM      9  C   UNL     1       2.544   4.113  18.905  0.00  0.00    +0.000 C 
ATOM     10  N   UNL     1       2.082   5.477  19.324  0.00  0.00    +0.000 N 
ATOM     11  C   UNL     1       2.572   6.640  18.802  0.00  0.00    +0.000 C 
ATOM     12  N   UNL     1       3.541   6.692  17.942  0.00  0.00    +0.000 NA
ATOM     13  H   UNL     1       6.045   2.502  16.464  0.00  0.00    +0.000 HD
ATOM     14  H   UNL     1       1.183   5.496  19.801  0.00  0.00    +0.000 HD
ENDROOT
BRANCH  11  15
ATOM     15  C   UNL     1       1.961   7.926  19.271  0.00  0.00    +0.000 A 
ATOM     16  C   UNL     1       1.788   8.988  18.368  0.00  0.00    +0.000 A 
ATOM     17  C   UNL     1       1.208  10.185  18.791  0.00  0.00    +0.000 A 
ATOM     18  C   UNL     1       0.795  10.314  20.112  0.00  0.00    +0.000 A 
ATOM     19  F   UNL     1       0.226  11.459  20.512  0.00  0.00    +0.000 F 
ATOM     20  C   UNL     1       0.953   9.269  21.018  0.00  0.00    +0.000 A 
ATOM     21  C   UNL     1       1.536   8.068  20.597  0.00  0.00    +0.000 A 
ENDBRANCH  11  15
BRANCH   9  22
ATOM     22  C   UNL     1       1.385   3.387  18.169  0.00  0.00    +0.000 C 
ATOM     23  F   UNL     1       0.730   4.200  17.301  0.00  0.00    +0.000 F 
ATOM     24  F   UNL     1       1.710   2.272  17.494  0.00  0.00    +0.000 F 
ATOM     25  F   UNL     1       0.437   2.997  19.075  0.00  0.00    +0.000 F 
ENDBRANCH   9  22
BRANCH   9  26
ATOM     26  C   UNL     1       2.946   3.336  20.193  0.00  0.00    +0.000 C 
ATOM     27  F   UNL     1       2.708   2.004  20.098  0.00  0.00    +0.000 F 
ATOM     28  F   UNL     1       4.296   3.434  20.397  0.00  0.00    +0.000 F 
ATOM     29  F   UNL     1       2.389   3.758  21.341  0.00  0.00    +0.000 F 
ENDBRANCH   9  26
BRANCH   6  30
ATOM     30  C   UNL     1       5.797   6.950  16.369  0.00  0.00    +0.000 C 
BRANCH  30  31
ATOM     31  C   UNL     1       6.863   7.431  17.290  0.00  0.00    +0.000 A 
ATOM     32  C   UNL     1       7.498   8.645  17.461  0.00  0.00    +0.000 A 
ATOM     33  C   UNL     1       8.488   8.440  18.452  0.00  0.00    +0.000 A 
ATOM     34  C   UNL     1       8.360   7.133  18.858  0.00  0.00    +0.000 A 
ATOM     35  O   UNL     1       7.365   6.518  18.172  0.00  0.00    +0.000 OA
ENDBRANCH  30  31
ENDBRANCH   6  30
TORSDOF 5
ENDMDL
MODEL 5
REMARK VINA RESULT:      -8.1      0.614      1.430
REMARK  Name = 
REMARK  5 active torsions:
REMARK  status: ('A' for Active; 'I' for Inactive)
REMARK    1  A    between atoms: N_6  and  C_7
REMARK    2  A    between atoms: C_7  and  C_8
REMARK    3  A    between atoms: C_15  and  C_16
REMARK    4  A    between atoms: C_15  and  C_20
REMARK    5  A    between atoms: C_25  and  C_26
REMARK                            x       y       z     vdW  Elec       q    Type
REMARK                         _______ _______ _______ _____ _____    ______ ____
ROOT
ATOM      1  O   UNL     1       3.422   1.625  18.405  0.00  0.00    +0.000 OA
ATOM      2  C   UNL     1       3.832   2.640  17.856  0.00  0.00    +0.000 A 
ATOM      3  N   UNL     1       4.804   2.639  16.911  0.00  0.00    +0.000 N 
ATOM      4  C   UNL     1       5.320   3.753  16.306  0.00  0.00    +0.000 A 
ATOM      5  O   UNL     1       6.297   3.638  15.571  0.00  0.00    +0.000 OA
ATOM      6  N   UNL     1       4.668   4.942  16.581  0.00  0.00    +0.000 N 
ATOM      7  C   UNL     1       3.680   5.031  17.552  0.00  0.00    +0.000 A 
ATOM      8  C   UNL     1       3.275   3.949  18.225  0.00  0.00    +0.000 A 
ATOM      9  C   UNL     1       2.268   3.963  19.351  0.00  0.00    +0.000 C 
ATOM     10  N   UNL     1       1.932   5.403  19.600  0.00  0.00    +0.000 N 
ATOM     11  C   UNL     1       2.361   6.432  18.812  0.00  0.00    +0.000 C 
ATOM     12  N   UNL     1       3.168   6.282  17.807  0.00  0.00    +0.000 NA
ATOM     13  H   UNL     1       5.238   1.759  16.680  0.00  0.00    +0.000 HD
ATOM     14  H   UNL     1       1.129   5.556  20.208  0.00  0.00    +0.000 HD
ENDROOT
BRANCH  11  15
ATOM     15  C   UNL     1       1.884   7.813  19.146  0.00  0.00    +0.000 A 
ATOM     16  C   UNL     1       1.506   8.122  20.464  0.00  0.00    +0.000 A 
ATOM     17  C   UNL     1       1.073   9.408  20.788  0.00  0.00    +0.000 A 
ATOM     18  C   UNL     1       1.027  10.384  19.799  0.00  0.00    +0.000 A 
ATOM     19  F   UNL     1       0.624  11.621  20.117  0.00  0.00    +0.000 F 
ATOM     20  C   UNL     1       1.404  10.096  18.491  0.00  0.00    +0.000 A 
ATOM     21  C   UNL     1       1.838   8.806  18.161  0.00  0.00    +0.000 A 
ENDBRANCH  11  15
BRANCH   9  22
ATOM     22  C   UNL     1       0.977   3.198  18.953  0.00  0.00    +0.000 C 
ATOM     23  F   UNL     1       1.158   1.853  18.918  0.00  0.00    +0.000 F 
ATOM     24  F   UNL     1      -0.112   3.428  19.706  0.00  0.00    +0.000 F 
ATOM     25  F   UNL     1       0.614   3.541  17.679  0.00  0.00    +0.000 F 
ENDBRANCH   9  22
BRANCH   9  26
ATOM     26  C   UNL     1       2.862   3.385  20.670  0.00  0.00    +0.000 C 
ATOM     27  F   UNL     1       2.673   4.206  21.733  0.00  0.00    +0.000 F 
ATOM     28  F   UNL     1       2.215   2.227  21.007  0.00  0.00    +0.000 F 
ATOM     29  F   UNL     1       4.166   3.061  20.645  0.00  0.00    +0.000 F 
ENDBRANCH   9  26
BRANCH   6  30
ATOM     30  C   UNL     1       5.124   6.138  15.863  0.00  0.00    +0.000 C 
BRANCH  30  31
ATOM     31  C   UNL     1       6.139   6.876  16.663  0.00  0.00    +0.000 A 
ATOM     32  C   UNL     1       6.071   7.938  17.542  0.00  0.00    +0.000 A 
ATOM     33  C   UNL     1       7.405   8.234  17.913  0.00  0.00    +0.000 A 
ATOM     34  C   UNL     1       8.195   7.304  17.280  0.00  0.00    +0.000 A 
ATOM     35  O   UNL     1       7.435   6.465  16.533  0.00  0.00    +0.000 OA
ENDBRANCH  30  31
ENDBRANCH   6  30
TORSDOF 5
ENDMDL
MODEL 6
REMARK VINA RESULT:      -8.0      0.637      1.161
REMARK  Name = 
REMARK  5 active torsions:
REMARK  status: ('A' for Active; 'I' for Inactive)
REMARK    1  A    between atoms: N_6  and  C_7
REMARK    2  A    between atoms: C_7  and  C_8
REMARK    3  A    between atoms: C_15  and  C_16
REMARK    4  A    between atoms: C_15  and  C_20
REMARK    5  A    between atoms: C_25  and  C_26
REMARK                            x       y       z     vdW  Elec       q    Type
REMARK                         _______ _______ _______ _____ _____    ______ ____
ROOT
ATOM      1  O   UNL     1       3.430   1.592  18.462  0.00  0.00    +0.000 OA
ATOM      2  C   UNL     1       3.832   2.601  17.896  0.00  0.00    +0.000 A 
ATOM      3  N   UNL     1       4.785   2.590  16.932  0.00  0.00    +0.000 N 
ATOM      4  C   UNL     1       5.291   3.697  16.307  0.00  0.00    +0.000 A 
ATOM      5  O   UNL     1       6.253   3.573  15.553  0.00  0.00    +0.000 OA
ATOM      6  N   UNL     1       4.649   4.891  16.586  0.00  0.00    +0.000 N 
ATOM      7  C   UNL     1       3.682   4.990  17.576  0.00  0.00    +0.000 A 
ATOM      8  C   UNL     1       3.288   3.916  18.266  0.00  0.00    +0.000 A 
ATOM      9  C   UNL     1       2.304   3.941  19.413  0.00  0.00    +0.000 C 
ATOM     10  N   UNL     1       1.977   5.385  19.657  0.00  0.00    +0.000 N 
ATOM     11  C   UNL     1       2.394   6.406  18.852  0.00  0.00    +0.000 C 
ATOM     12  N   UNL     1       3.180   6.245  17.832  0.00  0.00    +0.000 NA
ATOM     13  H   UNL     1       5.211   1.706  16.698  0.00  0.00    +0.000 HD
ATOM     14  H   UNL     1       1.189   5.545  20.280  0.00  0.00    +0.000 HD
ENDROOT
BRANCH  11  15
ATOM     15  C   UNL     1       1.929   7.792  19.185  0.00  0.00    +0.000 A 
ATOM     16  C   UNL     1       1.892   8.776  18.184  0.00  0.00    +0.000 A 
ATOM     17  C   UNL     1       1.446  10.065  18.481  0.00  0.00    +0.000 A 
ATOM     18  C   UNL     1       1.032  10.364  19.774  0.00  0.00    +0.000 A 
ATOM     19  F   UNL     1       0.593  11.598  20.053  0.00  0.00    +0.000 F 
ATOM     20  C   UNL     1       1.057   9.398  20.776  0.00  0.00    +0.000 A 
ATOM     21  C   UNL     1       1.504   8.105  20.482  0.00  0.00    +0.000 A 
ENDBRANCH  11  15
BRANCH   9  22
ATOM     22  C   UNL     1       1.002   3.179  19.048  0.00  0.00    +0.000 C 
ATOM     23  F   UNL     1       1.190   1.836  18.969  0.00  0.00    +0.000 F 
ATOM     24  F   UNL     1      -0.056   3.382  19.849  0.00  0.00    +0.000 F 
ATOM     25  F   UNL     1       0.586   3.552  17.798  0.00  0.00    +0.000 F 
ENDBRANCH   9  22
BRANCH   9  26
ATOM     26  C   UNL     1       2.923   3.372  20.723  0.00  0.00    +0.000 C 
ATOM     27  F   UNL     1       2.507   2.109  20.993  0.00  0.00    +0.000 F 
ATOM     28  F   UNL     1       4.282   3.269  20.594  0.00  0.00    +0.000 F 
ATOM     29  F   UNL     1       2.732   4.099  21.837  0.00  0.00    +0.000 F 
ENDBRANCH   9  26
BRANCH   6  30
ATOM     30  C   UNL     1       5.095   6.079  15.849  0.00  0.00    +0.000 C 
BRANCH  30  31
ATOM     31  C   UNL     1       6.107   6.836  16.635  0.00  0.00    +0.000 A 
ATOM     32  C   UNL     1       6.029   7.874  17.543  0.00  0.00    +0.000 A 
ATOM     33  C   UNL     1       7.362   8.211  17.878  0.00  0.00    +0.000 A 
ATOM     34  C   UNL     1       8.164   7.327  17.198  0.00  0.00    +0.000 A 
ATOM     35  O   UNL     1       7.412   6.477  16.455  0.00  0.00    +0.000 OA
ENDBRANCH  30  31
ENDBRANCH   6  30
TORSDOF 5
ENDMDL
MODEL 7
REMARK VINA RESULT:      -7.9      8.944     11.057
REMARK  Name = 
REMARK  5 active torsions:
REMARK  status: ('A' for Active; 'I' for Inactive)
REMARK    1  A    between atoms: N_6  and  C_7
REMARK    2  A    between atoms: C_7  and  C_8
REMARK    3  A    between atoms: C_15  and  C_16
REMARK    4  A    between atoms: C_15  and  C_20
REMARK    5  A    between atoms: C_25  and  C_26
REMARK                            x       y       z     vdW  Elec       q    Type
REMARK                         _______ _______ _______ _____ _____    ______ ____
ROOT
ATOM      1  O   UNL     1      10.472  13.895  17.160  0.00  0.00    +0.000 OA
ATOM      2  C   UNL     1       9.692  14.513  17.875  0.00  0.00    +0.000 A 
ATOM      3  N   UNL     1       9.204  15.738  17.565  0.00  0.00    +0.000 N 
ATOM      4  C   UNL     1       8.367  16.479  18.354  0.00  0.00    +0.000 A 
ATOM      5  O   UNL     1       8.107  17.636  18.033  0.00  0.00    +0.000 OA
ATOM      6  N   UNL     1       7.871  15.835  19.474  0.00  0.00    +0.000 N 
ATOM      7  C   UNL     1       8.338  14.590  19.872  0.00  0.00    +0.000 A 
ATOM      8  C   UNL     1       9.253  13.934  19.152  0.00  0.00    +0.000 A 
ATOM      9  C   UNL     1       9.878  12.616  19.548  0.00  0.00    +0.000 C 
ATOM     10  N   UNL     1       9.348  12.291  20.913  0.00  0.00    +0.000 N 
ATOM     11  C   UNL     1       8.367  13.006  21.540  0.00  0.00    +0.000 C 
ATOM     12  N   UNL     1       7.842  14.088  21.053  0.00  0.00    +0.000 NA
ATOM     13  H   UNL     1       9.533  16.179  16.719  0.00  0.00    +0.000 HD
ATOM     14  H   UNL     1       9.540  11.343  21.232  0.00  0.00    +0.000 HD
ENDROOT
BRANCH  11  15
ATOM     15  C   UNL     1       7.891  12.517  22.874  0.00  0.00    +0.000 A 
ATOM     16  C   UNL     1       8.753  12.562  23.983  0.00  0.00    +0.000 A 
ATOM     17  C   UNL     1       8.315  12.122  25.233  0.00  0.00    +0.000 A 
ATOM     18  C   UNL     1       7.016  11.646  25.373  0.00  0.00    +0.000 A 
ATOM     19  F   UNL     1       6.595  11.237  26.577  0.00  0.00    +0.000 F 
ATOM     20  C   UNL     1       6.148  11.601  24.287  0.00  0.00    +0.000 A 
ATOM     21  C   UNL     1       6.584  12.041  23.031  0.00  0.00    +0.000 A 
ENDBRANCH  11  15
BRANCH   9  22
ATOM     22  C   UNL     1       9.472  11.488  18.562  0.00  0.00    +0.000 C 
ATOM     23  F   UNL     1      10.440  11.224  17.647  0.00  0.00    +0.000 F 
ATOM     24  F   UNL     1       9.117  10.313  19.108  0.00  0.00    +0.000 F 
ATOM     25  F   UNL     1       8.389  11.887  17.827  0.00  0.00    +0.000 F 
ENDBRANCH   9  22
BRANCH   9  26
ATOM     26  C   UNL     1      11.427  12.717  19.658  0.00  0.00    +0.000 C 
ATOM     27  F   UNL     1      11.843  13.925  20.115  0.00  0.00    +0.000 F 
ATOM     28  F   UNL     1      11.891  11.819  20.582  0.00  0.00    +0.000 F 
ATOM     29  F   UNL     1      12.123  12.455  18.538  0.00  0.00    +0.000 F 
ENDBRANCH   9  26
BRANCH   6  30
ATOM     30  C   UNL     1       6.884  16.561  20.282  0.00  0.00    +0.000 C 
BRANCH  30  31
ATOM     31  C   UNL     1       5.502  16.272  19.812  0.00  0.00    +0.000 A 
ATOM     32  C   UNL     1       4.650  15.196  19.962  0.00  0.00    +0.000 A 
ATOM     33  C   UNL     1       3.495  15.494  19.200  0.00  0.00    +0.000 A 
ATOM     34  C   UNL     1       3.693  16.750  18.677  0.00  0.00    +0.000 A 
ATOM     35  O   UNL     1       4.900  17.238  19.057  0.00  0.00    +0.000 OA
ENDBRANCH  30  31
ENDBRANCH   6  30
TORSDOF 5
ENDMDL
MODEL 8
REMARK VINA RESULT:      -7.6      8.907     11.001
REMARK  Name = 
REMARK  5 active torsions:
REMARK  status: ('A' for Active; 'I' for Inactive)
REMARK    1  A    between atoms: N_6  and  C_7
REMARK    2  A    between atoms: C_7  and  C_8
REMARK    3  A    between atoms: C_15  and  C_16
REMARK    4  A    between atoms: C_15  and  C_20
REMARK    5  A    between atoms: C_25  and  C_26
REMARK                            x       y       z     vdW  Elec       q    Type
REMARK                         _______ _______ _______ _____ _____    ______ ____
ROOT
ATOM      1  O   UNL     1      10.642  13.679  17.127  0.00  0.00    +0.000 OA
ATOM      2  C   UNL     1       9.916  14.360  17.840  0.00  0.00    +0.000 A 
ATOM      3  N   UNL     1       9.525  15.620  17.525  0.00  0.00    +0.000 N 
ATOM      4  C   UNL     1       8.752  16.428  18.312  0.00  0.00    +0.000 A 
ATOM      5  O   UNL     1       8.583  17.601  17.986  0.00  0.00    +0.000 OA
ATOM      6  N   UNL     1       8.208  15.831  19.436  0.00  0.00    +0.000 N 
ATOM      7  C   UNL     1       8.576  14.555  19.840  0.00  0.00    +0.000 A 
ATOM      8  C   UNL     1       9.434  13.824  19.121  0.00  0.00    +0.000 A 
ATOM      9  C   UNL     1       9.953  12.463  19.523  0.00  0.00    +0.000 C 
ATOM     10  N   UNL     1       9.402  12.188  20.890  0.00  0.00    +0.000 N 
ATOM     11  C   UNL     1       8.483  12.982  21.515  0.00  0.00    +0.000 C 
ATOM     12  N   UNL     1       8.044  14.099  21.023  0.00  0.00    +0.000 NA
ATOM     13  H   UNL     1       9.886  16.028  16.677  0.00  0.00    +0.000 HD
ATOM     14  H   UNL     1       9.519  11.229  21.213  0.00  0.00    +0.000 HD
ENDROOT
BRANCH  11  15
ATOM     15  C   UNL     1       7.973  12.538  22.853  0.00  0.00    +0.000 A 
ATOM     16  C   UNL     1       8.796  12.647  23.986  0.00  0.00    +0.000 A 
ATOM     17  C   UNL     1       8.325  12.250  25.239  0.00  0.00    +0.000 A 
ATOM     18  C   UNL     1       7.032  11.753  25.356  0.00  0.00    +0.000 A 
ATOM     19  F   UNL     1       6.580  11.385  26.562  0.00  0.00    +0.000 F 
ATOM     20  C   UNL     1       6.202  11.644  24.245  0.00  0.00    +0.000 A 
ATOM     21  C   UNL     1       6.671  12.041  22.987  0.00  0.00    +0.000 A 
ENDBRANCH  11  15
BRANCH   9  22
ATOM     22  C   UNL     1       9.458  11.366  18.543  0.00  0.00    +0.000 C 
ATOM     23  F   UNL     1       8.307  11.714  17.911  0.00  0.00    +0.000 F 
ATOM     24  F   UNL     1      10.324  10.974  17.594  0.00  0.00    +0.000 F 
ATOM     25  F   UNL     1       9.148  10.231  19.242  0.00  0.00    +0.000 F 
ENDBRANCH   9  22
BRANCH   9  26
ATOM     26  C   UNL     1      11.506  12.441  19.630  0.00  0.00    +0.000 C 
ATOM     27  F   UNL     1      11.955  11.576  20.573  0.00  0.00    +0.000 F 
ATOM     28  F   UNL     1      12.050  11.988  18.458  0.00  0.00    +0.000 F 
ATOM     29  F   UNL     1      12.105  13.622  19.858  0.00  0.00    +0.000 F 
ENDBRANCH   9  26
BRANCH   6  30
ATOM     30  C   UNL     1       7.284  16.637  20.243  0.00  0.00    +0.000 C 
BRANCH  30  31
ATOM     31  C   UNL     1       5.873  16.252  19.969  0.00  0.00    +0.000 A 
ATOM     32  C   UNL     1       4.832  15.815  20.764  0.00  0.00    +0.000 A 
ATOM     33  C   UNL     1       3.755  15.531  19.890  0.00  0.00    +0.000 A 
ATOM     34  C   UNL     1       4.188  15.862  18.628  0.00  0.00    +0.000 A 
ATOM     35  O   UNL     1       5.465  16.317  18.667  0.00  0.00    +0.000 OA
ENDBRANCH  30  31
ENDBRANCH   6  30
TORSDOF 5
ENDMDL
MODEL 9
REMARK VINA RESULT:      -7.5      6.667      9.826
REMARK  Name = 
REMARK  5 active torsions:
REMARK  status: ('A' for Active; 'I' for Inactive)
REMARK    1  A    between atoms: N_6  and  C_7
REMARK    2  A    between atoms: C_7  and  C_8
REMARK    3  A    between atoms: C_15  and  C_16
REMARK    4  A    between atoms: C_15  and  C_20
REMARK    5  A    between atoms: C_25  and  C_26
REMARK                            x       y       z     vdW  Elec       q    Type
REMARK                         _______ _______ _______ _____ _____    ______ ____
ROOT
ATOM      1  O   UNL     1       0.088   9.702  17.732  0.00  0.00    +0.000 OA
ATOM      2  C   UNL     1      -0.971  10.306  17.850  0.00  0.00    +0.000 A 
ATOM      3  N   UNL     1      -1.937  10.315  16.900  0.00  0.00    +0.000 N 
ATOM      4  C   UNL     1      -3.113  11.011  16.974  0.00  0.00    +0.000 A 
ATOM      5  O   UNL     1      -3.846  11.057  15.989  0.00  0.00    +0.000 OA
ATOM      6  N   UNL     1      -3.380  11.612  18.191  0.00  0.00    +0.000 N 
ATOM      7  C   UNL     1      -2.434  11.667  19.206  0.00  0.00    +0.000 A 
ATOM      8  C   UNL     1      -1.238  11.087  19.066  0.00  0.00    +0.000 A 
ATOM      9  C   UNL     1      -0.120  11.164  20.079  0.00  0.00    +0.000 C 
ATOM     10  N   UNL     1      -0.595  12.084  21.164  0.00  0.00    +0.000 N 
ATOM     11  C   UNL     1      -1.865  12.582  21.238  0.00  0.00    +0.000 C 
ATOM     12  N   UNL     1      -2.774  12.372  20.337  0.00  0.00    +0.000 NA
ATOM     13  H   UNL     1      -1.754   9.830  16.035  0.00  0.00    +0.000 HD
ATOM     14  H   UNL     1      -0.020  12.088  22.004  0.00  0.00    +0.000 HD
ENDROOT
BRANCH  11  15
ATOM     15  C   UNL     1      -2.212  13.434  22.421  0.00  0.00    +0.000 A 
ATOM     16  C   UNL     1      -3.559  13.639  22.764  0.00  0.00    +0.000 A 
ATOM     17  C   UNL     1      -3.893  14.419  23.872  0.00  0.00    +0.000 A 
ATOM     18  C   UNL     1      -2.881  14.985  24.639  0.00  0.00    +0.000 A 
ATOM     19  F   UNL     1      -3.204  15.722  25.709  0.00  0.00    +0.000 F 
ATOM     20  C   UNL     1      -1.541  14.786  24.317  0.00  0.00    +0.000 A 
ATOM     21  C   UNL     1      -1.203  14.005  23.205  0.00  0.00    +0.000 A 
ENDBRANCH  11  15
BRANCH   9  22
ATOM     22  C   UNL     1       0.177   9.767  20.689  0.00  0.00    +0.000 C 
ATOM     23  F   UNL     1      -0.923   8.972  20.729  0.00  0.00    +0.000 F 
ATOM     24  F   UNL     1       1.156   9.055  20.107  0.00  0.00    +0.000 F 
ATOM     25  F   UNL     1       0.560   9.908  21.996  0.00  0.00    +0.000 F 
ENDBRANCH   9  22
BRANCH   9  26
ATOM     26  C   UNL     1       1.174  11.783  19.473  0.00  0.00    +0.000 C 
ATOM     27  F   UNL     1       0.915  12.792  18.604  0.00  0.00    +0.000 F 
ATOM     28  F   UNL     1       1.925  12.360  20.461  0.00  0.00    +0.000 F 
ATOM     29  F   UNL     1       2.009  10.931  18.853  0.00  0.00    +0.000 F 
ENDBRANCH   9  26
BRANCH   6  30
ATOM     30  C   UNL     1      -4.682  12.272  18.342  0.00  0.00    +0.000 C 
BRANCH  30  31
ATOM     31  C   UNL     1      -5.666  11.355  18.978  0.00  0.00    +0.000 A 
ATOM     32  C   UNL     1      -6.182  10.122  18.634  0.00  0.00    +0.000 A 
ATOM     33  C   UNL     1      -7.152   9.807  19.615  0.00  0.00    +0.000 A 
ATOM     34  C   UNL     1      -7.129  10.840  20.522  0.00  0.00    +0.000 A 
ATOM     35  O   UNL     1      -6.219  11.776  20.154  0.00  0.00    +0.000 OA
ENDBRANCH  30  31
ENDBRANCH   6  30
TORSDOF 5
ENDMDL
