MODEL 1
REMARK VINA RESULT:      -9.2      0.000      0.000
REMARK  Name = 
REMARK  6 active torsions:
REMARK  status: ('A' for Active; 'I' for Inactive)
REMARK    1  A    between atoms: C_2  and  C_3
REMARK    2  A    between atoms: C_2  and  C_15
REMARK    3  A    between atoms: C_6  and  C_7
REMARK    4  A    between atoms: C_17  and  N_18
REMARK    5  A    between atoms: C_23  and  C_24
REMARK    6  A    between atoms: C_24  and  N_25
REMARK                            x       y       z     vdW  Elec       q    Type
REMARK                         _______ _______ _______ _____ _____    ______ ____
ROOT
ATOM      1  C   UNL     1       3.292   5.221  17.698  0.00  0.00    +0.000 A 
ATOM      2  C   UNL     1       2.100   4.653  18.191  0.00  0.00    +0.000 A 
ATOM      3  C   UNL     1       1.991   3.278  18.397  0.00  0.00    +0.000 A 
ATOM      4  C   UNL     1       3.044   2.432  18.055  0.00  0.00    +0.000 A 
ATOM      5  C   UNL     1       4.211   2.981  17.512  0.00  0.00    +0.000 A 
ATOM      6  C   UNL     1       4.365   4.377  17.325  0.00  0.00    +0.000 A 
ENDROOT
BRANCH   3   7
ATOM      7  N   UNL     1       0.766   2.740  19.000  0.00  0.00    +0.000 N 
ATOM      8  O   UNL     1       0.070   1.977  18.312  0.00  0.00    +0.000 OA
ATOM      9  O   UNL     1       0.495   3.088  20.158  0.00  0.00    +0.000 OA
ENDBRANCH   3   7
BRANCH   1  11
ATOM     10  O   UNL     1       3.980   7.244  16.678  0.00  0.00    +0.000 OA
ATOM     11  C   UNL     1       3.319   6.712  17.560  0.00  0.00    +0.000 C 
BRANCH  11  12
ATOM     12  C   UNL     1       2.500   7.570  18.465  0.00  0.00    +0.000 A 
ATOM     13  C   UNL     1       2.355   7.213  19.806  0.00  0.00    +0.000 A 
ATOM     14  C   UNL     1       1.593   8.016  20.671  0.00  0.00    +0.000 A 
ATOM     15  C   UNL     1       0.964   9.192  20.219  0.00  0.00    +0.000 A 
ATOM     16  C   UNL     1       1.179   9.554  18.876  0.00  0.00    +0.000 A 
ATOM     17  C   UNL     1       1.901   8.741  17.998  0.00  0.00    +0.000 A 
BRANCH  15  18
ATOM     18  C   UNL     1       0.053   9.992  21.080  0.00  0.00    +0.000 A 
ATOM     19  C   UNL     1      -0.613  11.142  20.621  0.00  0.00    +0.000 A 
ATOM     20  C   UNL     1      -1.432  11.899  21.472  0.00  0.00    +0.000 A 
ATOM     21  C   UNL     1      -1.617  11.513  22.797  0.00  0.00    +0.000 A 
ATOM     22  C   UNL     1      -0.977  10.378  23.276  0.00  0.00    +0.000 A 
ATOM     23  C   UNL     1      -0.149   9.637  22.430  0.00  0.00    +0.000 A 
ENDBRANCH  15  18
ENDBRANCH  11  12
ENDBRANCH   1  11
BRANCH   6  24
ATOM     24  C   UNL     1       5.681   4.855  16.739  0.00  0.00    +0.000 C 
BRANCH  24  25
ATOM     25  N   UNL     1       6.594   5.350  17.757  0.00  0.00    +0.000 N 
ATOM     26  C   UNL     1       7.507   6.361  17.614  0.00  0.00    +0.000 A 
ATOM     27  C   UNL     1       8.087   6.496  18.853  0.00  0.00    +0.000 A 
ATOM     28  N   UNL     1       7.527   5.622  19.750  0.00  0.00    +0.000 NA
ATOM     29  C   UNL     1       6.609   4.970  19.070  0.00  0.00    +0.000 A 
ENDBRANCH  24  25
ENDBRANCH   6  24
TORSDOF 6
ENDMDL
MODEL 2
REMARK VINA RESULT:      -9.2      1.072      1.688
REMARK  Name = 
REMARK  6 active torsions:
REMARK  status: ('A' for Active; 'I' for Inactive)
REMARK    1  A    between atoms: C_2  and  C_3
REMARK    2  A    between atoms: C_2  and  C_15
REMARK    3  A    between atoms: C_6  and  C_7
REMARK    4  A    between atoms: C_17  and  N_18
REMARK    5  A    between atoms: C_23  and  C_24
REMARK    6  A    between atoms: C_24  and  N_25
REMARK                            x       y       z     vdW  Elec       q    Type
REMARK                         _______ _______ _______ _____ _____    ______ ____
ROOT
ATOM      1  C   UNL     1       3.300   5.477  18.675  0.00  0.00    +0.000 A 
ATOM      2  C   UNL     1       2.110   4.731  18.796  0.00  0.00    +0.000 A 
ATOM      3  C   UNL     1       2.126   3.431  19.301  0.00  0.00    +0.000 A 
ATOM      4  C   UNL     1       3.334   2.822  19.632  0.00  0.00    +0.000 A 
ATOM      5  C   UNL     1       4.526   3.535  19.460  0.00  0.00    +0.000 A 
ATOM      6  C   UNL     1       4.539   4.869  18.985  0.00  0.00    +0.000 A 
ENDROOT
BRANCH   3   7
ATOM      7  N   UNL     1       0.854   2.725  19.500  0.00  0.00    +0.000 N 
ATOM      8  O   UNL     1       0.392   2.681  20.651  0.00  0.00    +0.000 OA
ATOM      9  O   UNL     1       0.323   2.207  18.507  0.00  0.00    +0.000 OA
ENDBRANCH   3   7
BRANCH   1  11
ATOM     10  O   UNL     1       3.751   7.236  17.154  0.00  0.00    +0.000 OA
ATOM     11  C   UNL     1       3.165   6.880  18.168  0.00  0.00    +0.000 C 
BRANCH  11  12
ATOM     12  C   UNL     1       2.273   7.853  18.865  0.00  0.00    +0.000 A 
ATOM     13  C   UNL     1       1.977   7.668  20.216  0.00  0.00    +0.000 A 
ATOM     14  C   UNL     1       1.145   8.581  20.886  0.00  0.00    +0.000 A 
ATOM     15  C   UNL     1       0.595   9.697  20.226  0.00  0.00    +0.000 A 
ATOM     16  C   UNL     1       0.962   9.884  18.880  0.00  0.00    +0.000 A 
ATOM     17  C   UNL     1       1.755   8.961  18.194  0.00  0.00    +0.000 A 
BRANCH  15  18
ATOM     18  C   UNL     1      -0.384  10.607  20.876  0.00  0.00    +0.000 A 
ATOM     19  C   UNL     1      -1.247  11.443  20.147  0.00  0.00    +0.000 A 
ATOM     20  C   UNL     1      -2.129  12.322  20.792  0.00  0.00    +0.000 A 
ATOM     21  C   UNL     1      -2.181  12.372  22.183  0.00  0.00    +0.000 A 
ATOM     22  C   UNL     1      -1.345  11.553  22.929  0.00  0.00    +0.000 A 
ATOM     23  C   UNL     1      -0.456  10.692  22.283  0.00  0.00    +0.000 A 
ENDBRANCH  15  18
ENDBRANCH  11  12
ENDBRANCH   1  11
BRANCH   6  24
ATOM     24  C   UNL     1       5.893   5.543  18.853  0.00  0.00    +0.000 C 
BRANCH  24  25
ATOM     25  N   UNL     1       6.457   5.399  17.520  0.00  0.00    +0.000 N 
ATOM     26  C   UNL     1       6.195   4.394  16.627  0.00  0.00    +0.000 A 
ATOM     27  C   UNL     1       6.914   4.722  15.502  0.00  0.00    +0.000 A 
ATOM     28  N   UNL     1       7.574   5.911  15.675  0.00  0.00    +0.000 NA
ATOM     29  C   UNL     1       7.253   6.312  16.886  0.00  0.00    +0.000 A 
ENDBRANCH  24  25
ENDBRANCH   6  24
TORSDOF 6
ENDMDL
MODEL 3
REMARK VINA RESULT:      -9.1      0.478      1.157
REMARK  Name = 
REMARK  6 active torsions:
REMARK  status: ('A' for Active; 'I' for Inactive)
REMARK    1  A    between atoms: C_2  and  C_3
REMARK    2  A    between atoms: C_2  and  C_15
REMARK    3  A    between atoms: C_6  and  C_7
REMARK    4  A    between atoms: C_17  and  N_18
REMARK    5  A    between atoms: C_23  and  C_24
REMARK    6  A    between atoms: C_24  and  N_25
REMARK                            x       y       z     vdW  Elec       q    Type
REMARK                         _______ _______ _______ _____ _____    ______ ____
ROOT
ATOM      1  C   UNL     1       3.351   5.354  17.668  0.00  0.00    +0.000 A 
ATOM      2  C   UNL     1       2.204   4.748  18.220  0.00  0.00    +0.000 A 
ATOM      3  C   UNL     1       2.141   3.367  18.405  0.00  0.00    +0.000 A 
ATOM      4  C   UNL     1       3.191   2.554  17.984  0.00  0.00    +0.000 A 
ATOM      5  C   UNL     1       4.310   3.142  17.383  0.00  0.00    +0.000 A 
ATOM      6  C   UNL     1       4.419   4.544  17.215  0.00  0.00    +0.000 A 
ENDROOT
BRANCH   3   7
ATOM      7  N   UNL     1       0.967   2.787  19.070  0.00  0.00    +0.000 N 
ATOM      8  O   UNL     1       0.197   2.097  18.384  0.00  0.00    +0.000 OA
ATOM      9  O   UNL     1       0.810   3.031  20.275  0.00  0.00    +0.000 OA
ENDBRANCH   3   7
BRANCH   1  11
ATOM     10  O   UNL     1       4.001   7.417  16.703  0.00  0.00    +0.000 OA
ATOM     11  C   UNL     1       3.335   6.848  17.558  0.00  0.00    +0.000 C 
BRANCH  11  12
ATOM     12  C   UNL     1       2.465   7.662  18.457  0.00  0.00    +0.000 A 
ATOM     13  C   UNL     1       1.806   8.782  17.947  0.00  0.00    +0.000 A 
ATOM     14  C   UNL     1       0.978   9.552  18.781  0.00  0.00    +0.000 A 
ATOM     15  C   UNL     1       0.786   9.221  20.135  0.00  0.00    +0.000 A 
ATOM     16  C   UNL     1       1.418   8.052  20.601  0.00  0.00    +0.000 A 
ATOM     17  C   UNL     1       2.275   7.303  19.792  0.00  0.00    +0.000 A 
BRANCH  15  18
ATOM     18  C   UNL     1       0.016  10.086  21.068  0.00  0.00    +0.000 A 
ATOM     19  C   UNL     1      -0.404  11.384  20.730  0.00  0.00    +0.000 A 
ATOM     20  C   UNL     1      -1.091  12.191  21.649  0.00  0.00    +0.000 A 
ATOM     21  C   UNL     1      -1.389  11.711  22.922  0.00  0.00    +0.000 A 
ATOM     22  C   UNL     1      -0.993  10.430  23.281  0.00  0.00    +0.000 A 
ATOM     23  C   UNL     1      -0.293   9.637  22.369  0.00  0.00    +0.000 A 
ENDBRANCH  15  18
ENDBRANCH  11  12
ENDBRANCH   1  11
BRANCH   6  24
ATOM     24  C   UNL     1       5.686   5.065  16.561  0.00  0.00    +0.000 C 
BRANCH  24  25
ATOM     25  N   UNL     1       6.611   5.642  17.525  0.00  0.00    +0.000 N 
ATOM     26  C   UNL     1       7.069   5.051  18.671  0.00  0.00    +0.000 A 
ATOM     27  C   UNL     1       7.952   5.956  19.211  0.00  0.00    +0.000 A 
ATOM     28  N   UNL     1       8.067   7.061  18.407  0.00  0.00    +0.000 NA
ATOM     29  C   UNL     1       7.274   6.829  17.383  0.00  0.00    +0.000 A 
ENDBRANCH  24  25
ENDBRANCH   6  24
TORSDOF 6
ENDMDL
MODEL 4
REMARK VINA RESULT:      -9.1      1.067      1.859
REMARK  Name = 
REMARK  6 active torsions:
REMARK  status: ('A' for Active; 'I' for Inactive)
REMARK    1  A    between atoms: C_2  and  C_3
REMARK    2  A    between atoms: C_2  and  C_15
REMARK    3  A    between atoms: C_6  and  C_7
REMARK    4  A    between atoms: C_17  and  N_18
REMARK    5  A    between atoms: C_23  and  C_24
REMARK    6  A    between atoms: C_24  and  N_25
REMARK                            x       y       z     vdW  Elec       q    Type
REMARK                         _______ _______ _______ _____ _____    ______ ____
ROOT
ATOM      1  C   UNL     1       3.373   5.360  18.485  0.00  0.00    +0.000 A 
ATOM      2  C   UNL     1       2.165   4.657  18.667  0.00  0.00    +0.000 A 
ATOM      3  C   UNL     1       2.162   3.346  19.142  0.00  0.00    +0.000 A 
ATOM      4  C   UNL     1       3.365   2.685  19.382  0.00  0.00    +0.000 A 
ATOM      5  C   UNL     1       4.570   3.355  19.149  0.00  0.00    +0.000 A 
ATOM      6  C   UNL     1       4.605   4.699  18.702  0.00  0.00    +0.000 A 
ENDROOT
BRANCH   3   7
ATOM      7  N   UNL     1       0.879   2.684  19.408  0.00  0.00    +0.000 N 
ATOM      8  O   UNL     1       0.266   2.203  18.442  0.00  0.00    +0.000 OA
ATOM      9  O   UNL     1       0.480   2.655  20.581  0.00  0.00    +0.000 OA
ENDBRANCH   3   7
BRANCH   1  11
ATOM     10  O   UNL     1       3.880   7.162  17.033  0.00  0.00    +0.000 OA
ATOM     11  C   UNL     1       3.261   6.779  18.018  0.00  0.00    +0.000 C 
BRANCH  11  12
ATOM     12  C   UNL     1       2.353   7.735  18.716  0.00  0.00    +0.000 A 
ATOM     13  C   UNL     1       1.764   8.775  17.996  0.00  0.00    +0.000 A 
ATOM     14  C   UNL     1       0.900   9.677  18.640  0.00  0.00    +0.000 A 
ATOM     15  C   UNL     1       0.602   9.559  20.011  0.00  0.00    +0.000 A 
ATOM     16  C   UNL     1       1.167   8.464  20.693  0.00  0.00    +0.000 A 
ATOM     17  C   UNL     1       2.058   7.586  20.072  0.00  0.00    +0.000 A 
BRANCH  15  18
ATOM     18  C   UNL     1      -0.207  10.569  20.743  0.00  0.00    +0.000 A 
ATOM     19  C   UNL     1      -0.865  11.631  20.097  0.00  0.00    +0.000 A 
ATOM     20  C   UNL     1      -1.585  12.591  20.822  0.00  0.00    +0.000 A 
ATOM     21  C   UNL     1      -1.678  12.503  22.208  0.00  0.00    +0.000 A 
ATOM     22  C   UNL     1      -1.046  11.461  22.872  0.00  0.00    +0.000 A 
ATOM     23  C   UNL     1      -0.315  10.516  22.148  0.00  0.00    +0.000 A 
ENDBRANCH  15  18
ENDBRANCH  11  12
ENDBRANCH   1  11
BRANCH   6  24
ATOM     24  C   UNL     1       5.973   5.324  18.497  0.00  0.00    +0.000 C 
BRANCH  24  25
ATOM     25  N   UNL     1       6.449   5.181  17.130  0.00  0.00    +0.000 N 
ATOM     26  C   UNL     1       6.104   4.196  16.244  0.00  0.00    +0.000 A 
ATOM     27  C   UNL     1       6.761   4.518  15.080  0.00  0.00    +0.000 A 
ATOM     28  N   UNL     1       7.464   5.686  15.225  0.00  0.00    +0.000 NA
ATOM     29  C   UNL     1       7.231   6.080  16.458  0.00  0.00    +0.000 A 
ENDBRANCH  24  25
ENDBRANCH   6  24
TORSDOF 6
ENDMDL
MODEL 5
REMARK VINA RESULT:      -9.1      1.115      1.866
REMARK  Name = 
REMARK  6 active torsions:
REMARK  status: ('A' for Active; 'I' for Inactive)
REMARK    1  A    between atoms: C_2  and  C_3
REMARK    2  A    between atoms: C_2  and  C_15
REMARK    3  A    between atoms: C_6  and  C_7
REMARK    4  A    between atoms: C_17  and  N_18
REMARK    5  A    between atoms: C_23  and  C_24
REMARK    6  A    between atoms: C_24  and  N_25
REMARK                            x       y       z     vdW  Elec       q    Type
REMARK                         _______ _______ _______ _____ _____    ______ ____
ROOT
ATOM      1  C   UNL     1       3.375   5.387  18.681  0.00  0.00    +0.000 A 
ATOM      2  C   UNL     1       2.220   4.613  18.913  0.00  0.00    +0.000 A 
ATOM      3  C   UNL     1       2.312   3.327  19.445  0.00  0.00    +0.000 A 
ATOM      4  C   UNL     1       3.559   2.760  19.695  0.00  0.00    +0.000 A 
ATOM      5  C   UNL     1       4.713   3.499  19.414  0.00  0.00    +0.000 A 
ATOM      6  C   UNL     1       4.651   4.820  18.908  0.00  0.00    +0.000 A 
ENDROOT
BRANCH   3   7
ATOM      7  N   UNL     1       1.080   2.593  19.759  0.00  0.00    +0.000 N 
ATOM      8  O   UNL     1       0.296   2.354  18.827  0.00  0.00    +0.000 OA
ATOM      9  O   UNL     1       0.892   2.265  20.939  0.00  0.00    +0.000 OA
ENDBRANCH   3   7
BRANCH   1  11
ATOM     10  O   UNL     1       3.653   7.116  17.086  0.00  0.00    +0.000 OA
ATOM     11  C   UNL     1       3.161   6.772  18.153  0.00  0.00    +0.000 C 
BRANCH  11  12
ATOM     12  C   UNL     1       2.302   7.740  18.897  0.00  0.00    +0.000 A 
ATOM     13  C   UNL     1       2.035   7.524  20.250  0.00  0.00    +0.000 A 
ATOM     14  C   UNL     1       1.235   8.432  20.963  0.00  0.00    +0.000 A 
ATOM     15  C   UNL     1       0.689   9.574  20.347  0.00  0.00    +0.000 A 
ATOM     16  C   UNL     1       1.026   9.792  18.998  0.00  0.00    +0.000 A 
ATOM     17  C   UNL     1       1.787   8.874  18.268  0.00  0.00    +0.000 A 
BRANCH  15  18
ATOM     18  C   UNL     1      -0.260  10.482  21.044  0.00  0.00    +0.000 A 
ATOM     19  C   UNL     1      -0.474  10.437  22.433  0.00  0.00    +0.000 A 
ATOM     20  C   UNL     1      -1.409  11.279  23.053  0.00  0.00    +0.000 A 
ATOM     21  C   UNL     1      -2.138  12.196  22.302  0.00  0.00    +0.000 A 
ATOM     22  C   UNL     1      -1.942  12.268  20.929  0.00  0.00    +0.000 A 
ATOM     23  C   UNL     1      -1.023  11.416  20.313  0.00  0.00    +0.000 A 
ENDBRANCH  15  18
ENDBRANCH  11  12
ENDBRANCH   1  11
BRANCH   6  24
ATOM     24  C   UNL     1       5.971   5.526  18.654  0.00  0.00    +0.000 C 
BRANCH  24  25
ATOM     25  N   UNL     1       6.451   5.334  17.295  0.00  0.00    +0.000 N 
ATOM     26  C   UNL     1       6.038   4.373  16.411  0.00  0.00    +0.000 A 
ATOM     27  C   UNL     1       6.734   4.631  15.254  0.00  0.00    +0.000 A 
ATOM     28  N   UNL     1       7.527   5.739  15.400  0.00  0.00    +0.000 NA
ATOM     29  C   UNL     1       7.311   6.161  16.627  0.00  0.00    +0.000 A 
ENDBRANCH  24  25
ENDBRANCH   6  24
TORSDOF 6
ENDMDL
MODEL 6
REMARK VINA RESULT:      -9.0      0.461      1.287
REMARK  Name = 
REMARK  6 active torsions:
REMARK  status: ('A' for Active; 'I' for Inactive)
REMARK    1  A    between atoms: C_2  and  C_3
REMARK    2  A    between atoms: C_2  and  C_15
REMARK    3  A    between atoms: C_6  and  C_7
REMARK    4  A    between atoms: C_17  and  N_18
REMARK    5  A    between atoms: C_23  and  C_24
REMARK    6  A    between atoms: C_24  and  N_25
REMARK                            x       y       z     vdW  Elec       q    Type
REMARK                         _______ _______ _______ _____ _____    ______ ____
ROOT
ATOM      1  C   UNL     1       3.270   5.405  17.633  0.00  0.00    +0.000 A 
ATOM      2  C   UNL     1       2.103   4.834  18.180  0.00  0.00    +0.000 A 
ATOM      3  C   UNL     1       1.998   3.456  18.367  0.00  0.00    +0.000 A 
ATOM      4  C   UNL     1       3.026   2.612  17.952  0.00  0.00    +0.000 A 
ATOM      5  C   UNL     1       4.165   3.166  17.356  0.00  0.00    +0.000 A 
ATOM      6  C   UNL     1       4.316   4.564  17.186  0.00  0.00    +0.000 A 
ENDROOT
BRANCH   3   7
ATOM      7  N   UNL     1       0.805   2.912  19.026  0.00  0.00    +0.000 N 
ATOM      8  O   UNL     1       0.512   3.355  20.148  0.00  0.00    +0.000 OA
ATOM      9  O   UNL     1       0.167   2.035  18.427  0.00  0.00    +0.000 OA
ENDBRANCH   3   7
BRANCH   1  11
ATOM     10  O   UNL     1       3.959   7.446  16.649  0.00  0.00    +0.000 OA
ATOM     11  C   UNL     1       3.298   6.899  17.521  0.00  0.00    +0.000 C 
BRANCH  11  12
ATOM     12  C   UNL     1       2.478   7.741  18.441  0.00  0.00    +0.000 A 
ATOM     13  C   UNL     1       2.276   7.326  19.758  0.00  0.00    +0.000 A 
ATOM     14  C   UNL     1       1.513   8.114  20.635  0.00  0.00    +0.000 A 
ATOM     15  C   UNL     1       0.941   9.332  20.222  0.00  0.00    +0.000 A 
ATOM     16  C   UNL     1       1.214   9.749  18.906  0.00  0.00    +0.000 A 
ATOM     17  C   UNL     1       1.936   8.954  18.013  0.00  0.00    +0.000 A 
BRANCH  15  18
ATOM     18  C   UNL     1       0.029  10.122  21.092  0.00  0.00    +0.000 A 
ATOM     19  C   UNL     1      -0.169   9.829  22.452  0.00  0.00    +0.000 A 
ATOM     20  C   UNL     1      -1.070  10.567  23.234  0.00  0.00    +0.000 A 
ATOM     21  C   UNL     1      -1.780  11.627  22.676  0.00  0.00    +0.000 A 
ATOM     22  C   UNL     1      -1.600  11.944  21.337  0.00  0.00    +0.000 A 
ATOM     23  C   UNL     1      -0.715  11.195  20.558  0.00  0.00    +0.000 A 
ENDBRANCH  15  18
ENDBRANCH  11  12
ENDBRANCH   1  11
BRANCH   6  24
ATOM     24  C   UNL     1       5.601   5.047  16.539  0.00  0.00    +0.000 C 
BRANCH  24  25
ATOM     25  N   UNL     1       6.532   5.609  17.505  0.00  0.00    +0.000 N 
ATOM     26  C   UNL     1       6.922   5.041  18.688  0.00  0.00    +0.000 A 
ATOM     27  C   UNL     1       7.843   5.915  19.216  0.00  0.00    +0.000 A 
ATOM     28  N   UNL     1       8.048   6.975  18.370  0.00  0.00    +0.000 NA
ATOM     29  C   UNL     1       7.270   6.747  17.334  0.00  0.00    +0.000 A 
ENDBRANCH  24  25
ENDBRANCH   6  24
TORSDOF 6
ENDMDL
MODEL 7
REMARK VINA RESULT:      -8.9      2.151      4.848
REMARK  Name = 
REMARK  6 active torsions:
REMARK  status: ('A' for Active; 'I' for Inactive)
REMARK    1  A    between atoms: C_2  and  C_3
REMARK    2  A    between atoms: C_2  and  C_15
REMARK    3  A    between atoms: C_6  and  C_7
REMARK    4  A    between atoms: C_17  and  N_18
REMARK    5  A    between atoms: C_23  and  C_24
REMARK    6  A    between atoms: C_24  and  N_25
REMARK                            x       y       z     vdW  Elec       q    Type
REMARK                         _______ _______ _______ _____ _____    ______ ____
ROOT
ATOM      1  C   UNL     1       4.304   5.316  18.833  0.00  0.00    +0.000 A 
ATOM      2  C   UNL     1       5.571   5.691  19.324  0.00  0.00    +0.000 A 
ATOM      3  C   UNL     1       6.734   5.387  18.617  0.00  0.00    +0.000 A 
ATOM      4  C   UNL     1       6.665   4.646  17.440  0.00  0.00    +0.000 A 
ATOM      5  C   UNL     1       5.417   4.220  16.974  0.00  0.00    +0.000 A 
ATOM      6  C   UNL     1       4.215   4.544  17.650  0.00  0.00    +0.000 A 
ENDROOT
BRANCH   3   7
ATOM      7  N   UNL     1       8.024   5.879  19.117  0.00  0.00    +0.000 N 
ATOM      8  O   UNL     1       8.658   5.150  19.895  0.00  0.00    +0.000 OA
ATOM      9  O   UNL     1       8.397   6.999  18.739  0.00  0.00    +0.000 OA
ENDBRANCH   3   7
BRANCH   1  11
ATOM     10  O   UNL     1       2.689   5.016  20.539  0.00  0.00    +0.000 OA
ATOM     11  C   UNL     1       3.117   5.734  19.645  0.00  0.00    +0.000 C 
BRANCH  11  12
ATOM     12  C   UNL     1       2.469   7.058  19.411  0.00  0.00    +0.000 A 
ATOM     13  C   UNL     1       2.547   7.647  18.148  0.00  0.00    +0.000 A 
ATOM     14  C   UNL     1       1.934   8.889  17.912  0.00  0.00    +0.000 A 
ATOM     15  C   UNL     1       1.229   9.567  18.925  0.00  0.00    +0.000 A 
ATOM     16  C   UNL     1       1.121   8.916  20.169  0.00  0.00    +0.000 A 
ATOM     17  C   UNL     1       1.760   7.701  20.426  0.00  0.00    +0.000 A 
BRANCH  15  18
ATOM     18  C   UNL     1       0.679  10.935  18.738  0.00  0.00    +0.000 A 
ATOM     19  C   UNL     1       1.492  12.079  18.659  0.00  0.00    +0.000 A 
ATOM     20  C   UNL     1       0.938  13.360  18.525  0.00  0.00    +0.000 A 
ATOM     21  C   UNL     1      -0.442  13.526  18.451  0.00  0.00    +0.000 A 
ATOM     22  C   UNL     1      -1.270  12.413  18.518  0.00  0.00    +0.000 A 
ATOM     23  C   UNL     1      -0.715  11.141  18.669  0.00  0.00    +0.000 A 
ENDBRANCH  15  18
ENDBRANCH  11  12
ENDBRANCH   1  11
BRANCH   6  24
ATOM     24  C   UNL     1       2.920   4.036  17.042  0.00  0.00    +0.000 C 
BRANCH  24  25
ATOM     25  N   UNL     1       2.177   3.180  17.953  0.00  0.00    +0.000 N 
ATOM     26  C   UNL     1       0.852   3.293  18.281  0.00  0.00    +0.000 A 
ATOM     27  C   UNL     1       0.603   2.235  19.123  0.00  0.00    +0.000 A 
ATOM     28  N   UNL     1       1.727   1.467  19.286  0.00  0.00    +0.000 NA
ATOM     29  C   UNL     1       2.649   2.041  18.543  0.00  0.00    +0.000 A 
ENDBRANCH  24  25
ENDBRANCH   6  24
TORSDOF 6
ENDMDL
MODEL 8
REMARK VINA RESULT:      -8.9      2.383      4.699
REMARK  Name = 
REMARK  6 active torsions:
REMARK  status: ('A' for Active; 'I' for Inactive)
REMARK    1  A    between atoms: C_2  and  C_3
REMARK    2  A    between atoms: C_2  and  C_15
REMARK    3  A    between atoms: C_6  and  C_7
REMARK    4  A    between atoms: C_17  and  N_18
REMARK    5  A    between atoms: C_23  and  C_24
REMARK    6  A    between atoms: C_24  and  N_25
REMARK                            x       y       z     vdW  Elec       q    Type
REMARK                         _______ _______ _______ _____ _____    ______ ____
ROOT
ATOM      1  C   UNL     1       3.869   5.330  18.134  0.00  0.00    +0.000 A 
ATOM      2  C   UNL     1       5.166   5.716  17.738  0.00  0.00    +0.000 A 
ATOM      3  C   UNL     1       5.770   5.156  16.613  0.00  0.00    +0.000 A 
ATOM      4  C   UNL     1       5.123   4.151  15.897  0.00  0.00    +0.000 A 
ATOM      5  C   UNL     1       3.859   3.721  16.316  0.00  0.00    +0.000 A 
ATOM      6  C   UNL     1       3.204   4.297  17.432  0.00  0.00    +0.000 A 
ENDROOT
BRANCH   3   7
ATOM      7  N   UNL     1       7.082   5.654  16.182  0.00  0.00    +0.000 N 
ATOM      8  O   UNL     1       7.681   5.017  15.302  0.00  0.00    +0.000 OA
ATOM      9  O   UNL     1       7.517   6.676  16.731  0.00  0.00    +0.000 OA
ENDBRANCH   3   7
BRANCH   1  11
ATOM     10  O   UNL     1       3.428   5.560  20.449  0.00  0.00    +0.000 OA
ATOM     11  C   UNL     1       3.294   6.030  19.327  0.00  0.00    +0.000 C 
BRANCH  11  12
ATOM     12  C   UNL     1       2.594   7.339  19.171  0.00  0.00    +0.000 A 
ATOM     13  C   UNL     1       2.698   8.035  17.966  0.00  0.00    +0.000 A 
ATOM     14  C   UNL     1       2.037   9.264  17.804  0.00  0.00    +0.000 A 
ATOM     15  C   UNL     1       1.256   9.821  18.834  0.00  0.00    +0.000 A 
ATOM     16  C   UNL     1       1.125   9.064  20.014  0.00  0.00    +0.000 A 
ATOM     17  C   UNL     1       1.811   7.862  20.201  0.00  0.00    +0.000 A 
BRANCH  15  18
ATOM     18  C   UNL     1       0.649  11.175  18.734  0.00  0.00    +0.000 A 
ATOM     19  C   UNL     1      -0.739  11.382  18.645  0.00  0.00    +0.000 A 
ATOM     20  C   UNL     1      -1.277  12.670  18.508  0.00  0.00    +0.000 A 
ATOM     21  C   UNL     1      -0.440  13.782  18.472  0.00  0.00    +0.000 A 
ATOM     22  C   UNL     1       0.934  13.608  18.565  0.00  0.00    +0.000 A 
ATOM     23  C   UNL     1       1.466  12.323  18.684  0.00  0.00    +0.000 A 
ENDBRANCH  15  18
ENDBRANCH  11  12
ENDBRANCH   1  11
BRANCH   6  24
ATOM     24  C   UNL     1       1.830   3.756  17.783  0.00  0.00    +0.000 C 
BRANCH  24  25
ATOM     25  N   UNL     1       1.780   3.195  19.124  0.00  0.00    +0.000 N 
ATOM     26  C   UNL     1       2.698   2.354  19.692  0.00  0.00    +0.000 A 
ATOM     27  C   UNL     1       2.247   2.147  20.974  0.00  0.00    +0.000 A 
ATOM     28  N   UNL     1       1.104   2.867  21.209  0.00  0.00    +0.000 NA
ATOM     29  C   UNL     1       0.865   3.514  20.089  0.00  0.00    +0.000 A 
ENDBRANCH  24  25
ENDBRANCH   6  24
TORSDOF 6
ENDMDL
MODEL 9
REMARK VINA RESULT:      -8.8      2.307      4.499
REMARK  Name = 
REMARK  6 active torsions:
REMARK  status: ('A' for Active; 'I' for Inactive)
REMARK    1  A    between atoms: C_2  and  C_3
REMARK    2  A    between atoms: C_2  and  C_15
REMARK    3  A    between atoms: C_6  and  C_7
REMARK    4  A    between atoms: C_17  and  N_18
REMARK    5  A    between atoms: C_23  and  C_24
REMARK    6  A    between atoms: C_24  and  N_25
REMARK                            x       y       z     vdW  Elec       q    Type
REMARK                         _______ _______ _______ _____ _____    ______ ____
ROOT
ATOM      1  C   UNL     1       3.997   5.363  18.074  0.00  0.00    +0.000 A 
ATOM      2  C   UNL     1       5.273   5.770  17.633  0.00  0.00    +0.000 A 
ATOM      3  C   UNL     1       5.824   5.257  16.459  0.00  0.00    +0.000 A 
ATOM      4  C   UNL     1       5.145   4.279  15.735  0.00  0.00    +0.000 A 
ATOM      5  C   UNL     1       3.904   3.828  16.196  0.00  0.00    +0.000 A 
ATOM      6  C   UNL     1       3.302   4.356  17.365  0.00  0.00    +0.000 A 
ENDROOT
BRANCH   3   7
ATOM      7  N   UNL     1       7.112   5.778  15.986  0.00  0.00    +0.000 N 
ATOM      8  O   UNL     1       7.599   5.272  14.963  0.00  0.00    +0.000 OA
ATOM      9  O   UNL     1       7.641   6.685  16.644  0.00  0.00    +0.000 OA
ENDBRANCH   3   7
BRANCH   1  11
ATOM     10  O   UNL     1       3.843   5.625  20.423  0.00  0.00    +0.000 OA
ATOM     11  C   UNL     1       3.479   6.013  19.321  0.00  0.00    +0.000 C 
BRANCH  11  12
ATOM     12  C   UNL     1       2.548   7.176  19.236  0.00  0.00    +0.000 A 
ATOM     13  C   UNL     1       1.894   7.619  20.387  0.00  0.00    +0.000 A 
ATOM     14  C   UNL     1       1.022   8.718  20.321  0.00  0.00    +0.000 A 
ATOM     15  C   UNL     1       0.787   9.401  19.113  0.00  0.00    +0.000 A 
ATOM     16  C   UNL     1       1.508   8.965  17.985  0.00  0.00    +0.000 A 
ATOM     17  C   UNL     1       2.346   7.848  18.030  0.00  0.00    +0.000 A 
BRANCH  15  18
ATOM     18  C   UNL     1      -0.222  10.486  18.991  0.00  0.00    +0.000 A 
ATOM     19  C   UNL     1      -1.207  10.501  17.988  0.00  0.00    +0.000 A 
ATOM     20  C   UNL     1      -2.116  11.563  17.875  0.00  0.00    +0.000 A 
ATOM     21  C   UNL     1      -2.073  12.625  18.773  0.00  0.00    +0.000 A 
ATOM     22  C   UNL     1      -1.117  12.634  19.779  0.00  0.00    +0.000 A 
ATOM     23  C   UNL     1      -0.201  11.584  19.877  0.00  0.00    +0.000 A 
ENDBRANCH  15  18
ENDBRANCH  11  12
ENDBRANCH   1  11
BRANCH   6  24
ATOM     24  C   UNL     1       1.947   3.796  17.759  0.00  0.00    +0.000 C 
BRANCH  24  25
ATOM     25  N   UNL     1       1.915   3.339  19.140  0.00  0.00    +0.000 N 
ATOM     26  C   UNL     1       0.956   3.627  20.073  0.00  0.00    +0.000 A 
ATOM     27  C   UNL     1       1.332   2.931  21.197  0.00  0.00    +0.000 A 
ATOM     28  N   UNL     1       2.470   2.202  20.960  0.00  0.00    +0.000 NA
ATOM     29  C   UNL     1       2.778   2.441  19.704  0.00  0.00    +0.000 A 
ENDBRANCH  24  25
ENDBRANCH   6  24
TORSDOF 6
ENDMDL
