MODEL 1
REMARK VINA RESULT:      -9.2      0.000      0.000
REMARK  Name = 
REMARK  5 active torsions:
REMARK  status: ('A' for Active; 'I' for Inactive)
REMARK    1  A    between atoms: C_1  and  C_2
REMARK    2  A    between atoms: C_6  and  C_7
REMARK    3  A    between atoms: C_7  and  N_8
REMARK    4  A    between atoms: N_8  and  C_9
REMARK    5  A    between atoms: C_16  and  C_17
REMARK                            x       y       z     vdW  Elec       q    Type
REMARK                         _______ _______ _______ _____ _____    ______ ____
ROOT
ATOM      1  C   UNL     1       3.827   3.978  17.692  0.00  0.00    +0.000 A 
ATOM      2  N   UNL     1       4.126   2.672  17.776  0.00  0.00    +0.000 NA
ATOM      3  C   UNL     1       3.664   2.018  18.848  0.00  0.00    +0.000 A 
ATOM      4  N   UNL     1       2.964   2.545  19.858  0.00  0.00    +0.000 NA
ATOM      5  C   UNL     1       2.682   3.849  19.767  0.00  0.00    +0.000 A 
ATOM      6  C   UNL     1       2.008   4.459  20.813  0.00  0.00    +0.000 A 
ATOM      7  C   UNL     1       1.693   5.824  20.792  0.00  0.00    +0.000 A 
ATOM      8  C   UNL     1       2.021   6.633  19.695  0.00  0.00    +0.000 A 
ATOM      9  C   UNL     1       2.701   6.005  18.638  0.00  0.00    +0.000 A 
ATOM     10  C   UNL     1       3.057   4.632  18.672  0.00  0.00    +0.000 A 
ENDROOT
BRANCH   8  11
ATOM     11  C   UNL     1       1.681   8.076  19.657  0.00  0.00    +0.000 A 
ATOM     12  C   UNL     1       1.785   8.824  18.453  0.00  0.00    +0.000 A 
ATOM     13  C   UNL     1       1.458  10.185  18.390  0.00  0.00    +0.000 A 
ATOM     14  C   UNL     1       1.051  10.797  19.550  0.00  0.00    +0.000 A 
ATOM     15  C   UNL     1       0.951  10.103  20.730  0.00  0.00    +0.000 A 
ATOM     16  C   UNL     1       1.245   8.756  20.812  0.00  0.00    +0.000 A 
ATOM     17  O   UNL     1       0.543  10.890  21.762  0.00  0.00    +0.000 OA
ATOM     18  C   UNL     1       0.464  12.172  21.106  0.00  0.00    +0.000 C 
ATOM     19  O   UNL     1       0.715  12.106  19.687  0.00  0.00    +0.000 OA
ENDBRANCH   8  11
BRANCH   1  20
ATOM     20  N   UNL     1       4.277   4.705  16.569  0.00  0.00    +0.000 N 
ATOM     21  H   UNL     1       3.678   4.472  15.779  0.00  0.00    +0.000 HD
BRANCH  20  22
ATOM     22  C   UNL     1       5.686   4.503  16.255  0.00  0.00    +0.000 C 
BRANCH  22  28
ATOM     23  C   UNL     1       7.823   8.876  17.568  0.00  0.00    +0.000 C 
ATOM     24  C   UNL     1       7.603   7.415  17.835  0.00  0.00    +0.000 A 
ATOM     25  C   UNL     1       8.228   6.777  18.910  0.00  0.00    +0.000 A 
ATOM     26  C   UNL     1       8.023   5.414  19.137  0.00  0.00    +0.000 A 
ATOM     27  C   UNL     1       7.195   4.679  18.290  0.00  0.00    +0.000 A 
ATOM     28  C   UNL     1       6.552   5.300  17.208  0.00  0.00    +0.000 A 
ATOM     29  C   UNL     1       6.768   6.669  16.991  0.00  0.00    +0.000 A 
ENDBRANCH  22  28
ENDBRANCH  20  22
ENDBRANCH   1  20
TORSDOF 4
ENDMDL
MODEL 2
REMARK VINA RESULT:      -9.0      1.830      3.085
REMARK  Name = 
REMARK  5 active torsions:
REMARK  status: ('A' for Active; 'I' for Inactive)
REMARK    1  A    between atoms: C_1  and  C_2
REMARK    2  A    between atoms: C_6  and  C_7
REMARK    3  A    between atoms: C_7  and  N_8
REMARK    4  A    between atoms: N_8  and  C_9
REMARK    5  A    between atoms: C_16  and  C_17
REMARK                            x       y       z     vdW  Elec       q    Type
REMARK                         _______ _______ _______ _____ _____    ______ ____
ROOT
ATOM      1  C   UNL     1       3.845   3.642  17.548  0.00  0.00    +0.000 A 
ATOM      2  N   UNL     1       4.103   2.335  17.717  0.00  0.00    +0.000 NA
ATOM      3  C   UNL     1       3.634   1.770  18.835  0.00  0.00    +0.000 A 
ATOM      4  N   UNL     1       2.965   2.387  19.816  0.00  0.00    +0.000 NA
ATOM      5  C   UNL     1       2.725   3.690  19.640  0.00  0.00    +0.000 A 
ATOM      6  C   UNL     1       2.085   4.392  20.650  0.00  0.00    +0.000 A 
ATOM      7  C   UNL     1       1.814   5.762  20.541  0.00  0.00    +0.000 A 
ATOM      8  C   UNL     1       2.153   6.485  19.388  0.00  0.00    +0.000 A 
ATOM      9  C   UNL     1       2.798   5.765  18.369  0.00  0.00    +0.000 A 
ATOM     10  C   UNL     1       3.110   4.386  18.491  0.00  0.00    +0.000 A 
ENDROOT
BRANCH   8  11
ATOM     11  C   UNL     1       1.861   7.932  19.257  0.00  0.00    +0.000 A 
ATOM     12  C   UNL     1       2.169   8.639  18.063  0.00  0.00    +0.000 A 
ATOM     13  C   UNL     1       1.890  10.004  17.912  0.00  0.00    +0.000 A 
ATOM     14  C   UNL     1       1.324  10.661  18.976  0.00  0.00    +0.000 A 
ATOM     15  C   UNL     1       1.026  10.007  20.146  0.00  0.00    +0.000 A 
ATOM     16  C   UNL     1       1.269   8.657  20.311  0.00  0.00    +0.000 A 
ATOM     17  O   UNL     1       0.483  10.834  21.079  0.00  0.00    +0.000 OA
ATOM     18  C   UNL     1       0.539  12.097  20.383  0.00  0.00    +0.000 C 
ATOM     19  O   UNL     1       1.005  11.981  19.022  0.00  0.00    +0.000 OA
ENDBRANCH   8  11
BRANCH   1  20
ATOM     20  N   UNL     1       4.303   4.277  16.374  0.00  0.00    +0.000 N 
ATOM     21  H   UNL     1       3.898   3.796  15.574  0.00  0.00    +0.000 HD
BRANCH  20  22
ATOM     22  C   UNL     1       5.755   4.363  16.272  0.00  0.00    +0.000 C 
BRANCH  22  28
ATOM     23  C   UNL     1       5.108   2.686  11.563  0.00  0.00    +0.000 C 
ATOM     24  C   UNL     1       5.876   3.530  12.539  0.00  0.00    +0.000 A 
ATOM     25  C   UNL     1       6.998   4.259  12.133  0.00  0.00    +0.000 A 
ATOM     26  C   UNL     1       7.710   5.029  13.057  0.00  0.00    +0.000 A 
ATOM     27  C   UNL     1       7.306   5.075  14.391  0.00  0.00    +0.000 A 
ATOM     28  C   UNL     1       6.178   4.357  14.818  0.00  0.00    +0.000 A 
ATOM     29  C   UNL     1       5.473   3.586  13.880  0.00  0.00    +0.000 A 
ENDBRANCH  22  28
ENDBRANCH  20  22
ENDBRANCH   1  20
TORSDOF 4
ENDMDL
MODEL 3
REMARK VINA RESULT:      -9.0      0.654      1.350
REMARK  Name = 
REMARK  5 active torsions:
REMARK  status: ('A' for Active; 'I' for Inactive)
REMARK    1  A    between atoms: C_1  and  C_2
REMARK    2  A    between atoms: C_6  and  C_7
REMARK    3  A    between atoms: C_7  and  N_8
REMARK    4  A    between atoms: N_8  and  C_9
REMARK    5  A    between atoms: C_16  and  C_17
REMARK                            x       y       z     vdW  Elec       q    Type
REMARK                         _______ _______ _______ _____ _____    ______ ____
ROOT
ATOM      1  C   UNL     1       3.730   3.486  17.601  0.00  0.00    +0.000 A 
ATOM      2  N   UNL     1       3.972   2.180  17.799  0.00  0.00    +0.000 NA
ATOM      3  C   UNL     1       3.536   1.656  18.949  0.00  0.00    +0.000 A 
ATOM      4  N   UNL     1       2.915   2.312  19.935  0.00  0.00    +0.000 NA
ATOM      5  C   UNL     1       2.690   3.614  19.731  0.00  0.00    +0.000 A 
ATOM      6  C   UNL     1       2.099   4.356  20.742  0.00  0.00    +0.000 A 
ATOM      7  C   UNL     1       1.848   5.727  20.603  0.00  0.00    +0.000 A 
ATOM      8  C   UNL     1       2.156   6.410  19.418  0.00  0.00    +0.000 A 
ATOM      9  C   UNL     1       2.750   5.650  18.397  0.00  0.00    +0.000 A 
ATOM     10  C   UNL     1       3.043   4.270  18.548  0.00  0.00    +0.000 A 
ENDROOT
BRANCH   8  11
ATOM     11  C   UNL     1       1.883   7.858  19.255  0.00  0.00    +0.000 A 
ATOM     12  C   UNL     1       2.190   8.532  18.042  0.00  0.00    +0.000 A 
ATOM     13  C   UNL     1       1.930   9.897  17.861  0.00  0.00    +0.000 A 
ATOM     14  C   UNL     1       1.383  10.587  18.915  0.00  0.00    +0.000 A 
ATOM     15  C   UNL     1       1.085   9.965  20.102  0.00  0.00    +0.000 A 
ATOM     16  C   UNL     1       1.310   8.616  20.296  0.00  0.00    +0.000 A 
ATOM     17  O   UNL     1       0.563  10.822  21.020  0.00  0.00    +0.000 OA
ATOM     18  C   UNL     1       0.631  12.067  20.294  0.00  0.00    +0.000 C 
ATOM     19  O   UNL     1       1.083  11.912  18.932  0.00  0.00    +0.000 OA
ENDBRANCH   8  11
BRANCH   1  20
ATOM     20  N   UNL     1       4.155   4.079  16.393  0.00  0.00    +0.000 N 
ATOM     21  H   UNL     1       3.602   3.686  15.634  0.00  0.00    +0.000 HD
BRANCH  20  22
ATOM     22  C   UNL     1       5.585   3.953  16.139  0.00  0.00    +0.000 C 
BRANCH  22  28
ATOM     23  C   UNL     1       8.428   5.374  20.051  0.00  0.00    +0.000 C 
ATOM     24  C   UNL     1       7.707   5.729  18.783  0.00  0.00    +0.000 A 
ATOM     25  C   UNL     1       7.682   7.045  18.313  0.00  0.00    +0.000 A 
ATOM     26  C   UNL     1       6.995   7.361  17.139  0.00  0.00    +0.000 A 
ATOM     27  C   UNL     1       6.327   6.365  16.428  0.00  0.00    +0.000 A 
ATOM     28  C   UNL     1       6.344   5.036  16.877  0.00  0.00    +0.000 A 
ATOM     29  C   UNL     1       7.037   4.733  18.059  0.00  0.00    +0.000 A 
ENDBRANCH  22  28
ENDBRANCH  20  22
ENDBRANCH   1  20
TORSDOF 4
ENDMDL
MODEL 4
REMARK VINA RESULT:      -9.0      2.219      3.856
REMARK  Name = 
REMARK  5 active torsions:
REMARK  status: ('A' for Active; 'I' for Inactive)
REMARK    1  A    between atoms: C_1  and  C_2
REMARK    2  A    between atoms: C_6  and  C_7
REMARK    3  A    between atoms: C_7  and  N_8
REMARK    4  A    between atoms: N_8  and  C_9
REMARK    5  A    between atoms: C_16  and  C_17
REMARK                            x       y       z     vdW  Elec       q    Type
REMARK                         _______ _______ _______ _____ _____    ______ ____
ROOT
ATOM      1  C   UNL     1       6.680   6.732  16.911  0.00  0.00    +0.000 A 
ATOM      2  N   UNL     1       7.516   5.809  16.407  0.00  0.00    +0.000 NA
ATOM      3  C   UNL     1       7.019   4.579  16.235  0.00  0.00    +0.000 A 
ATOM      4  N   UNL     1       5.785   4.170  16.550  0.00  0.00    +0.000 NA
ATOM      5  C   UNL     1       4.967   5.096  17.062  0.00  0.00    +0.000 A 
ATOM      6  C   UNL     1       3.694   4.715  17.458  0.00  0.00    +0.000 A 
ATOM      7  C   UNL     1       2.789   5.628  18.015  0.00  0.00    +0.000 A 
ATOM      8  C   UNL     1       3.121   6.981  18.173  0.00  0.00    +0.000 A 
ATOM      9  C   UNL     1       4.411   7.359  17.765  0.00  0.00    +0.000 A 
ATOM     10  C   UNL     1       5.344   6.430  17.237  0.00  0.00    +0.000 A 
ENDROOT
BRANCH   8  11
ATOM     11  C   UNL     1       2.166   7.958  18.750  0.00  0.00    +0.000 A 
ATOM     12  C   UNL     1       1.572   8.967  17.946  0.00  0.00    +0.000 A 
ATOM     13  C   UNL     1       0.658   9.893  18.467  0.00  0.00    +0.000 A 
ATOM     14  C   UNL     1       0.365   9.816  19.806  0.00  0.00    +0.000 A 
ATOM     15  C   UNL     1       0.932   8.859  20.610  0.00  0.00    +0.000 A 
ATOM     16  C   UNL     1       1.817   7.920  20.115  0.00  0.00    +0.000 A 
ATOM     17  O   UNL     1       0.523   8.958  21.903  0.00  0.00    +0.000 OA
ATOM     18  C   UNL     1      -0.314  10.131  21.830  0.00  0.00    +0.000 C 
ATOM     19  O   UNL     1      -0.476  10.637  20.488  0.00  0.00    +0.000 OA
ENDBRANCH   8  11
BRANCH   1  20
ATOM     20  N   UNL     1       7.154   8.049  17.091  0.00  0.00    +0.000 N 
ATOM     21  H   UNL     1       7.481   8.395  16.192  0.00  0.00    +0.000 HD
BRANCH  20  22
ATOM     22  C   UNL     1       8.177   8.178  18.122  0.00  0.00    +0.000 C 
BRANCH  22  28
ATOM     23  C   UNL     1      10.587  11.753  20.732  0.00  0.00    +0.000 C 
ATOM     24  C   UNL     1       9.713  11.368  19.574  0.00  0.00    +0.000 A 
ATOM     25  C   UNL     1       9.209  12.335  18.699  0.00  0.00    +0.000 A 
ATOM     26  C   UNL     1       8.386  11.962  17.633  0.00  0.00    +0.000 A 
ATOM     27  C   UNL     1       8.060  10.620  17.437  0.00  0.00    +0.000 A 
ATOM     28  C   UNL     1       8.560   9.632  18.299  0.00  0.00    +0.000 A 
ATOM     29  C   UNL     1       9.384  10.021  19.365  0.00  0.00    +0.000 A 
ENDBRANCH  22  28
ENDBRANCH  20  22
ENDBRANCH   1  20
TORSDOF 4
ENDMDL
MODEL 5
REMARK VINA RESULT:      -9.0      0.641      1.278
REMARK  Name = 
REMARK  5 active torsions:
REMARK  status: ('A' for Active; 'I' for Inactive)
REMARK    1  A    between atoms: C_1  and  C_2
REMARK    2  A    between atoms: C_6  and  C_7
REMARK    3  A    between atoms: C_7  and  N_8
REMARK    4  A    between atoms: N_8  and  C_9
REMARK    5  A    between atoms: C_16  and  C_17
REMARK                            x       y       z     vdW  Elec       q    Type
REMARK                         _______ _______ _______ _____ _____    ______ ____
ROOT
ATOM      1  C   UNL     1       3.692   4.201  17.581  0.00  0.00    +0.000 A 
ATOM      2  N   UNL     1       3.992   2.900  17.441  0.00  0.00    +0.000 NA
ATOM      3  C   UNL     1       3.537   2.074  18.389  0.00  0.00    +0.000 A 
ATOM      4  N   UNL     1       2.845   2.422  19.480  0.00  0.00    +0.000 NA
ATOM      5  C   UNL     1       2.563   3.722  19.613  0.00  0.00    +0.000 A 
ATOM      6  C   UNL     1       1.897   4.146  20.752  0.00  0.00    +0.000 A 
ATOM      7  C   UNL     1       1.582   5.495  20.965  0.00  0.00    +0.000 A 
ATOM      8  C   UNL     1       1.902   6.478  20.018  0.00  0.00    +0.000 A 
ATOM      9  C   UNL     1       2.574   6.038  18.865  0.00  0.00    +0.000 A 
ATOM     10  C   UNL     1       2.930   4.679  18.664  0.00  0.00    +0.000 A 
ENDROOT
BRANCH   8  11
ATOM     11  C   UNL     1       1.563   7.906  20.227  0.00  0.00    +0.000 A 
ATOM     12  C   UNL     1       1.205   8.395  21.513  0.00  0.00    +0.000 A 
ATOM     13  C   UNL     1       0.892   9.742  21.738  0.00  0.00    +0.000 A 
ATOM     14  C   UNL     1       0.916  10.591  20.658  0.00  0.00    +0.000 A 
ATOM     15  C   UNL     1       1.247  10.145  19.403  0.00  0.00    +0.000 A 
ATOM     16  C   UNL     1       1.582   8.827  19.161  0.00  0.00    +0.000 A 
ATOM     17  O   UNL     1       1.200  11.135  18.472  0.00  0.00    +0.000 OA
ATOM     18  C   UNL     1       0.735  12.238  19.277  0.00  0.00    +0.000 C 
ATOM     19  O   UNL     1       0.622  11.917  20.679  0.00  0.00    +0.000 OA
ENDBRANCH   8  11
BRANCH   1  20
ATOM     20  N   UNL     1       4.134   5.109  16.594  0.00  0.00    +0.000 N 
ATOM     21  H   UNL     1       3.500   5.048  15.800  0.00  0.00    +0.000 HD
BRANCH  20  22
ATOM     22  C   UNL     1       5.522   4.919  16.190  0.00  0.00    +0.000 C 
BRANCH  22  28
ATOM     23  C   UNL     1       8.017   9.039  17.678  0.00  0.00    +0.000 C 
ATOM     24  C   UNL     1       7.673   7.592  17.886  0.00  0.00    +0.000 A 
ATOM     25  C   UNL     1       8.238   6.861  18.935  0.00  0.00    +0.000 A 
ATOM     26  C   UNL     1       7.918   5.512  19.107  0.00  0.00    +0.000 A 
ATOM     27  C   UNL     1       7.034   4.885  18.231  0.00  0.00    +0.000 A 
ATOM     28  C   UNL     1       6.449   5.601  17.174  0.00  0.00    +0.000 A 
ATOM     29  C   UNL     1       6.781   6.955  17.013  0.00  0.00    +0.000 A 
ENDBRANCH  22  28
ENDBRANCH  20  22
ENDBRANCH   1  20
TORSDOF 4
ENDMDL
MODEL 6
REMARK VINA RESULT:      -8.9      2.209      3.995
REMARK  Name = 
REMARK  5 active torsions:
REMARK  status: ('A' for Active; 'I' for Inactive)
REMARK    1  A    between atoms: C_1  and  C_2
REMARK    2  A    between atoms: C_6  and  C_7
REMARK    3  A    between atoms: C_7  and  N_8
REMARK    4  A    between atoms: N_8  and  C_9
REMARK    5  A    between atoms: C_16  and  C_17
REMARK                            x       y       z     vdW  Elec       q    Type
REMARK                         _______ _______ _______ _____ _____    ______ ____
ROOT
ATOM      1  C   UNL     1       6.638   6.766  16.863  0.00  0.00    +0.000 A 
ATOM      2  N   UNL     1       7.466   5.879  16.287  0.00  0.00    +0.000 NA
ATOM      3  C   UNL     1       6.982   4.649  16.084  0.00  0.00    +0.000 A 
ATOM      4  N   UNL     1       5.768   4.207  16.432  0.00  0.00    +0.000 NA
ATOM      5  C   UNL     1       4.958   5.096  17.015  0.00  0.00    +0.000 A 
ATOM      6  C   UNL     1       3.709   4.678  17.446  0.00  0.00    +0.000 A 
ATOM      7  C   UNL     1       2.814   5.551  18.079  0.00  0.00    +0.000 A 
ATOM      8  C   UNL     1       3.131   6.902  18.280  0.00  0.00    +0.000 A 
ATOM      9  C   UNL     1       4.397   7.318  17.836  0.00  0.00    +0.000 A 
ATOM     10  C   UNL     1       5.322   6.428  17.231  0.00  0.00    +0.000 A 
ENDROOT
BRANCH   8  11
ATOM     11  C   UNL     1       2.187   7.838  18.937  0.00  0.00    +0.000 A 
ATOM     12  C   UNL     1       1.814   7.669  20.298  0.00  0.00    +0.000 A 
ATOM     13  C   UNL     1       0.933   8.547  20.944  0.00  0.00    +0.000 A 
ATOM     14  C   UNL     1       0.409   9.581  20.207  0.00  0.00    +0.000 A 
ATOM     15  C   UNL     1       0.743   9.762  18.888  0.00  0.00    +0.000 A 
ATOM     16  C   UNL     1       1.627   8.925  18.236  0.00  0.00    +0.000 A 
ATOM     17  O   UNL     1       0.111  10.832  18.336  0.00  0.00    +0.000 OA
ATOM     18  C   UNL     1      -0.710  11.259  19.443  0.00  0.00    +0.000 C 
ATOM     19  O   UNL     1      -0.471  10.514  20.655  0.00  0.00    +0.000 OA
ENDBRANCH   8  11
BRANCH   1  20
ATOM     20  N   UNL     1       7.099   8.083  17.079  0.00  0.00    +0.000 N 
ATOM     21  H   UNL     1       7.402   8.464  16.186  0.00  0.00    +0.000 HD
BRANCH  20  22
ATOM     22  C   UNL     1       8.142   8.189  18.092  0.00  0.00    +0.000 C 
BRANCH  22  28
ATOM     23  C   UNL     1      10.576  11.721  20.740  0.00  0.00    +0.000 C 
ATOM     24  C   UNL     1       9.707  11.352  19.573  0.00  0.00    +0.000 A 
ATOM     25  C   UNL     1       9.222  12.330  18.699  0.00  0.00    +0.000 A 
ATOM     26  C   UNL     1       8.403  11.972  17.625  0.00  0.00    +0.000 A 
ATOM     27  C   UNL     1       8.061  10.636  17.419  0.00  0.00    +0.000 A 
ATOM     28  C   UNL     1       8.542   9.637  18.280  0.00  0.00    +0.000 A 
ATOM     29  C   UNL     1       9.363  10.011  19.355  0.00  0.00    +0.000 A 
ENDBRANCH  22  28
ENDBRANCH  20  22
ENDBRANCH   1  20
TORSDOF 4
ENDMDL
MODEL 7
REMARK VINA RESULT:      -8.9      2.112      3.711
REMARK  Name = 
REMARK  5 active torsions:
REMARK  status: ('A' for Active; 'I' for Inactive)
REMARK    1  A    between atoms: C_1  and  C_2
REMARK    2  A    between atoms: C_6  and  C_7
REMARK    3  A    between atoms: C_7  and  N_8
REMARK    4  A    between atoms: N_8  and  C_9
REMARK    5  A    between atoms: C_16  and  C_17
REMARK                            x       y       z     vdW  Elec       q    Type
REMARK                         _______ _______ _______ _____ _____    ______ ____
ROOT
ATOM      1  C   UNL     1       6.719   6.636  16.794  0.00  0.00    +0.000 A 
ATOM      2  N   UNL     1       7.529   5.720  16.239  0.00  0.00    +0.000 NA
ATOM      3  C   UNL     1       7.002   4.513  16.010  0.00  0.00    +0.000 A 
ATOM      4  N   UNL     1       5.760   4.118  16.313  0.00  0.00    +0.000 NA
ATOM      5  C   UNL     1       4.968   5.035  16.876  0.00  0.00    +0.000 A 
ATOM      6  C   UNL     1       3.689   4.665  17.262  0.00  0.00    +0.000 A 
ATOM      7  C   UNL     1       2.809   5.570  17.872  0.00  0.00    +0.000 A 
ATOM      8  C   UNL     1       3.174   6.906  18.094  0.00  0.00    +0.000 A 
ATOM      9  C   UNL     1       4.470   7.273  17.696  0.00  0.00    +0.000 A 
ATOM     10  C   UNL     1       5.378   6.350  17.115  0.00  0.00    +0.000 A 
ENDROOT
BRANCH   8  11
ATOM     11  C   UNL     1       2.247   7.875  18.727  0.00  0.00    +0.000 A 
ATOM     12  C   UNL     1       1.648   8.919  17.971  0.00  0.00    +0.000 A 
ATOM     13  C   UNL     1       0.759   9.838  18.545  0.00  0.00    +0.000 A 
ATOM     14  C   UNL     1       0.497   9.719  19.888  0.00  0.00    +0.000 A 
ATOM     15  C   UNL     1       1.069   8.728  20.645  0.00  0.00    +0.000 A 
ATOM     16  C   UNL     1       1.929   7.795  20.098  0.00  0.00    +0.000 A 
ATOM     17  O   UNL     1       0.692   8.788  21.950  0.00  0.00    +0.000 OA
ATOM     18  C   UNL     1      -0.130   9.973  21.936  0.00  0.00    +0.000 C 
ATOM     19  O   UNL     1      -0.317  10.527  20.617  0.00  0.00    +0.000 OA
ENDBRANCH   8  11
BRANCH   1  20
ATOM     20  N   UNL     1       7.225   7.931  17.037  0.00  0.00    +0.000 N 
ATOM     21  H   UNL     1       7.642   8.276  16.175  0.00  0.00    +0.000 HD
BRANCH  20  22
ATOM     22  C   UNL     1       8.159   8.006  18.154  0.00  0.00    +0.000 C 
BRANCH  22  28
ATOM     23  C   UNL     1       7.743  12.897  17.010  0.00  0.00    +0.000 C 
ATOM     24  C   UNL     1       8.353  11.816  17.854  0.00  0.00    +0.000 A 
ATOM     25  C   UNL     1       9.302  12.118  18.836  0.00  0.00    +0.000 A 
ATOM     26  C   UNL     1       9.871  11.099  19.604  0.00  0.00    +0.000 A 
ATOM     27  C   UNL     1       9.496   9.772  19.395  0.00  0.00    +0.000 A 
ATOM     28  C   UNL     1       8.540   9.446  18.420  0.00  0.00    +0.000 A 
ATOM     29  C   UNL     1       7.979  10.480  17.655  0.00  0.00    +0.000 A 
ENDBRANCH  22  28
ENDBRANCH  20  22
ENDBRANCH   1  20
TORSDOF 4
ENDMDL
MODEL 8
REMARK VINA RESULT:      -8.8      2.040      3.775
REMARK  Name = 
REMARK  5 active torsions:
REMARK  status: ('A' for Active; 'I' for Inactive)
REMARK    1  A    between atoms: C_1  and  C_2
REMARK    2  A    between atoms: C_6  and  C_7
REMARK    3  A    between atoms: C_7  and  N_8
REMARK    4  A    between atoms: N_8  and  C_9
REMARK    5  A    between atoms: C_16  and  C_17
REMARK                            x       y       z     vdW  Elec       q    Type
REMARK                         _______ _______ _______ _____ _____    ______ ____
ROOT
ATOM      1  C   UNL     1       6.660   6.562  16.679  0.00  0.00    +0.000 A 
ATOM      2  N   UNL     1       7.441   5.668  16.052  0.00  0.00    +0.000 NA
ATOM      3  C   UNL     1       6.901   4.469  15.804  0.00  0.00    +0.000 A 
ATOM      4  N   UNL     1       5.675   4.064  16.152  0.00  0.00    +0.000 NA
ATOM      5  C   UNL     1       4.912   4.960  16.787  0.00  0.00    +0.000 A 
ATOM      6  C   UNL     1       3.653   4.576  17.220  0.00  0.00    +0.000 A 
ATOM      7  C   UNL     1       2.806   5.458  17.904  0.00  0.00    +0.000 A 
ATOM      8  C   UNL     1       3.183   6.784  18.157  0.00  0.00    +0.000 A 
ATOM      9  C   UNL     1       4.459   7.166  17.711  0.00  0.00    +0.000 A 
ATOM     10  C   UNL     1       5.336   6.265  17.053  0.00  0.00    +0.000 A 
ENDROOT
BRANCH   8  11
ATOM     11  C   UNL     1       2.289   7.729  18.869  0.00  0.00    +0.000 A 
ATOM     12  C   UNL     1       1.897   7.496  20.216  0.00  0.00    +0.000 A 
ATOM     13  C   UNL     1       1.064   8.381  20.913  0.00  0.00    +0.000 A 
ATOM     14  C   UNL     1       0.605   9.488  20.242  0.00  0.00    +0.000 A 
ATOM     15  C   UNL     1       0.958   9.733  18.938  0.00  0.00    +0.000 A 
ATOM     16  C   UNL     1       1.797   8.889  18.237  0.00  0.00    +0.000 A 
ATOM     17  O   UNL     1       0.392  10.871  18.453  0.00  0.00    +0.000 OA
ATOM     18  C   UNL     1      -0.411  11.273  19.582  0.00  0.00    +0.000 C 
ATOM     19  O   UNL     1      -0.223  10.440  20.745  0.00  0.00    +0.000 OA
ENDBRANCH   8  11
BRANCH   1  20
ATOM     20  N   UNL     1       7.180   7.848  16.945  0.00  0.00    +0.000 N 
ATOM     21  H   UNL     1       7.583   8.211  16.084  0.00  0.00    +0.000 HD
BRANCH  20  22
ATOM     22  C   UNL     1       8.135   7.888  18.046  0.00  0.00    +0.000 C 
BRANCH  22  28
ATOM     23  C   UNL     1       7.783  12.806  16.999  0.00  0.00    +0.000 C 
ATOM     24  C   UNL     1       8.340  11.705  17.854  0.00  0.00    +0.000 A 
ATOM     25  C   UNL     1       9.222  11.983  18.902  0.00  0.00    +0.000 A 
ATOM     26  C   UNL     1       9.742  10.945  19.681  0.00  0.00    +0.000 A 
ATOM     27  C   UNL     1       9.385   9.623  19.415  0.00  0.00    +0.000 A 
ATOM     28  C   UNL     1       8.495   9.322  18.372  0.00  0.00    +0.000 A 
ATOM     29  C   UNL     1       7.982  10.374  17.598  0.00  0.00    +0.000 A 
ENDBRANCH  22  28
ENDBRANCH  20  22
ENDBRANCH   1  20
TORSDOF 4
ENDMDL
MODEL 9
REMARK VINA RESULT:      -8.8      3.704      7.188
REMARK  Name = 
REMARK  5 active torsions:
REMARK  status: ('A' for Active; 'I' for Inactive)
REMARK    1  A    between atoms: C_1  and  C_2
REMARK    2  A    between atoms: C_6  and  C_7
REMARK    3  A    between atoms: C_7  and  N_8
REMARK    4  A    between atoms: N_8  and  C_9
REMARK    5  A    between atoms: C_16  and  C_17
REMARK                            x       y       z     vdW  Elec       q    Type
REMARK                         _______ _______ _______ _____ _____    ______ ____
ROOT
ATOM      1  C   UNL     1       2.368   4.716  20.346  0.00  0.00    +0.000 A 
ATOM      2  N   UNL     1       1.470   4.203  21.203  0.00  0.00    +0.000 NA
ATOM      3  C   UNL     1       1.156   2.913  21.043  0.00  0.00    +0.000 A 
ATOM      4  N   UNL     1       1.619   2.095  20.091  0.00  0.00    +0.000 NA
ATOM      5  C   UNL     1       2.504   2.621  19.237  0.00  0.00    +0.000 A 
ATOM      6  C   UNL     1       2.975   1.835  18.198  0.00  0.00    +0.000 A 
ATOM      7  C   UNL     1       3.891   2.324  17.257  0.00  0.00    +0.000 A 
ATOM      8  C   UNL     1       4.397   3.629  17.341  0.00  0.00    +0.000 A 
ATOM      9  C   UNL     1       3.917   4.418  18.400  0.00  0.00    +0.000 A 
ATOM     10  C   UNL     1       2.959   3.939  19.331  0.00  0.00    +0.000 A 
ENDROOT
BRANCH   8  11
ATOM     11  C   UNL     1       5.376   4.154  16.358  0.00  0.00    +0.000 A 
ATOM     12  C   UNL     1       6.306   5.167  16.717  0.00  0.00    +0.000 A 
ATOM     13  C   UNL     1       7.248   5.669  15.809  0.00  0.00    +0.000 A 
ATOM     14  C   UNL     1       7.233   5.166  14.531  0.00  0.00    +0.000 A 
ATOM     15  C   UNL     1       6.339   4.195  14.153  0.00  0.00    +0.000 A 
ATOM     16  C   UNL     1       5.417   3.667  15.036  0.00  0.00    +0.000 A 
ATOM     17  O   UNL     1       6.479   3.841  12.847  0.00  0.00    +0.000 OA
ATOM     18  C   UNL     1       7.519   4.751  12.433  0.00  0.00    +0.000 C 
ATOM     19  O   UNL     1       8.051   5.544  13.515  0.00  0.00    +0.000 OA
ENDBRANCH   8  11
BRANCH   1  20
ATOM     20  N   UNL     1       2.745   6.068  20.488  0.00  0.00    +0.000 N 
ATOM     21  H   UNL     1       3.511   6.115  21.156  0.00  0.00    +0.000 HD
BRANCH  20  22
ATOM     22  C   UNL     1       1.650   6.956  20.860  0.00  0.00    +0.000 C 
BRANCH  22  28
ATOM     23  C   UNL     1      -0.015  11.590  19.781  0.00  0.00    +0.000 C 
ATOM     24  C   UNL     1       0.763  10.371  19.377  0.00  0.00    +0.000 A 
ATOM     25  C   UNL     1       1.373  10.289  18.122  0.00  0.00    +0.000 A 
ATOM     26  C   UNL     1       2.082   9.142  17.756  0.00  0.00    +0.000 A 
ATOM     27  C   UNL     1       2.184   8.069  18.641  0.00  0.00    +0.000 A 
ATOM     28  C   UNL     1       1.585   8.132  19.908  0.00  0.00    +0.000 A 
ATOM     29  C   UNL     1       0.875   9.289  20.262  0.00  0.00    +0.000 A 
ENDBRANCH  22  28
ENDBRANCH  20  22
ENDBRANCH   1  20
TORSDOF 4
ENDMDL
