MODEL 1
REMARK VINA RESULT:      -8.2      0.000      0.000
REMARK  Name = 
REMARK  7 active torsions:
REMARK  status: ('A' for Active; 'I' for Inactive)
REMARK    1  A    between atoms: C_1  and  S_2
REMARK    2  A    between atoms: S_2  and  N_5
REMARK    3  A    between atoms: N_5  and  C_6
REMARK    4  A    between atoms: C_10  and  C_11
REMARK    5  A    between atoms: C_11  and  C_12
REMARK    6  A    between atoms: N_14  and  C_15
REMARK    7  A    between atoms: C_17  and  C_18
REMARK                            x       y       z     vdW  Elec       q    Type
REMARK                         _______ _______ _______ _____ _____    ______ ____
ROOT
ATOM      1  C   UNL     1       2.013   8.157  18.972  0.00  0.00    +0.000 C 
ATOM      2  O   UNL     1       2.064   8.435  17.773  0.00  0.00    +0.000 OA
ATOM      3  N   UNL     1       1.242   8.851  19.893  0.00  0.00    +0.000 N 
ATOM      4  H   UNL     1       1.562   8.917  20.851  0.00  0.00    +0.000 HD
ENDROOT
BRANCH   3   5
ATOM      5  C   UNL     1       0.438   9.866  19.428  0.00  0.00    +0.000 A 
ATOM      6  C   UNL     1      -0.778   9.827  18.791  0.00  0.00    +0.000 A 
ATOM      7  C   UNL     1      -1.172  11.114  18.320  0.00  0.00    +0.000 A 
ATOM      8  C   UNL     1      -0.217  12.066  18.621  0.00  0.00    +0.000 A 
ATOM      9  S   UNL     1       1.043  11.434  19.608  0.00  0.00    +0.000 S 
BRANCH   7  10
ATOM     10  C   UNL     1      -2.423  11.319  17.581  0.00  0.00    +0.000 A 
ATOM     11  C   UNL     1      -2.622  11.085  16.229  0.00  0.00    +0.000 A 
ATOM     12  N   UNL     1      -3.934  11.375  15.945  0.00  0.00    +0.000 N 
ATOM     13  C   UNL     1      -4.578  11.780  17.080  0.00  0.00    +0.000 A 
ATOM     14  N   UNL     1      -5.880  12.121  17.122  0.00  0.00    +0.000 NA
ATOM     15  C   UNL     1      -6.290  12.473  18.360  0.00  0.00    +0.000 A 
ATOM     16  C   UNL     1      -5.499  12.492  19.499  0.00  0.00    +0.000 A 
ATOM     17  C   UNL     1      -4.157  12.122  19.398  0.00  0.00    +0.000 A 
ATOM     18  C   UNL     1      -3.666  11.757  18.132  0.00  0.00    +0.000 A 
ATOM     19  H   UNL     1      -4.382  11.299  15.045  0.00  0.00    +0.000 HD
ENDBRANCH   7  10
ENDBRANCH   3   5
BRANCH   1  20
ATOM     20  C   UNL     1       2.870   7.053  19.577  0.00  0.00    +0.000 C 
BRANCH  20  25
ATOM     21  C   UNL     1       4.323   4.346  17.315  0.00  0.00    +0.000 A 
ATOM     22  C   UNL     1       3.207   3.547  17.066  0.00  0.00    +0.000 A 
ATOM     23  C   UNL     1       1.973   3.906  17.598  0.00  0.00    +0.000 A 
ATOM     24  C   UNL     1       1.862   5.051  18.384  0.00  0.00    +0.000 A 
ATOM     25  C   UNL     1       2.986   5.841  18.677  0.00  0.00    +0.000 A 
ATOM     26  C   UNL     1       4.217   5.490  18.108  0.00  0.00    +0.000 A 
BRANCH  21  27
ATOM     27  N   UNL     1       5.556   4.039  16.678  0.00  0.00    +0.000 N 
ATOM     28  H   UNL     1       5.633   3.116  16.251  0.00  0.00    +0.000 HD
BRANCH  27  30
ATOM     29  C   UNL     1       6.816   4.325  14.296  0.00  0.00    +0.000 C 
ATOM     30  S   UNL     1       6.266   5.240  15.725  0.00  0.00    +0.000 S 
ATOM     31  O   UNL     1       7.449   5.663  16.444  0.00  0.00    +0.000 OA
ATOM     32  O   UNL     1       5.258   6.190  15.310  0.00  0.00    +0.000 OA
ENDBRANCH  27  30
ENDBRANCH  21  27
ENDBRANCH  20  25
ENDBRANCH   1  20
TORSDOF 6
ENDMDL
MODEL 2
REMARK VINA RESULT:      -8.1      3.266      4.238
REMARK  Name = 
REMARK  7 active torsions:
REMARK  status: ('A' for Active; 'I' for Inactive)
REMARK    1  A    between atoms: C_1  and  S_2
REMARK    2  A    between atoms: S_2  and  N_5
REMARK    3  A    between atoms: N_5  and  C_6
REMARK    4  A    between atoms: C_10  and  C_11
REMARK    5  A    between atoms: C_11  and  C_12
REMARK    6  A    between atoms: N_14  and  C_15
REMARK    7  A    between atoms: C_17  and  C_18
REMARK                            x       y       z     vdW  Elec       q    Type
REMARK                         _______ _______ _______ _____ _____    ______ ____
ROOT
ATOM      1  C   UNL     1       2.856   5.404  19.613  0.00  0.00    +0.000 C 
ATOM      2  O   UNL     1       2.176   5.345  20.637  0.00  0.00    +0.000 OA
ATOM      3  N   UNL     1       2.916   6.517  18.788  0.00  0.00    +0.000 N 
ATOM      4  H   UNL     1       3.070   6.387  17.797  0.00  0.00    +0.000 HD
ENDROOT
BRANCH   3   5
ATOM      5  C   UNL     1       2.227   7.644  19.174  0.00  0.00    +0.000 A 
ATOM      6  C   UNL     1       1.641   7.972  20.372  0.00  0.00    +0.000 A 
ATOM      7  C   UNL     1       0.871   9.168  20.278  0.00  0.00    +0.000 A 
ATOM      8  C   UNL     1       0.909   9.682  18.996  0.00  0.00    +0.000 A 
ATOM      9  S   UNL     1       2.000   8.821  17.981  0.00  0.00    +0.000 S 
BRANCH   7  10
ATOM     10  C   UNL     1       0.126   9.703  21.424  0.00  0.00    +0.000 A 
ATOM     11  C   UNL     1       0.115   9.180  22.708  0.00  0.00    +0.000 A 
ATOM     12  N   UNL     1      -0.679   9.990  23.481  0.00  0.00    +0.000 N 
ATOM     13  C   UNL     1      -1.169  11.019  22.727  0.00  0.00    +0.000 A 
ATOM     14  N   UNL     1      -1.970  11.986  23.208  0.00  0.00    +0.000 NA
ATOM     15  C   UNL     1      -2.313  12.899  22.273  0.00  0.00    +0.000 A 
ATOM     16  C   UNL     1      -1.903  12.891  20.948  0.00  0.00    +0.000 A 
ATOM     17  C   UNL     1      -1.067  11.866  20.504  0.00  0.00    +0.000 A 
ATOM     18  C   UNL     1      -0.686  10.877  21.428  0.00  0.00    +0.000 A 
ATOM     19  H   UNL     1      -0.879   9.872  24.462  0.00  0.00    +0.000 HD
ENDBRANCH   7  10
ENDBRANCH   3   5
BRANCH   1  20
ATOM     20  C   UNL     1       3.649   4.206  19.105  0.00  0.00    +0.000 C 
BRANCH  20  25
ATOM     21  C   UNL     1       6.830   4.618  17.040  0.00  0.00    +0.000 A 
ATOM     22  C   UNL     1       7.659   5.312  17.921  0.00  0.00    +0.000 A 
ATOM     23  C   UNL     1       7.204   5.614  19.200  0.00  0.00    +0.000 A 
ATOM     24  C   UNL     1       5.921   5.232  19.588  0.00  0.00    +0.000 A 
ATOM     25  C   UNL     1       5.061   4.569  18.697  0.00  0.00    +0.000 A 
ATOM     26  C   UNL     1       5.543   4.240  17.423  0.00  0.00    +0.000 A 
BRANCH  21  27
ATOM     27  N   UNL     1       7.340   4.214  15.776  0.00  0.00    +0.000 N 
ATOM     28  H   UNL     1       7.387   3.211  15.601  0.00  0.00    +0.000 HD
BRANCH  27  30
ATOM     29  C   UNL     1       6.187   3.780  13.361  0.00  0.00    +0.000 C 
ATOM     30  S   UNL     1       6.826   5.072  14.413  0.00  0.00    +0.000 S 
ATOM     31  O   UNL     1       8.030   5.575  13.790  0.00  0.00    +0.000 OA
ATOM     32  O   UNL     1       5.740   5.955  14.776  0.00  0.00    +0.000 OA
ENDBRANCH  27  30
ENDBRANCH  21  27
ENDBRANCH  20  25
ENDBRANCH   1  20
TORSDOF 6
ENDMDL
MODEL 3
REMARK VINA RESULT:      -8.0      1.061      1.246
REMARK  Name = 
REMARK  7 active torsions:
REMARK  status: ('A' for Active; 'I' for Inactive)
REMARK    1  A    between atoms: C_1  and  S_2
REMARK    2  A    between atoms: S_2  and  N_5
REMARK    3  A    between atoms: N_5  and  C_6
REMARK    4  A    between atoms: C_10  and  C_11
REMARK    5  A    between atoms: C_11  and  C_12
REMARK    6  A    between atoms: N_14  and  C_15
REMARK    7  A    between atoms: C_17  and  C_18
REMARK                            x       y       z     vdW  Elec       q    Type
REMARK                         _______ _______ _______ _____ _____    ______ ____
ROOT
ATOM      1  C   UNL     1       1.795   8.066  19.572  0.00  0.00    +0.000 C 
ATOM      2  O   UNL     1       2.055   8.360  18.405  0.00  0.00    +0.000 OA
ATOM      3  N   UNL     1       0.891   8.760  20.361  0.00  0.00    +0.000 N 
ATOM      4  H   UNL     1       1.044   8.805  21.360  0.00  0.00    +0.000 HD
ENDROOT
BRANCH   3   5
ATOM      5  C   UNL     1       0.195   9.798  19.785  0.00  0.00    +0.000 A 
ATOM      6  C   UNL     1      -1.000   9.811  19.107  0.00  0.00    +0.000 A 
ATOM      7  C   UNL     1      -1.263  11.082  18.519  0.00  0.00    +0.000 A 
ATOM      8  C   UNL     1      -0.237  11.970  18.778  0.00  0.00    +0.000 A 
ATOM      9  S   UNL     1       0.931  11.318  19.860  0.00  0.00    +0.000 S 
BRANCH   7  10
ATOM     10  C   UNL     1      -2.468  11.331  17.719  0.00  0.00    +0.000 A 
ATOM     11  C   UNL     1      -2.602  11.120  16.355  0.00  0.00    +0.000 A 
ATOM     12  N   UNL     1      -3.888  11.450  16.006  0.00  0.00    +0.000 N 
ATOM     13  C   UNL     1      -4.580  11.858  17.112  0.00  0.00    +0.000 A 
ATOM     14  N   UNL     1      -5.872  12.234  17.091  0.00  0.00    +0.000 NA
ATOM     15  C   UNL     1      -6.338  12.582  18.311  0.00  0.00    +0.000 A 
ATOM     16  C   UNL     1      -5.607  12.564  19.490  0.00  0.00    +0.000 A 
ATOM     17  C   UNL     1      -4.272  12.159  19.454  0.00  0.00    +0.000 A 
ATOM     18  C   UNL     1      -3.725  11.797  18.210  0.00  0.00    +0.000 A 
ATOM     19  H   UNL     1      -4.291  11.398  15.083  0.00  0.00    +0.000 HD
ENDBRANCH   7  10
ENDBRANCH   3   5
BRANCH   1  20
ATOM     20  C   UNL     1       2.518   6.935  20.294  0.00  0.00    +0.000 C 
BRANCH  20  25
ATOM     21  C   UNL     1       4.608   4.309  18.481  0.00  0.00    +0.000 A 
ATOM     22  C   UNL     1       3.651   3.673  17.690  0.00  0.00    +0.000 A 
ATOM     23  C   UNL     1       2.334   4.119  17.713  0.00  0.00    +0.000 A 
ATOM     24  C   UNL     1       1.977   5.188  18.533  0.00  0.00    +0.000 A 
ATOM     25  C   UNL     1       2.922   5.811  19.364  0.00  0.00    +0.000 A 
ATOM     26  C   UNL     1       4.253   5.376  19.308  0.00  0.00    +0.000 A 
BRANCH  21  27
ATOM     27  N   UNL     1       5.972   3.924  18.369  0.00  0.00    +0.000 N 
ATOM     28  H   UNL     1       6.195   2.956  18.601  0.00  0.00    +0.000 HD
BRANCH  27  30
ATOM     29  C   UNL     1       6.524   6.223  17.045  0.00  0.00    +0.000 C 
ATOM     30  S   UNL     1       6.831   4.465  17.018  0.00  0.00    +0.000 S 
ATOM     31  O   UNL     1       6.135   3.927  15.869  0.00  0.00    +0.000 OA
ATOM     32  O   UNL     1       8.245   4.237  17.217  0.00  0.00    +0.000 OA
ENDBRANCH  27  30
ENDBRANCH  21  27
ENDBRANCH  20  25
ENDBRANCH   1  20
TORSDOF 6
ENDMDL
MODEL 4
REMARK VINA RESULT:      -8.0      3.107      4.754
REMARK  Name = 
REMARK  7 active torsions:
REMARK  status: ('A' for Active; 'I' for Inactive)
REMARK    1  A    between atoms: C_1  and  S_2
REMARK    2  A    between atoms: S_2  and  N_5
REMARK    3  A    between atoms: N_5  and  C_6
REMARK    4  A    between atoms: C_10  and  C_11
REMARK    5  A    between atoms: C_11  and  C_12
REMARK    6  A    between atoms: N_14  and  C_15
REMARK    7  A    between atoms: C_17  and  C_18
REMARK                            x       y       z     vdW  Elec       q    Type
REMARK                         _______ _______ _______ _____ _____    ______ ____
ROOT
ATOM      1  C   UNL     1       1.887   8.130  19.394  0.00  0.00    +0.000 C 
ATOM      2  O   UNL     1       2.467   8.440  18.353  0.00  0.00    +0.000 OA
ATOM      3  N   UNL     1       0.959   8.940  20.032  0.00  0.00    +0.000 N 
ATOM      4  H   UNL     1       0.874   8.890  21.039  0.00  0.00    +0.000 HD
ENDROOT
BRANCH   3   5
ATOM      5  C   UNL     1       0.620  10.131  19.431  0.00  0.00    +0.000 A 
ATOM      6  C   UNL     1       1.137  11.394  19.587  0.00  0.00    +0.000 A 
ATOM      7  C   UNL     1       0.363  12.373  18.898  0.00  0.00    +0.000 A 
ATOM      8  C   UNL     1      -0.716  11.792  18.259  0.00  0.00    +0.000 A 
ATOM      9  S   UNL     1      -0.680  10.074  18.353  0.00  0.00    +0.000 S 
BRANCH   7  10
ATOM     10  C   UNL     1       0.702  13.800  18.942  0.00  0.00    +0.000 A 
ATOM     11  C   UNL     1      -0.143  14.830  19.328  0.00  0.00    +0.000 A 
ATOM     12  N   UNL     1       0.568  16.002  19.254  0.00  0.00    +0.000 N 
ATOM     13  C   UNL     1       1.845  15.747  18.839  0.00  0.00    +0.000 A 
ATOM     14  N   UNL     1       2.786  16.696  18.682  0.00  0.00    +0.000 NA
ATOM     15  C   UNL     1       3.973  16.197  18.275  0.00  0.00    +0.000 A 
ATOM     16  C   UNL     1       4.248  14.858  18.038  0.00  0.00    +0.000 A 
ATOM     17  C   UNL     1       3.236  13.915  18.223  0.00  0.00    +0.000 A 
ATOM     18  C   UNL     1       1.972  14.375  18.633  0.00  0.00    +0.000 A 
ATOM     19  H   UNL     1       0.227  16.924  19.477  0.00  0.00    +0.000 HD
ENDBRANCH   7  10
ENDBRANCH   3   5
BRANCH   1  20
ATOM     20  C   UNL     1       2.199   6.835  20.132  0.00  0.00    +0.000 C 
BRANCH  20  25
ATOM     21  C   UNL     1       4.613   4.355  18.525  0.00  0.00    +0.000 A 
ATOM     22  C   UNL     1       3.799   3.729  17.582  0.00  0.00    +0.000 A 
ATOM     23  C   UNL     1       2.477   4.136  17.436  0.00  0.00    +0.000 A 
ATOM     24  C   UNL     1       1.972   5.155  18.240  0.00  0.00    +0.000 A 
ATOM     25  C   UNL     1       2.769   5.766  19.223  0.00  0.00    +0.000 A 
ATOM     26  C   UNL     1       4.109   5.372  19.337  0.00  0.00    +0.000 A 
BRANCH  21  27
ATOM     27  N   UNL     1       5.991   4.014  18.592  0.00  0.00    +0.000 N 
ATOM     28  H   UNL     1       6.224   3.026  18.493  0.00  0.00    +0.000 HD
BRANCH  27  30
ATOM     29  C   UNL     1       7.828   5.941  19.099  0.00  0.00    +0.000 C 
ATOM     30  S   UNL     1       7.085   5.008  17.772  0.00  0.00    +0.000 S 
ATOM     31  O   UNL     1       6.276   5.929  17.003  0.00  0.00    +0.000 OA
ATOM     32  O   UNL     1       8.105   4.197  17.146  0.00  0.00    +0.000 OA
ENDBRANCH  27  30
ENDBRANCH  21  27
ENDBRANCH  20  25
ENDBRANCH   1  20
TORSDOF 6
ENDMDL
MODEL 5
REMARK VINA RESULT:      -7.9      4.547     10.683
REMARK  Name = 
REMARK  7 active torsions:
REMARK  status: ('A' for Active; 'I' for Inactive)
REMARK    1  A    between atoms: C_1  and  S_2
REMARK    2  A    between atoms: S_2  and  N_5
REMARK    3  A    between atoms: N_5  and  C_6
REMARK    4  A    between atoms: C_10  and  C_11
REMARK    5  A    between atoms: C_11  and  C_12
REMARK    6  A    between atoms: N_14  and  C_15
REMARK    7  A    between atoms: C_17  and  C_18
REMARK                            x       y       z     vdW  Elec       q    Type
REMARK                         _______ _______ _______ _____ _____    ______ ____
ROOT
ATOM      1  C   UNL     1      -0.106   9.055  21.852  0.00  0.00    +0.000 C 
ATOM      2  O   UNL     1      -0.793   8.099  21.490  0.00  0.00    +0.000 OA
ATOM      3  N   UNL     1       1.055   9.460  21.211  0.00  0.00    +0.000 N 
ATOM      4  H   UNL     1       1.793   9.888  21.754  0.00  0.00    +0.000 HD
ENDROOT
BRANCH   3   5
ATOM      5  C   UNL     1       1.424   8.794  20.064  0.00  0.00    +0.000 A 
ATOM      6  C   UNL     1       2.004   7.562  19.889  0.00  0.00    +0.000 A 
ATOM      7  C   UNL     1       2.383   7.341  18.533  0.00  0.00    +0.000 A 
ATOM      8  C   UNL     1       2.074   8.435  17.747  0.00  0.00    +0.000 A 
ATOM      9  S   UNL     1       1.184   9.627  18.613  0.00  0.00    +0.000 S 
BRANCH   7  10
ATOM     10  C   UNL     1       3.050   6.105  18.106  0.00  0.00    +0.000 A 
ATOM     11  C   UNL     1       2.482   4.840  18.069  0.00  0.00    +0.000 A 
ATOM     12  N   UNL     1       3.430   3.973  17.585  0.00  0.00    +0.000 N 
ATOM     13  C   UNL     1       4.583   4.650  17.304  0.00  0.00    +0.000 A 
ATOM     14  N   UNL     1       5.689   4.073  16.802  0.00  0.00    +0.000 NA
ATOM     15  C   UNL     1       6.695   4.951  16.598  0.00  0.00    +0.000 A 
ATOM     16  C   UNL     1       6.641   6.314  16.854  0.00  0.00    +0.000 A 
ATOM     17  C   UNL     1       5.465   6.861  17.369  0.00  0.00    +0.000 A 
ATOM     18  C   UNL     1       4.386   5.994  17.616  0.00  0.00    +0.000 A 
ATOM     19  H   UNL     1       3.315   2.982  17.437  0.00  0.00    +0.000 HD
ENDBRANCH   7  10
ENDBRANCH   3   5
BRANCH   1  20
ATOM     20  C   UNL     1      -0.435   9.849  23.111  0.00  0.00    +0.000 C 
BRANCH  20  25
ATOM     21  C   UNL     1      -2.467  13.074  23.248  0.00  0.00    +0.000 A 
ATOM     22  C   UNL     1      -1.825  13.862  22.293  0.00  0.00    +0.000 A 
ATOM     23  C   UNL     1      -0.757  13.336  21.574  0.00  0.00    +0.000 A 
ATOM     24  C   UNL     1      -0.329  12.033  21.820  0.00  0.00    +0.000 A 
ATOM     25  C   UNL     1      -0.940  11.244  22.808  0.00  0.00    +0.000 A 
ATOM     26  C   UNL     1      -2.037  11.771  23.503  0.00  0.00    +0.000 A 
BRANCH  21  27
ATOM     27  N   UNL     1      -3.627  13.576  23.900  0.00  0.00    +0.000 N 
ATOM     28  H   UNL     1      -3.701  14.589  23.987  0.00  0.00    +0.000 HD
BRANCH  27  30
ATOM     29  C   UNL     1      -6.240  14.239  23.622  0.00  0.00    +0.000 C 
ATOM     30  S   UNL     1      -5.111  12.862  23.516  0.00  0.00    +0.000 S 
ATOM     31  O   UNL     1      -5.415  11.974  24.617  0.00  0.00    +0.000 OA
ATOM     32  O   UNL     1      -5.083  12.387  22.151  0.00  0.00    +0.000 OA
ENDBRANCH  27  30
ENDBRANCH  21  27
ENDBRANCH  20  25
ENDBRANCH   1  20
TORSDOF 6
ENDMDL
MODEL 6
REMARK VINA RESULT:      -7.9      1.408      2.165
REMARK  Name = 
REMARK  7 active torsions:
REMARK  status: ('A' for Active; 'I' for Inactive)
REMARK    1  A    between atoms: C_1  and  S_2
REMARK    2  A    between atoms: S_2  and  N_5
REMARK    3  A    between atoms: N_5  and  C_6
REMARK    4  A    between atoms: C_10  and  C_11
REMARK    5  A    between atoms: C_11  and  C_12
REMARK    6  A    between atoms: N_14  and  C_15
REMARK    7  A    between atoms: C_17  and  C_18
REMARK                            x       y       z     vdW  Elec       q    Type
REMARK                         _______ _______ _______ _____ _____    ______ ____
ROOT
ATOM      1  C   UNL     1       2.190   7.592  19.794  0.00  0.00    +0.000 C 
ATOM      2  O   UNL     1       2.281   8.123  18.687  0.00  0.00    +0.000 OA
ATOM      3  N   UNL     1       1.444   8.111  20.841  0.00  0.00    +0.000 N 
ATOM      4  H   UNL     1       1.749   7.944  21.791  0.00  0.00    +0.000 HD
ENDROOT
BRANCH   3   5
ATOM      5  C   UNL     1       0.711   9.253  20.608  0.00  0.00    +0.000 A 
ATOM      6  C   UNL     1      -0.482   9.435  19.952  0.00  0.00    +0.000 A 
ATOM      7  C   UNL     1      -0.791  10.816  19.786  0.00  0.00    +0.000 A 
ATOM      8  C   UNL     1       0.201  11.614  20.322  0.00  0.00    +0.000 A 
ATOM      9  S   UNL     1       1.391  10.698  21.163  0.00  0.00    +0.000 S 
BRANCH   7  10
ATOM     10  C   UNL     1      -2.003  11.261  19.087  0.00  0.00    +0.000 A 
ATOM     11  C   UNL     1      -2.909  12.206  19.543  0.00  0.00    +0.000 A 
ATOM     12  N   UNL     1      -3.878  12.351  18.582  0.00  0.00    +0.000 N 
ATOM     13  C   UNL     1      -3.611  11.530  17.523  0.00  0.00    +0.000 A 
ATOM     14  N   UNL     1      -4.377  11.457  16.418  0.00  0.00    +0.000 NA
ATOM     15  C   UNL     1      -3.900  10.582  15.505  0.00  0.00    +0.000 A 
ATOM     16  C   UNL     1      -2.748   9.822  15.639  0.00  0.00    +0.000 A 
ATOM     17  C   UNL     1      -1.988   9.942  16.804  0.00  0.00    +0.000 A 
ATOM     18  C   UNL     1      -2.440  10.828  17.799  0.00  0.00    +0.000 A 
ATOM     19  H   UNL     1      -4.673  12.971  18.621  0.00  0.00    +0.000 HD
ENDBRANCH   7  10
ENDBRANCH   3   5
BRANCH   1  20
ATOM     20  C   UNL     1       2.967   6.329  20.144  0.00  0.00    +0.000 C 
BRANCH  20  25
ATOM     21  C   UNL     1       4.179   3.838  17.522  0.00  0.00    +0.000 A 
ATOM     22  C   UNL     1       2.978   3.377  16.984  0.00  0.00    +0.000 A 
ATOM     23  C   UNL     1       1.774   3.900  17.442  0.00  0.00    +0.000 A 
ATOM     24  C   UNL     1       1.775   4.872  18.441  0.00  0.00    +0.000 A 
ATOM     25  C   UNL     1       2.975   5.315  19.020  0.00  0.00    +0.000 A 
ATOM     26  C   UNL     1       4.184   4.805  18.527  0.00  0.00    +0.000 A 
BRANCH  21  27
ATOM     27  N   UNL     1       5.409   3.383  16.972  0.00  0.00    +0.000 N 
ATOM     28  H   UNL     1       5.424   2.429  16.612  0.00  0.00    +0.000 HD
BRANCH  27  30
ATOM     29  C   UNL     1       5.168   5.853  15.883  0.00  0.00    +0.000 C 
ATOM     30  S   UNL     1       6.266   4.450  15.981  0.00  0.00    +0.000 S 
ATOM     31  O   UNL     1       6.292   3.834  14.672  0.00  0.00    +0.000 OA
ATOM     32  O   UNL     1       7.484   4.858  16.645  0.00  0.00    +0.000 OA
ENDBRANCH  27  30
ENDBRANCH  21  27
ENDBRANCH  20  25
ENDBRANCH   1  20
TORSDOF 6
ENDMDL
MODEL 7
REMARK VINA RESULT:      -7.8      1.097      1.203
REMARK  Name = 
REMARK  7 active torsions:
REMARK  status: ('A' for Active; 'I' for Inactive)
REMARK    1  A    between atoms: C_1  and  S_2
REMARK    2  A    between atoms: S_2  and  N_5
REMARK    3  A    between atoms: N_5  and  C_6
REMARK    4  A    between atoms: C_10  and  C_11
REMARK    5  A    between atoms: C_11  and  C_12
REMARK    6  A    between atoms: N_14  and  C_15
REMARK    7  A    between atoms: C_17  and  C_18
REMARK                            x       y       z     vdW  Elec       q    Type
REMARK                         _______ _______ _______ _____ _____    ______ ____
ROOT
ATOM      1  C   UNL     1       1.344   8.767  19.091  0.00  0.00    +0.000 C 
ATOM      2  O   UNL     1       1.311   8.915  17.869  0.00  0.00    +0.000 OA
ATOM      3  N   UNL     1       0.583   9.511  19.980  0.00  0.00    +0.000 N 
ATOM      4  H   UNL     1       0.950   9.699  20.904  0.00  0.00    +0.000 HD
ENDROOT
BRANCH   3   5
ATOM      5  C   UNL     1      -0.309  10.422  19.461  0.00  0.00    +0.000 A 
ATOM      6  C   UNL     1      -1.600  10.263  19.020  0.00  0.00    +0.000 A 
ATOM      7  C   UNL     1      -2.095  11.442  18.390  0.00  0.00    +0.000 A 
ATOM      8  C   UNL     1      -1.137  12.438  18.379  0.00  0.00    +0.000 A 
ATOM      9  S   UNL     1       0.267  12.000  19.273  0.00  0.00    +0.000 S 
BRANCH   7  10
ATOM     10  C   UNL     1      -3.442  11.504  17.811  0.00  0.00    +0.000 A 
ATOM     11  C   UNL     1      -3.790  11.171  16.511  0.00  0.00    +0.000 A 
ATOM     12  N   UNL     1      -5.146  11.342  16.385  0.00  0.00    +0.000 N 
ATOM     13  C   UNL     1      -5.674  11.768  17.572  0.00  0.00    +0.000 A 
ATOM     14  N   UNL     1      -6.983  12.011  17.766  0.00  0.00    +0.000 NA
ATOM     15  C   UNL     1      -7.263  12.409  19.026  0.00  0.00    +0.000 A 
ATOM     16  C   UNL     1      -6.338  12.560  20.050  0.00  0.00    +0.000 A 
ATOM     17  C   UNL     1      -4.993  12.288  19.794  0.00  0.00    +0.000 A 
ATOM     18  C   UNL     1      -4.637  11.881  18.495  0.00  0.00    +0.000 A 
ATOM     19  H   UNL     1      -5.697  11.175  15.557  0.00  0.00    +0.000 HD
ENDBRANCH   7  10
ENDBRANCH   3   5
BRANCH   1  20
ATOM     20  C   UNL     1       2.301   7.786  19.755  0.00  0.00    +0.000 C 
BRANCH  20  25
ATOM     21  C   UNL     1       4.113   5.740  17.093  0.00  0.00    +0.000 A 
ATOM     22  C   UNL     1       3.481   4.502  17.200  0.00  0.00    +0.000 A 
ATOM     23  C   UNL     1       2.439   4.338  18.107  0.00  0.00    +0.000 A 
ATOM     24  C   UNL     1       2.043   5.405  18.910  0.00  0.00    +0.000 A 
ATOM     25  C   UNL     1       2.699   6.646  18.841  0.00  0.00    +0.000 A 
ATOM     26  C   UNL     1       3.724   6.810  17.900  0.00  0.00    +0.000 A 
BRANCH  21  27
ATOM     27  N   UNL     1       5.099   5.935  16.087  0.00  0.00    +0.000 N 
ATOM     28  H   UNL     1       5.141   6.860  15.661  0.00  0.00    +0.000 HD
BRANCH  27  30
ATOM     29  C   UNL     1       6.736   3.989  15.150  0.00  0.00    +0.000 C 
ATOM     30  S   UNL     1       6.637   5.293  16.364  0.00  0.00    +0.000 S 
ATOM     31  O   UNL     1       6.571   4.663  17.665  0.00  0.00    +0.000 OA
ATOM     32  O   UNL     1       7.641   6.288  16.059  0.00  0.00    +0.000 OA
ENDBRANCH  27  30
ENDBRANCH  21  27
ENDBRANCH  20  25
ENDBRANCH   1  20
TORSDOF 6
ENDMDL
MODEL 8
REMARK VINA RESULT:      -7.8      3.475      9.835
REMARK  Name = 
REMARK  7 active torsions:
REMARK  status: ('A' for Active; 'I' for Inactive)
REMARK    1  A    between atoms: C_1  and  S_2
REMARK    2  A    between atoms: S_2  and  N_5
REMARK    3  A    between atoms: N_5  and  C_6
REMARK    4  A    between atoms: C_10  and  C_11
REMARK    5  A    between atoms: C_11  and  C_12
REMARK    6  A    between atoms: N_14  and  C_15
REMARK    7  A    between atoms: C_17  and  C_18
REMARK                            x       y       z     vdW  Elec       q    Type
REMARK                         _______ _______ _______ _____ _____    ______ ____
ROOT
ATOM      1  C   UNL     1       1.088   7.848  21.263  0.00  0.00    +0.000 C 
ATOM      2  O   UNL     1       2.184   8.310  21.581  0.00  0.00    +0.000 OA
ATOM      3  N   UNL     1       0.919   6.642  20.601  0.00  0.00    +0.000 N 
ATOM      4  H   UNL     1       0.133   6.531  19.975  0.00  0.00    +0.000 HD
ENDROOT
BRANCH   3   5
ATOM      5  C   UNL     1       2.040   5.886  20.342  0.00  0.00    +0.000 A 
ATOM      6  C   UNL     1       3.199   6.198  19.674  0.00  0.00    +0.000 A 
ATOM      7  C   UNL     1       4.026   5.053  19.482  0.00  0.00    +0.000 A 
ATOM      8  C   UNL     1       3.437   3.921  20.012  0.00  0.00    +0.000 A 
ATOM      9  S   UNL     1       1.994   4.283  20.878  0.00  0.00    +0.000 S 
BRANCH   7  10
ATOM     10  C   UNL     1       5.305   5.132  18.766  0.00  0.00    +0.000 A 
ATOM     11  C   UNL     1       6.534   5.456  19.320  0.00  0.00    +0.000 A 
ATOM     12  N   UNL     1       7.472   5.389  18.321  0.00  0.00    +0.000 N 
ATOM     13  C   UNL     1       6.877   5.022  17.147  0.00  0.00    +0.000 A 
ATOM     14  N   UNL     1       7.542   4.859  15.988  0.00  0.00    +0.000 NA
ATOM     15  C   UNL     1       6.739   4.482  14.970  0.00  0.00    +0.000 A 
ATOM     16  C   UNL     1       5.371   4.265  15.057  0.00  0.00    +0.000 A 
ATOM     17  C   UNL     1       4.734   4.443  16.286  0.00  0.00    +0.000 A 
ATOM     18  C   UNL     1       5.515   4.849  17.382  0.00  0.00    +0.000 A 
ATOM     19  H   UNL     1       8.460   5.567  18.415  0.00  0.00    +0.000 HD
ENDBRANCH   7  10
ENDBRANCH   3   5
BRANCH   1  20
ATOM     20  C   UNL     1      -0.206   8.616  21.506  0.00  0.00    +0.000 C 
BRANCH  20  25
ATOM     21  C   UNL     1      -0.910  11.031  18.638  0.00  0.00    +0.000 A 
ATOM     22  C   UNL     1      -0.534  12.255  19.191  0.00  0.00    +0.000 A 
ATOM     23  C   UNL     1      -0.014  12.295  20.480  0.00  0.00    +0.000 A 
ATOM     24  C   UNL     1       0.116  11.118  21.214  0.00  0.00    +0.000 A 
ATOM     25  C   UNL     1      -0.297   9.884  20.684  0.00  0.00    +0.000 A 
ATOM     26  C   UNL     1      -0.788   9.850  19.371  0.00  0.00    +0.000 A 
BRANCH  21  27
ATOM     27  N   UNL     1      -1.334  10.980  17.282  0.00  0.00    +0.000 N 
ATOM     28  H   UNL     1      -0.720  10.496  16.628  0.00  0.00    +0.000 HD
BRANCH  27  30
ATOM     29  C   UNL     1      -3.033  10.626  15.200  0.00  0.00    +0.000 C 
ATOM     30  S   UNL     1      -2.965  10.652  16.982  0.00  0.00    +0.000 S 
ATOM     31  O   UNL     1      -3.688  11.825  17.422  0.00  0.00    +0.000 OA
ATOM     32  O   UNL     1      -3.294   9.334  17.479  0.00  0.00    +0.000 OA
ENDBRANCH  27  30
ENDBRANCH  21  27
ENDBRANCH  20  25
ENDBRANCH   1  20
TORSDOF 6
ENDMDL
MODEL 9
REMARK VINA RESULT:      -7.8      4.492      9.494
REMARK  Name = 
REMARK  7 active torsions:
REMARK  status: ('A' for Active; 'I' for Inactive)
REMARK    1  A    between atoms: C_1  and  S_2
REMARK    2  A    between atoms: S_2  and  N_5
REMARK    3  A    between atoms: N_5  and  C_6
REMARK    4  A    between atoms: C_10  and  C_11
REMARK    5  A    between atoms: C_11  and  C_12
REMARK    6  A    between atoms: N_14  and  C_15
REMARK    7  A    between atoms: C_17  and  C_18
REMARK                            x       y       z     vdW  Elec       q    Type
REMARK                         _______ _______ _______ _____ _____    ______ ____
ROOT
ATOM      1  C   UNL     1      -0.095   8.984  21.803  0.00  0.00    +0.000 C 
ATOM      2  O   UNL     1      -0.761   8.023  21.418  0.00  0.00    +0.000 OA
ATOM      3  N   UNL     1       1.064   9.420  21.179  0.00  0.00    +0.000 N 
ATOM      4  H   UNL     1       1.789   9.852  21.737  0.00  0.00    +0.000 HD
ENDROOT
BRANCH   3   5
ATOM      5  C   UNL     1       1.456   8.782  20.025  0.00  0.00    +0.000 A 
ATOM      6  C   UNL     1       2.066   7.566  19.834  0.00  0.00    +0.000 A 
ATOM      7  C   UNL     1       2.457   7.376  18.477  0.00  0.00    +0.000 A 
ATOM      8  C   UNL     1       2.127   8.474  17.707  0.00  0.00    +0.000 A 
ATOM      9  S   UNL     1       1.205   9.632  18.585  0.00  0.00    +0.000 S 
BRANCH   7  10
ATOM     10  C   UNL     1       3.155   6.163  18.034  0.00  0.00    +0.000 A 
ATOM     11  C   UNL     1       4.405   6.111  17.437  0.00  0.00    +0.000 A 
ATOM     12  N   UNL     1       4.702   4.791  17.207  0.00  0.00    +0.000 N 
ATOM     13  C   UNL     1       3.680   3.999  17.647  0.00  0.00    +0.000 A 
ATOM     14  N   UNL     1       3.684   2.655  17.571  0.00  0.00    +0.000 NA
ATOM     15  C   UNL     1       2.567   2.095  18.083  0.00  0.00    +0.000 A 
ATOM     16  C   UNL     1       1.503   2.785  18.647  0.00  0.00    +0.000 A 
ATOM     17  C   UNL     1       1.554   4.179  18.706  0.00  0.00    +0.000 A 
ATOM     18  C   UNL     1       2.687   4.821  18.176  0.00  0.00    +0.000 A 
ATOM     19  H   UNL     1       5.546   4.431  16.787  0.00  0.00    +0.000 HD
ENDBRANCH   7  10
ENDBRANCH   3   5
BRANCH   1  20
ATOM     20  C   UNL     1      -0.449   9.748  23.072  0.00  0.00    +0.000 C 
BRANCH  20  25
ATOM     21  C   UNL     1      -0.998  13.219  21.586  0.00  0.00    +0.000 A 
ATOM     22  C   UNL     1      -2.180  13.617  22.210  0.00  0.00    +0.000 A 
ATOM     23  C   UNL     1      -2.781  12.779  23.143  0.00  0.00    +0.000 A 
ATOM     24  C   UNL     1      -2.206  11.545  23.439  0.00  0.00    +0.000 A 
ATOM     25  C   UNL     1      -1.038  11.114  22.788  0.00  0.00    +0.000 A 
ATOM     26  C   UNL     1      -0.422  11.981  21.875  0.00  0.00    +0.000 A 
BRANCH  21  27
ATOM     27  N   UNL     1      -0.327  14.125  20.719  0.00  0.00    +0.000 N 
ATOM     28  H   UNL     1      -0.891  14.871  20.312  0.00  0.00    +0.000 HD
BRANCH  27  30
ATOM     29  C   UNL     1       1.286  16.284  20.431  0.00  0.00    +0.000 C 
ATOM     30  S   UNL     1       1.203  14.669  21.186  0.00  0.00    +0.000 S 
ATOM     31  O   UNL     1       2.149  13.823  20.492  0.00  0.00    +0.000 OA
ATOM     32  O   UNL     1       1.245  14.825  22.623  0.00  0.00    +0.000 OA
ENDBRANCH  27  30
ENDBRANCH  21  27
ENDBRANCH  20  25
ENDBRANCH   1  20
TORSDOF 6
ENDMDL
