MODEL 1
REMARK VINA RESULT:      -6.9      0.000      0.000
REMARK  Name = 
REMARK  1 active torsions:
REMARK  status: ('A' for Active; 'I' for Inactive)
REMARK    1  A    between atoms: C_6  and  C_7
REMARK                            x       y       z     vdW  Elec       q    Type
REMARK                         _______ _______ _______ _____ _____    ______ ____
ROOT
ATOM      1  O   UNL     1       7.396   5.060  14.564  0.00  0.00    +0.000 OA
ATOM      2  C   UNL     1       6.924   5.143  15.684  0.00  0.00    +0.000 C 
ATOM      3  N   UNL     1       7.496   4.681  16.804  0.00  0.00    +0.000 N 
ATOM      4  C   UNL     1       6.702   4.897  17.870  0.00  0.00    +0.000 C 
ATOM      5  O   UNL     1       6.974   4.595  19.022  0.00  0.00    +0.000 OA
ATOM      6  C   UNL     1       5.447   5.576  17.371  0.00  0.00    +0.000 C 
ATOM      7  O   UNL     1       5.732   5.730  15.967  0.00  0.00    +0.000 OA
ATOM      8  H   UNL     1       8.392   4.224  16.831  0.00  0.00    +0.000 HD
ENDROOT
BRANCH   6   9
ATOM      9  C   UNL     1       4.178   4.782  17.606  0.00  0.00    +0.000 A 
ATOM     10  C   UNL     1       2.993   5.445  17.978  0.00  0.00    +0.000 A 
ATOM     11  C   UNL     1       1.816   4.726  18.209  0.00  0.00    +0.000 A 
ATOM     12  C   UNL     1       1.815   3.346  18.060  0.00  0.00    +0.000 A 
ATOM     13  F   UNL     1       0.688   2.656  18.290  0.00  0.00    +0.000 F 
ATOM     14  C   UNL     1       2.964   2.670  17.675  0.00  0.00    +0.000 A 
ATOM     15  C   UNL     1       4.140   3.386  17.444  0.00  0.00    +0.000 A 
ENDBRANCH   6   9
TORSDOF 1
ENDMDL
MODEL 2
REMARK VINA RESULT:      -6.8      0.863      1.550
REMARK  Name = 
REMARK  1 active torsions:
REMARK  status: ('A' for Active; 'I' for Inactive)
REMARK    1  A    between atoms: C_6  and  C_7
REMARK                            x       y       z     vdW  Elec       q    Type
REMARK                         _______ _______ _______ _____ _____    ______ ____
ROOT
ATOM      1  O   UNL     1       6.736   3.865  14.306  0.00  0.00    +0.000 OA
ATOM      2  C   UNL     1       6.312   4.214  15.394  0.00  0.00    +0.000 C 
ATOM      3  N   UNL     1       6.954   4.065  16.561  0.00  0.00    +0.000 N 
ATOM      4  C   UNL     1       6.201   4.520  17.581  0.00  0.00    +0.000 C 
ATOM      5  O   UNL     1       6.537   4.526  18.756  0.00  0.00    +0.000 OA
ATOM      6  C   UNL     1       4.898   5.016  16.997  0.00  0.00    +0.000 C 
ATOM      7  O   UNL     1       5.111   4.820  15.586  0.00  0.00    +0.000 OA
ATOM      8  H   UNL     1       7.867   3.655  16.652  0.00  0.00    +0.000 HD
ENDROOT
BRANCH   6   9
ATOM      9  C   UNL     1       3.674   4.272  17.492  0.00  0.00    +0.000 A 
ATOM     10  C   UNL     1       3.699   2.868  17.594  0.00  0.00    +0.000 A 
ATOM     11  C   UNL     1       2.574   2.166  18.039  0.00  0.00    +0.000 A 
ATOM     12  C   UNL     1       1.426   2.861  18.391  0.00  0.00    +0.000 A 
ATOM     13  F   UNL     1       0.346   2.187  18.810  0.00  0.00    +0.000 F 
ATOM     14  C   UNL     1       1.381   4.246  18.319  0.00  0.00    +0.000 A 
ATOM     15  C   UNL     1       2.503   4.950  17.875  0.00  0.00    +0.000 A 
ENDBRANCH   6   9
TORSDOF 1
ENDMDL
MODEL 3
REMARK VINA RESULT:      -6.7      0.754      1.398
REMARK  Name = 
REMARK  1 active torsions:
REMARK  status: ('A' for Active; 'I' for Inactive)
REMARK    1  A    between atoms: C_6  and  C_7
REMARK                            x       y       z     vdW  Elec       q    Type
REMARK                         _______ _______ _______ _____ _____    ______ ____
ROOT
ATOM      1  O   UNL     1       7.480   5.407  15.316  0.00  0.00    +0.000 OA
ATOM      2  C   UNL     1       6.883   5.532  16.371  0.00  0.00    +0.000 C 
ATOM      3  N   UNL     1       7.358   5.192  17.577  0.00  0.00    +0.000 N 
ATOM      4  C   UNL     1       6.439   5.422  18.535  0.00  0.00    +0.000 C 
ATOM      5  O   UNL     1       6.602   5.221  19.729  0.00  0.00    +0.000 OA
ATOM      6  C   UNL     1       5.205   5.972  17.856  0.00  0.00    +0.000 C 
ATOM      7  O   UNL     1       5.631   6.049  16.483  0.00  0.00    +0.000 OA
ATOM      8  H   UNL     1       8.273   4.804  17.732  0.00  0.00    +0.000 HD
ENDROOT
BRANCH   6   9
ATOM      9  C   UNL     1       3.972   5.105  18.017  0.00  0.00    +0.000 A 
ATOM     10  C   UNL     1       3.808   3.960  17.216  0.00  0.00    +0.000 A 
ATOM     11  C   UNL     1       2.671   3.156  17.344  0.00  0.00    +0.000 A 
ATOM     12  C   UNL     1       1.700   3.486  18.278  0.00  0.00    +0.000 A 
ATOM     13  F   UNL     1       0.606   2.720  18.395  0.00  0.00    +0.000 F 
ATOM     14  C   UNL     1       1.845   4.599  19.095  0.00  0.00    +0.000 A 
ATOM     15  C   UNL     1       2.980   5.403  18.968  0.00  0.00    +0.000 A 
ENDBRANCH   6   9
TORSDOF 1
ENDMDL
MODEL 4
REMARK VINA RESULT:      -6.7      1.185      1.435
REMARK  Name = 
REMARK  1 active torsions:
REMARK  status: ('A' for Active; 'I' for Inactive)
REMARK    1  A    between atoms: C_6  and  C_7
REMARK                            x       y       z     vdW  Elec       q    Type
REMARK                         _______ _______ _______ _____ _____    ______ ____
ROOT
ATOM      1  O   UNL     1       6.929   4.853  13.984  0.00  0.00    +0.000 OA
ATOM      2  C   UNL     1       6.795   4.897  15.194  0.00  0.00    +0.000 C 
ATOM      3  N   UNL     1       7.725   4.544  16.092  0.00  0.00    +0.000 N 
ATOM      4  C   UNL     1       7.252   4.675  17.347  0.00  0.00    +0.000 C 
ATOM      5  O   UNL     1       7.885   4.440  18.365  0.00  0.00    +0.000 OA
ATOM      6  C   UNL     1       5.826   5.167  17.245  0.00  0.00    +0.000 C 
ATOM      7  O   UNL     1       5.668   5.325  15.822  0.00  0.00    +0.000 OA
ATOM      8  H   UNL     1       8.643   4.212  15.850  0.00  0.00    +0.000 HD
ENDROOT
BRANCH   6   9
ATOM      9  C   UNL     1       4.800   4.214  17.825  0.00  0.00    +0.000 A 
ATOM     10  C   UNL     1       3.746   3.742  17.021  0.00  0.00    +0.000 A 
ATOM     11  C   UNL     1       2.784   2.872  17.544  0.00  0.00    +0.000 A 
ATOM     12  C   UNL     1       2.877   2.462  18.866  0.00  0.00    +0.000 A 
ATOM     13  F   UNL     1       1.951   1.634  19.369  0.00  0.00    +0.000 F 
ATOM     14  C   UNL     1       3.917   2.897  19.675  0.00  0.00    +0.000 A 
ATOM     15  C   UNL     1       4.878   3.766  19.155  0.00  0.00    +0.000 A 
ENDBRANCH   6   9
TORSDOF 1
ENDMDL
MODEL 5
REMARK VINA RESULT:      -6.7      2.169      2.209
REMARK  Name = 
REMARK  1 active torsions:
REMARK  status: ('A' for Active; 'I' for Inactive)
REMARK    1  A    between atoms: C_6  and  C_7
REMARK                            x       y       z     vdW  Elec       q    Type
REMARK                         _______ _______ _______ _____ _____    ______ ____
ROOT
ATOM      1  O   UNL     1       5.949   3.699  15.642  0.00  0.00    +0.000 OA
ATOM      2  C   UNL     1       5.782   4.236  16.723  0.00  0.00    +0.000 C 
ATOM      3  N   UNL     1       6.709   4.351  17.684  0.00  0.00    +0.000 N 
ATOM      4  C   UNL     1       6.197   4.962  18.770  0.00  0.00    +0.000 C 
ATOM      5  O   UNL     1       6.818   5.215  19.792  0.00  0.00    +0.000 OA
ATOM      6  C   UNL     1       4.747   5.271  18.476  0.00  0.00    +0.000 C 
ATOM      7  O   UNL     1       4.615   4.810  17.118  0.00  0.00    +0.000 OA
ATOM      8  H   UNL     1       7.652   4.011  17.600  0.00  0.00    +0.000 HD
ENDROOT
BRANCH   6   9
ATOM      9  C   UNL     1       3.767   4.581  19.404  0.00  0.00    +0.000 A 
ATOM     10  C   UNL     1       2.699   5.307  19.963  0.00  0.00    +0.000 A 
ATOM     11  C   UNL     1       1.792   4.689  20.829  0.00  0.00    +0.000 A 
ATOM     12  C   UNL     1       1.942   3.343  21.132  0.00  0.00    +0.000 A 
ATOM     13  F   UNL     1       1.077   2.752  21.969  0.00  0.00    +0.000 F 
ATOM     14  C   UNL     1       2.975   2.599  20.580  0.00  0.00    +0.000 A 
ATOM     15  C   UNL     1       3.882   3.215  19.715  0.00  0.00    +0.000 A 
ENDBRANCH   6   9
TORSDOF 1
ENDMDL
MODEL 6
REMARK VINA RESULT:      -6.6      1.394      1.987
REMARK  Name = 
REMARK  1 active torsions:
REMARK  status: ('A' for Active; 'I' for Inactive)
REMARK    1  A    between atoms: C_6  and  C_7
REMARK                            x       y       z     vdW  Elec       q    Type
REMARK                         _______ _______ _______ _____ _____    ______ ____
ROOT
ATOM      1  O   UNL     1       7.727   7.900  17.301  0.00  0.00    +0.000 OA
ATOM      2  C   UNL     1       7.334   6.764  17.100  0.00  0.00    +0.000 C 
ATOM      3  N   UNL     1       7.404   6.115  15.930  0.00  0.00    +0.000 N 
ATOM      4  C   UNL     1       6.849   4.891  16.029  0.00  0.00    +0.000 C 
ATOM      5  O   UNL     1       6.785   4.072  15.124  0.00  0.00    +0.000 OA
ATOM      6  C   UNL     1       6.344   4.735  17.445  0.00  0.00    +0.000 C 
ATOM      7  O   UNL     1       6.763   5.975  18.047  0.00  0.00    +0.000 OA
ATOM      8  H   UNL     1       7.805   6.504  15.094  0.00  0.00    +0.000 HD
ENDROOT
BRANCH   6   9
ATOM      9  C   UNL     1       4.846   4.534  17.550  0.00  0.00    +0.000 A 
ATOM     10  C   UNL     1       4.010   5.623  17.860  0.00  0.00    +0.000 A 
ATOM     11  C   UNL     1       2.627   5.452  17.970  0.00  0.00    +0.000 A 
ATOM     12  C   UNL     1       2.072   4.197  17.763  0.00  0.00    +0.000 A 
ATOM     13  F   UNL     1       0.747   4.032  17.878  0.00  0.00    +0.000 F 
ATOM     14  C   UNL     1       2.871   3.110  17.438  0.00  0.00    +0.000 A 
ATOM     15  C   UNL     1       4.252   3.279  17.327  0.00  0.00    +0.000 A 
ENDBRANCH   6   9
TORSDOF 1
ENDMDL
MODEL 7
REMARK VINA RESULT:      -6.6      1.651      2.382
REMARK  Name = 
REMARK  1 active torsions:
REMARK  status: ('A' for Active; 'I' for Inactive)
REMARK    1  A    between atoms: C_6  and  C_7
REMARK                            x       y       z     vdW  Elec       q    Type
REMARK                         _______ _______ _______ _____ _____    ______ ____
ROOT
ATOM      1  O   UNL     1       8.207   4.205  17.239  0.00  0.00    +0.000 OA
ATOM      2  C   UNL     1       7.114   4.604  16.879  0.00  0.00    +0.000 C 
ATOM      3  N   UNL     1       6.842   5.845  16.453  0.00  0.00    +0.000 N 
ATOM      4  C   UNL     1       5.532   5.975  16.166  0.00  0.00    +0.000 C 
ATOM      5  O   UNL     1       5.002   6.991  15.742  0.00  0.00    +0.000 OA
ATOM      6  C   UNL     1       4.870   4.647  16.455  0.00  0.00    +0.000 C 
ATOM      7  O   UNL     1       5.993   3.836  16.851  0.00  0.00    +0.000 OA
ATOM      8  H   UNL     1       7.528   6.576  16.377  0.00  0.00    +0.000 HD
ENDROOT
BRANCH   6   9
ATOM      9  C   UNL     1       3.808   4.707  17.535  0.00  0.00    +0.000 A 
ATOM     10  C   UNL     1       2.600   4.003  17.373  0.00  0.00    +0.000 A 
ATOM     11  C   UNL     1       1.607   4.057  18.356  0.00  0.00    +0.000 A 
ATOM     12  C   UNL     1       1.818   4.804  19.506  0.00  0.00    +0.000 A 
ATOM     13  F   UNL     1       0.861   4.862  20.443  0.00  0.00    +0.000 F 
ATOM     14  C   UNL     1       3.007   5.492  19.699  0.00  0.00    +0.000 A 
ATOM     15  C   UNL     1       4.001   5.440  18.720  0.00  0.00    +0.000 A 
ENDBRANCH   6   9
TORSDOF 1
ENDMDL
MODEL 8
REMARK VINA RESULT:      -6.6      2.158      2.560
REMARK  Name = 
REMARK  1 active torsions:
REMARK  status: ('A' for Active; 'I' for Inactive)
REMARK    1  A    between atoms: C_6  and  C_7
REMARK                            x       y       z     vdW  Elec       q    Type
REMARK                         _______ _______ _______ _____ _____    ______ ____
ROOT
ATOM      1  O   UNL     1       5.881   3.794  15.648  0.00  0.00    +0.000 OA
ATOM      2  C   UNL     1       5.730   4.313  16.740  0.00  0.00    +0.000 C 
ATOM      3  N   UNL     1       6.662   4.387  17.700  0.00  0.00    +0.000 N 
ATOM      4  C   UNL     1       6.168   4.988  18.800  0.00  0.00    +0.000 C 
ATOM      5  O   UNL     1       6.797   5.206  19.824  0.00  0.00    +0.000 OA
ATOM      6  C   UNL     1       4.725   5.337  18.517  0.00  0.00    +0.000 C 
ATOM      7  O   UNL     1       4.578   4.906  17.150  0.00  0.00    +0.000 OA
ATOM      8  H   UNL     1       7.596   4.026  17.606  0.00  0.00    +0.000 HD
ENDROOT
BRANCH   6   9
ATOM      9  C   UNL     1       3.731   4.652  19.434  0.00  0.00    +0.000 A 
ATOM     10  C   UNL     1       3.883   3.287  19.741  0.00  0.00    +0.000 A 
ATOM     11  C   UNL     1       2.968   2.638  20.577  0.00  0.00    +0.000 A 
ATOM     12  C   UNL     1       1.907   3.351  21.117  0.00  0.00    +0.000 A 
ATOM     13  F   UNL     1       1.026   2.726  21.911  0.00  0.00    +0.000 F 
ATOM     14  C   UNL     1       1.745   4.702  20.846  0.00  0.00    +0.000 A 
ATOM     15  C   UNL     1       2.656   5.352  20.011  0.00  0.00    +0.000 A 
ENDBRANCH   6   9
TORSDOF 1
ENDMDL
MODEL 9
REMARK VINA RESULT:      -6.6      1.315      1.441
REMARK  Name = 
REMARK  1 active torsions:
REMARK  status: ('A' for Active; 'I' for Inactive)
REMARK    1  A    between atoms: C_6  and  C_7
REMARK                            x       y       z     vdW  Elec       q    Type
REMARK                         _______ _______ _______ _____ _____    ______ ____
ROOT
ATOM      1  O   UNL     1       6.257   3.785  14.790  0.00  0.00    +0.000 OA
ATOM      2  C   UNL     1       6.061   4.300  15.876  0.00  0.00    +0.000 C 
ATOM      3  N   UNL     1       6.814   4.116  16.969  0.00  0.00    +0.000 N 
ATOM      4  C   UNL     1       6.309   4.797  18.017  0.00  0.00    +0.000 C 
ATOM      5  O   UNL     1       6.797   4.827  19.137  0.00  0.00    +0.000 OA
ATOM      6  C   UNL     1       5.060   5.502  17.541  0.00  0.00    +0.000 C 
ATOM      7  O   UNL     1       5.037   5.153  16.143  0.00  0.00    +0.000 OA
ATOM      8  H   UNL     1       7.635   3.536  16.996  0.00  0.00    +0.000 HD
ENDROOT
BRANCH   6   9
ATOM      9  C   UNL     1       3.794   5.067  18.251  0.00  0.00    +0.000 A 
ATOM     10  C   UNL     1       3.526   5.526  19.554  0.00  0.00    +0.000 A 
ATOM     11  C   UNL     1       2.368   5.126  20.228  0.00  0.00    +0.000 A 
ATOM     12  C   UNL     1       1.470   4.274  19.601  0.00  0.00    +0.000 A 
ATOM     13  F   UNL     1       0.364   3.884  20.250  0.00  0.00    +0.000 F 
ATOM     14  C   UNL     1       1.700   3.821  18.310  0.00  0.00    +0.000 A 
ATOM     15  C   UNL     1       2.856   4.220  17.635  0.00  0.00    +0.000 A 
ENDBRANCH   6   9
TORSDOF 1
ENDMDL
