MODEL 1
REMARK VINA RESULT:      -7.8      0.000      0.000
REMARK  Name = 
REMARK  6 active torsions:
REMARK  status: ('A' for Active; 'I' for Inactive)
REMARK    1  A    between atoms: C_1  and  O_2
REMARK    2  A    between atoms: O_2  and  C_3
REMARK    3  A    between atoms: C_6  and  C_7
REMARK    4  A    between atoms: N_11  and  C_12
REMARK    5  A    between atoms: C_20  and  O_21
REMARK    6  A    between atoms: O_21  and  C_22
REMARK                            x       y       z     vdW  Elec       q    Type
REMARK                         _______ _______ _______ _____ _____    ______ ____
ROOT
ATOM      1  C   UNL     1       4.038   4.665  18.453  0.00  0.00    +0.000 A 
ATOM      2  C   UNL     1       3.587   3.500  19.041  0.00  0.00    +0.000 A 
ATOM      3  S   UNL     1       2.562   3.874  20.360  0.00  0.00    +0.000 S 
ATOM      4  C   UNL     1       2.718   5.556  20.004  0.00  0.00    +0.000 A 
ATOM      5  N   UNL     1       2.117   6.471  20.799  0.00  0.00    +0.000 N 
ATOM      6  N   UNL     1       3.475   5.821  18.962  0.00  0.00    +0.000 NA
ATOM      7  H   UNL     1       1.721   6.152  21.674  0.00  0.00    +0.000 HD
ENDROOT
BRANCH   1  11
ATOM      8  C   UNL     1       6.846   5.052  15.260  0.00  0.00    +0.000 A 
ATOM      9  C   UNL     1       5.942   3.978  15.294  0.00  0.00    +0.000 A 
ATOM     10  C   UNL     1       5.046   3.831  16.357  0.00  0.00    +0.000 A 
ATOM     11  C   UNL     1       5.067   4.731  17.425  0.00  0.00    +0.000 A 
ATOM     12  C   UNL     1       6.033   5.744  17.430  0.00  0.00    +0.000 A 
ATOM     13  C   UNL     1       6.931   5.911  16.363  0.00  0.00    +0.000 A 
BRANCH   8  15
ATOM     14  C   UNL     1       7.251   4.562  12.987  0.00  0.00    +0.000 C 
ATOM     15  O   UNL     1       7.652   5.253  14.171  0.00  0.00    +0.000 OA
ENDBRANCH   8  15
BRANCH  13  16
ATOM     16  O   UNL     1       7.767   6.975  16.571  0.00  0.00    +0.000 OA
ATOM     17  C   UNL     1       7.693   7.684  17.796  0.00  0.00    +0.000 C 
ENDBRANCH  13  16
ENDBRANCH   1  11
BRANCH   5  18
ATOM     18  C   UNL     1       1.649   7.734  20.393  0.00  0.00    +0.000 A 
ATOM     19  C   UNL     1       1.834   8.228  19.095  0.00  0.00    +0.000 A 
ATOM     20  C   UNL     1       1.363   9.490  18.729  0.00  0.00    +0.000 A 
ATOM     21  C   UNL     1       0.724  10.293  19.669  0.00  0.00    +0.000 A 
ATOM     22  C   UNL     1       0.557   9.833  20.973  0.00  0.00    +0.000 A 
ATOM     23  C   UNL     1       1.013   8.561  21.331  0.00  0.00    +0.000 A 
ENDBRANCH   5  18
TORSDOF 4
ENDMDL
MODEL 2
REMARK VINA RESULT:      -7.7      0.476      1.140
REMARK  Name = 
REMARK  6 active torsions:
REMARK  status: ('A' for Active; 'I' for Inactive)
REMARK    1  A    between atoms: C_1  and  O_2
REMARK    2  A    between atoms: O_2  and  C_3
REMARK    3  A    between atoms: C_6  and  C_7
REMARK    4  A    between atoms: N_11  and  C_12
REMARK    5  A    between atoms: C_20  and  O_21
REMARK    6  A    between atoms: O_21  and  C_22
REMARK                            x       y       z     vdW  Elec       q    Type
REMARK                         _______ _______ _______ _____ _____    ______ ____
ROOT
ATOM      1  C   UNL     1       3.934   5.003  18.564  0.00  0.00    +0.000 A 
ATOM      2  C   UNL     1       3.479   3.918  19.287  0.00  0.00    +0.000 A 
ATOM      3  S   UNL     1       2.429   4.448  20.531  0.00  0.00    +0.000 S 
ATOM      4  C   UNL     1       2.581   6.072  19.967  0.00  0.00    +0.000 A 
ATOM      5  N   UNL     1       1.961   7.076  20.629  0.00  0.00    +0.000 N 
ATOM      6  N   UNL     1       3.356   6.209  18.913  0.00  0.00    +0.000 NA
ATOM      7  H   UNL     1       1.551   6.867  21.530  0.00  0.00    +0.000 HD
ENDROOT
BRANCH   1  11
ATOM      8  C   UNL     1       6.807   5.026  15.406  0.00  0.00    +0.000 A 
ATOM      9  C   UNL     1       5.853   4.001  15.499  0.00  0.00    +0.000 A 
ATOM     10  C   UNL     1       4.934   3.972  16.553  0.00  0.00    +0.000 A 
ATOM     11  C   UNL     1       4.981   4.946  17.554  0.00  0.00    +0.000 A 
ATOM     12  C   UNL     1       5.994   5.911  17.504  0.00  0.00    +0.000 A 
ATOM     13  C   UNL     1       6.916   5.958  16.446  0.00  0.00    +0.000 A 
BRANCH   8  15
ATOM     14  C   UNL     1       7.106   4.574  13.108  0.00  0.00    +0.000 C 
ATOM     15  O   UNL     1       7.639   5.110  14.320  0.00  0.00    +0.000 OA
ENDBRANCH   8  15
BRANCH  13  16
ATOM     16  O   UNL     1       7.798   6.995  16.592  0.00  0.00    +0.000 OA
ATOM     17  C   UNL     1       7.628   7.901  17.669  0.00  0.00    +0.000 C 
ENDBRANCH  13  16
ENDBRANCH   1  11
BRANCH   5  18
ATOM     18  C   UNL     1       1.494   8.274  20.059  0.00  0.00    +0.000 A 
ATOM     19  C   UNL     1       0.668   9.169  20.751  0.00  0.00    +0.000 A 
ATOM     20  C   UNL     1       0.216  10.346  20.151  0.00  0.00    +0.000 A 
ATOM     21  C   UNL     1       0.558  10.630  18.832  0.00  0.00    +0.000 A 
ATOM     22  C   UNL     1       1.353   9.737  18.117  0.00  0.00    +0.000 A 
ATOM     23  C   UNL     1       1.820   8.570  18.728  0.00  0.00    +0.000 A 
ENDBRANCH   5  18
TORSDOF 4
ENDMDL
MODEL 3
REMARK VINA RESULT:      -7.6      3.307      7.352
REMARK  Name = 
REMARK  6 active torsions:
REMARK  status: ('A' for Active; 'I' for Inactive)
REMARK    1  A    between atoms: C_1  and  O_2
REMARK    2  A    between atoms: O_2  and  C_3
REMARK    3  A    between atoms: C_6  and  C_7
REMARK    4  A    between atoms: N_11  and  C_12
REMARK    5  A    between atoms: C_20  and  O_21
REMARK    6  A    between atoms: O_21  and  C_22
REMARK                            x       y       z     vdW  Elec       q    Type
REMARK                         _______ _______ _______ _____ _____    ______ ____
ROOT
ATOM      1  C   UNL     1       2.323   6.532  19.717  0.00  0.00    +0.000 A 
ATOM      2  C   UNL     1       1.924   5.675  20.722  0.00  0.00    +0.000 A 
ATOM      3  S   UNL     1       2.470   4.088  20.383  0.00  0.00    +0.000 S 
ATOM      4  C   UNL     1       3.274   4.667  18.970  0.00  0.00    +0.000 A 
ATOM      5  N   UNL     1       3.921   3.798  18.160  0.00  0.00    +0.000 N 
ATOM      6  N   UNL     1       3.153   5.961  18.770  0.00  0.00    +0.000 NA
ATOM      7  H   UNL     1       3.783   2.809  18.319  0.00  0.00    +0.000 HD
ENDROOT
BRANCH   1  11
ATOM      8  C   UNL     1       0.736  10.464  19.212  0.00  0.00    +0.000 A 
ATOM      9  C   UNL     1       1.445   9.838  18.175  0.00  0.00    +0.000 A 
ATOM     10  C   UNL     1       1.996   8.565  18.351  0.00  0.00    +0.000 A 
ATOM     11  C   UNL     1       1.882   7.913  19.581  0.00  0.00    +0.000 A 
ATOM     12  C   UNL     1       1.256   8.582  20.639  0.00  0.00    +0.000 A 
ATOM     13  C   UNL     1       0.688   9.856  20.473  0.00  0.00    +0.000 A 
BRANCH   8  15
ATOM     14  C   UNL     1      -1.229  11.573  18.520  0.00  0.00    +0.000 C 
ATOM     15  O   UNL     1       0.111  11.665  19.006  0.00  0.00    +0.000 OA
ENDBRANCH   8  15
BRANCH  13  16
ATOM     16  O   UNL     1       0.111  10.305  21.630  0.00  0.00    +0.000 OA
ATOM     17  C   UNL     1      -0.043   9.410  22.719  0.00  0.00    +0.000 C 
ENDBRANCH  13  16
ENDBRANCH   1  11
BRANCH   5  18
ATOM     18  C   UNL     1       5.044   4.092  17.366  0.00  0.00    +0.000 A 
ATOM     19  C   UNL     1       6.292   4.420  17.913  0.00  0.00    +0.000 A 
ATOM     20  C   UNL     1       7.384   4.714  17.095  0.00  0.00    +0.000 A 
ATOM     21  C   UNL     1       7.236   4.716  15.711  0.00  0.00    +0.000 A 
ATOM     22  C   UNL     1       5.996   4.421  15.148  0.00  0.00    +0.000 A 
ATOM     23  C   UNL     1       4.910   4.109  15.970  0.00  0.00    +0.000 A 
ENDBRANCH   5  18
TORSDOF 4
ENDMDL
MODEL 4
REMARK VINA RESULT:      -7.6      3.364      7.370
REMARK  Name = 
REMARK  6 active torsions:
REMARK  status: ('A' for Active; 'I' for Inactive)
REMARK    1  A    between atoms: C_1  and  O_2
REMARK    2  A    between atoms: O_2  and  C_3
REMARK    3  A    between atoms: C_6  and  C_7
REMARK    4  A    between atoms: N_11  and  C_12
REMARK    5  A    between atoms: C_20  and  O_21
REMARK    6  A    between atoms: O_21  and  C_22
REMARK                            x       y       z     vdW  Elec       q    Type
REMARK                         _______ _______ _______ _____ _____    ______ ____
ROOT
ATOM      1  C   UNL     1       2.257   6.459  19.845  0.00  0.00    +0.000 A 
ATOM      2  C   UNL     1       1.809   5.518  20.750  0.00  0.00    +0.000 A 
ATOM      3  S   UNL     1       2.307   3.956  20.258  0.00  0.00    +0.000 S 
ATOM      4  C   UNL     1       3.159   4.647  18.926  0.00  0.00    +0.000 A 
ATOM      5  N   UNL     1       3.791   3.843  18.041  0.00  0.00    +0.000 N 
ATOM      6  N   UNL     1       3.086   5.958  18.858  0.00  0.00    +0.000 NA
ATOM      7  H   UNL     1       3.617   2.848  18.095  0.00  0.00    +0.000 HD
ENDROOT
BRANCH   1  11
ATOM      8  C   UNL     1       0.798  10.472  19.790  0.00  0.00    +0.000 A 
ATOM      9  C   UNL     1       1.273   9.866  18.616  0.00  0.00    +0.000 A 
ATOM     10  C   UNL     1       1.784   8.564  18.640  0.00  0.00    +0.000 A 
ATOM     11  C   UNL     1       1.867   7.862  19.845  0.00  0.00    +0.000 A 
ATOM     12  C   UNL     1       1.478   8.507  21.024  0.00  0.00    +0.000 A 
ATOM     13  C   UNL     1       0.952   9.809  21.014  0.00  0.00    +0.000 A 
BRANCH   8  15
ATOM     14  C   UNL     1      -0.700  11.905  18.661  0.00  0.00    +0.000 C 
ATOM     15  O   UNL     1       0.204  11.706  19.748  0.00  0.00    +0.000 OA
ENDBRANCH   8  15
BRANCH  13  16
ATOM     16  O   UNL     1       0.619  10.228  22.274  0.00  0.00    +0.000 OA
ATOM     17  C   UNL     1      -0.479   9.622  22.937  0.00  0.00    +0.000 C 
ENDBRANCH  13  16
ENDBRANCH   1  11
BRANCH   5  18
ATOM     18  C   UNL     1       4.940   4.176  17.300  0.00  0.00    +0.000 A 
ATOM     19  C   UNL     1       4.944   4.244  15.901  0.00  0.00    +0.000 A 
ATOM     20  C   UNL     1       6.104   4.571  15.197  0.00  0.00    +0.000 A 
ATOM     21  C   UNL     1       7.292   4.803  15.884  0.00  0.00    +0.000 A 
ATOM     22  C   UNL     1       7.316   4.711  17.274  0.00  0.00    +0.000 A 
ATOM     23  C   UNL     1       6.147   4.402  17.976  0.00  0.00    +0.000 A 
ENDBRANCH   5  18
TORSDOF 4
ENDMDL
MODEL 5
REMARK VINA RESULT:      -7.5      1.214      1.274
REMARK  Name = 
REMARK  6 active torsions:
REMARK  status: ('A' for Active; 'I' for Inactive)
REMARK    1  A    between atoms: C_1  and  O_2
REMARK    2  A    between atoms: O_2  and  C_3
REMARK    3  A    between atoms: C_6  and  C_7
REMARK    4  A    between atoms: N_11  and  C_12
REMARK    5  A    between atoms: C_20  and  O_21
REMARK    6  A    between atoms: O_21  and  C_22
REMARK                            x       y       z     vdW  Elec       q    Type
REMARK                         _______ _______ _______ _____ _____    ______ ____
ROOT
ATOM      1  C   UNL     1       3.277   4.665  19.043  0.00  0.00    +0.000 A 
ATOM      2  C   UNL     1       2.566   3.636  19.626  0.00  0.00    +0.000 A 
ATOM      3  S   UNL     1       1.505   4.262  20.815  0.00  0.00    +0.000 S 
ATOM      4  C   UNL     1       1.998   5.866  20.409  0.00  0.00    +0.000 A 
ATOM      5  N   UNL     1       1.501   6.918  21.099  0.00  0.00    +0.000 N 
ATOM      6  N   UNL     1       2.888   5.930  19.443  0.00  0.00    +0.000 NA
ATOM      7  H   UNL     1       0.971   6.726  21.939  0.00  0.00    +0.000 HD
ENDROOT
BRANCH   1  11
ATOM      8  C   UNL     1       6.531   4.471  16.285  0.00  0.00    +0.000 A 
ATOM      9  C   UNL     1       5.217   4.212  15.863  0.00  0.00    +0.000 A 
ATOM     10  C   UNL     1       4.155   4.240  16.773  0.00  0.00    +0.000 A 
ATOM     11  C   UNL     1       4.394   4.488  18.127  0.00  0.00    +0.000 A 
ATOM     12  C   UNL     1       5.716   4.652  18.555  0.00  0.00    +0.000 A 
ATOM     13  C   UNL     1       6.792   4.638  17.651  0.00  0.00    +0.000 A 
BRANCH   8  15
ATOM     14  C   UNL     1       7.154   4.826  14.036  0.00  0.00    +0.000 C 
ATOM     15  O   UNL     1       7.555   4.544  15.378  0.00  0.00    +0.000 OA
ENDBRANCH   8  15
BRANCH  13  16
ATOM     16  O   UNL     1       7.987   4.842  18.287  0.00  0.00    +0.000 OA
ATOM     17  C   UNL     1       8.036   5.710  19.407  0.00  0.00    +0.000 C 
ENDBRANCH  13  16
ENDBRANCH   1  11
BRANCH   5  18
ATOM     18  C   UNL     1       1.313   8.218  20.596  0.00  0.00    +0.000 A 
ATOM     19  C   UNL     1       1.510   8.543  19.247  0.00  0.00    +0.000 A 
ATOM     20  C   UNL     1       1.321   9.846  18.783  0.00  0.00    +0.000 A 
ATOM     21  C   UNL     1       0.961  10.855  19.671  0.00  0.00    +0.000 A 
ATOM     22  C   UNL     1       0.788  10.558  21.022  0.00  0.00    +0.000 A 
ATOM     23  C   UNL     1       0.960   9.248  21.479  0.00  0.00    +0.000 A 
ENDBRANCH   5  18
TORSDOF 4
ENDMDL
MODEL 6
REMARK VINA RESULT:      -7.5      1.186      1.614
REMARK  Name = 
REMARK  6 active torsions:
REMARK  status: ('A' for Active; 'I' for Inactive)
REMARK    1  A    between atoms: C_1  and  O_2
REMARK    2  A    between atoms: O_2  and  C_3
REMARK    3  A    between atoms: C_6  and  C_7
REMARK    4  A    between atoms: N_11  and  C_12
REMARK    5  A    between atoms: C_20  and  O_21
REMARK    6  A    between atoms: O_21  and  C_22
REMARK                            x       y       z     vdW  Elec       q    Type
REMARK                         _______ _______ _______ _____ _____    ______ ____
ROOT
ATOM      1  C   UNL     1       3.292   4.565  19.041  0.00  0.00    +0.000 A 
ATOM      2  C   UNL     1       2.591   3.516  19.599  0.00  0.00    +0.000 A 
ATOM      3  S   UNL     1       1.535   4.102  20.812  0.00  0.00    +0.000 S 
ATOM      4  C   UNL     1       2.017   5.719  20.450  0.00  0.00    +0.000 A 
ATOM      5  N   UNL     1       1.519   6.748  21.173  0.00  0.00    +0.000 N 
ATOM      6  N   UNL     1       2.899   5.816  19.480  0.00  0.00    +0.000 NA
ATOM      7  H   UNL     1       0.996   6.530  22.011  0.00  0.00    +0.000 HD
ENDROOT
BRANCH   1  11
ATOM      8  C   UNL     1       6.530   4.468  16.259  0.00  0.00    +0.000 A 
ATOM      9  C   UNL     1       5.214   4.222  15.836  0.00  0.00    +0.000 A 
ATOM     10  C   UNL     1       4.157   4.219  16.752  0.00  0.00    +0.000 A 
ATOM     11  C   UNL     1       4.404   4.420  18.112  0.00  0.00    +0.000 A 
ATOM     12  C   UNL     1       5.729   4.571  18.538  0.00  0.00    +0.000 A 
ATOM     13  C   UNL     1       6.799   4.589  17.628  0.00  0.00    +0.000 A 
BRANCH   8  15
ATOM     14  C   UNL     1       7.134   4.829  14.005  0.00  0.00    +0.000 C 
ATOM     15  O   UNL     1       7.548   4.573  15.348  0.00  0.00    +0.000 OA
ENDBRANCH   8  15
BRANCH  13  16
ATOM     16  O   UNL     1       7.998   4.771  18.263  0.00  0.00    +0.000 OA
ATOM     17  C   UNL     1       8.077   5.691  19.339  0.00  0.00    +0.000 C 
ENDBRANCH  13  16
ENDBRANCH   1  11
BRANCH   5  18
ATOM     18  C   UNL     1       1.320   8.061  20.708  0.00  0.00    +0.000 A 
ATOM     19  C   UNL     1       0.844   9.090  21.530  0.00  0.00    +0.000 A 
ATOM     20  C   UNL     1       0.651  10.381  21.034  0.00  0.00    +0.000 A 
ATOM     21  C   UNL     1       0.902  10.655  19.693  0.00  0.00    +0.000 A 
ATOM     22  C   UNL     1       1.348   9.638  18.851  0.00  0.00    +0.000 A 
ATOM     23  C   UNL     1       1.559   8.352  19.357  0.00  0.00    +0.000 A 
ENDBRANCH   5  18
TORSDOF 4
ENDMDL
MODEL 7
REMARK VINA RESULT:      -7.4      3.254      7.299
REMARK  Name = 
REMARK  6 active torsions:
REMARK  status: ('A' for Active; 'I' for Inactive)
REMARK    1  A    between atoms: C_1  and  O_2
REMARK    2  A    between atoms: O_2  and  C_3
REMARK    3  A    between atoms: C_6  and  C_7
REMARK    4  A    between atoms: N_11  and  C_12
REMARK    5  A    between atoms: C_20  and  O_21
REMARK    6  A    between atoms: O_21  and  C_22
REMARK                            x       y       z     vdW  Elec       q    Type
REMARK                         _______ _______ _______ _____ _____    ______ ____
ROOT
ATOM      1  C   UNL     1       2.991   5.971  19.144  0.00  0.00    +0.000 A 
ATOM      2  C   UNL     1       2.882   5.050  20.165  0.00  0.00    +0.000 A 
ATOM      3  S   UNL     1       3.521   3.544  19.661  0.00  0.00    +0.000 S 
ATOM      4  C   UNL     1       3.979   4.244  18.151  0.00  0.00    +0.000 A 
ATOM      5  N   UNL     1       4.551   3.474  17.197  0.00  0.00    +0.000 N 
ATOM      6  N   UNL     1       3.685   5.521  18.036  0.00  0.00    +0.000 NA
ATOM      7  H   UNL     1       4.552   2.472  17.335  0.00  0.00    +0.000 HD
ENDROOT
BRANCH   1  11
ATOM      8  C   UNL     1       0.932   9.711  19.098  0.00  0.00    +0.000 A 
ATOM      9  C   UNL     1       1.557   9.223  17.940  0.00  0.00    +0.000 A 
ATOM     10  C   UNL     1       2.262   8.015  17.962  0.00  0.00    +0.000 A 
ATOM     11  C   UNL     1       2.389   7.296  19.154  0.00  0.00    +0.000 A 
ATOM     12  C   UNL     1       1.843   7.836  20.324  0.00  0.00    +0.000 A 
ATOM     13  C   UNL     1       1.123   9.042  20.314  0.00  0.00    +0.000 A 
BRANCH   8  15
ATOM     14  C   UNL     1       0.877  12.071  19.122  0.00  0.00    +0.000 C 
ATOM     15  O   UNL     1       0.157  10.840  19.051  0.00  0.00    +0.000 OA
ENDBRANCH   8  15
BRANCH  13  16
ATOM     16  O   UNL     1       0.663   9.365  21.562  0.00  0.00    +0.000 OA
ATOM     17  C   UNL     1      -0.506   8.730  22.055  0.00  0.00    +0.000 C 
ENDBRANCH  13  16
ENDBRANCH   1  11
BRANCH   5  18
ATOM     18  C   UNL     1       5.468   3.913  16.224  0.00  0.00    +0.000 A 
ATOM     19  C   UNL     1       6.675   4.543  16.553  0.00  0.00    +0.000 A 
ATOM     20  C   UNL     1       7.559   4.972  15.561  0.00  0.00    +0.000 A 
ATOM     21  C   UNL     1       7.231   4.807  14.219  0.00  0.00    +0.000 A 
ATOM     22  C   UNL     1       6.021   4.210  13.871  0.00  0.00    +0.000 A 
ATOM     23  C   UNL     1       5.148   3.764  14.867  0.00  0.00    +0.000 A 
ENDBRANCH   5  18
TORSDOF 4
ENDMDL
MODEL 8
REMARK VINA RESULT:      -7.2      3.493      7.600
REMARK  Name = 
REMARK  6 active torsions:
REMARK  status: ('A' for Active; 'I' for Inactive)
REMARK    1  A    between atoms: C_1  and  O_2
REMARK    2  A    between atoms: O_2  and  C_3
REMARK    3  A    between atoms: C_6  and  C_7
REMARK    4  A    between atoms: N_11  and  C_12
REMARK    5  A    between atoms: C_20  and  O_21
REMARK    6  A    between atoms: O_21  and  C_22
REMARK                            x       y       z     vdW  Elec       q    Type
REMARK                         _______ _______ _______ _____ _____    ______ ____
ROOT
ATOM      1  C   UNL     1       5.078   5.814  17.717  0.00  0.00    +0.000 A 
ATOM      2  C   UNL     1       5.809   6.873  18.215  0.00  0.00    +0.000 A 
ATOM      3  S   UNL     1       7.254   7.055  17.315  0.00  0.00    +0.000 S 
ATOM      4  C   UNL     1       6.765   5.771  16.270  0.00  0.00    +0.000 A 
ATOM      5  N   UNL     1       7.586   5.361  15.277  0.00  0.00    +0.000 N 
ATOM      6  N   UNL     1       5.595   5.248  16.566  0.00  0.00    +0.000 NA
ATOM      7  H   UNL     1       8.534   5.714  15.269  0.00  0.00    +0.000 HD
ENDROOT
BRANCH   1  11
ATOM      8  C   UNL     1       1.792   4.068  19.812  0.00  0.00    +0.000 A 
ATOM      9  C   UNL     1       2.477   3.345  18.823  0.00  0.00    +0.000 A 
ATOM     10  C   UNL     1       3.531   3.928  18.111  0.00  0.00    +0.000 A 
ATOM     11  C   UNL     1       3.889   5.257  18.348  0.00  0.00    +0.000 A 
ATOM     12  C   UNL     1       3.141   6.000  19.268  0.00  0.00    +0.000 A 
ATOM     13  C   UNL     1       2.089   5.424  19.999  0.00  0.00    +0.000 A 
BRANCH   8  15
ATOM     14  C   UNL     1       1.327   2.662  21.651  0.00  0.00    +0.000 C 
ATOM     15  O   UNL     1       0.830   3.465  20.579  0.00  0.00    +0.000 OA
ENDBRANCH   8  15
BRANCH  13  16
ATOM     16  O   UNL     1       1.516   6.327  20.854  0.00  0.00    +0.000 OA
ATOM     17  C   UNL     1       1.697   7.713  20.619  0.00  0.00    +0.000 C 
ENDBRANCH  13  16
ENDBRANCH   1  11
BRANCH   5  18
ATOM     18  C   UNL     1       7.180   4.803  14.050  0.00  0.00    +0.000 A 
ATOM     19  C   UNL     1       6.185   3.821  13.959  0.00  0.00    +0.000 A 
ATOM     20  C   UNL     1       5.813   3.283  12.726  0.00  0.00    +0.000 A 
ATOM     21  C   UNL     1       6.456   3.697  11.563  0.00  0.00    +0.000 A 
ATOM     22  C   UNL     1       7.469   4.651  11.636  0.00  0.00    +0.000 A 
ATOM     23  C   UNL     1       7.826   5.201  12.871  0.00  0.00    +0.000 A 
ENDBRANCH   5  18
TORSDOF 4
ENDMDL
MODEL 9
REMARK VINA RESULT:      -7.2      5.384      8.987
REMARK  Name = 
REMARK  6 active torsions:
REMARK  status: ('A' for Active; 'I' for Inactive)
REMARK    1  A    between atoms: C_1  and  O_2
REMARK    2  A    between atoms: O_2  and  C_3
REMARK    3  A    between atoms: C_6  and  C_7
REMARK    4  A    between atoms: N_11  and  C_12
REMARK    5  A    between atoms: C_20  and  O_21
REMARK    6  A    between atoms: O_21  and  C_22
REMARK                            x       y       z     vdW  Elec       q    Type
REMARK                         _______ _______ _______ _____ _____    ______ ____
ROOT
ATOM      1  C   UNL     1       0.966   9.111  19.757  0.00  0.00    +0.000 A 
ATOM      2  C   UNL     1       1.500   9.606  18.584  0.00  0.00    +0.000 A 
ATOM      3  S   UNL     1       2.597   8.471  17.922  0.00  0.00    +0.000 S 
ATOM      4  C   UNL     1       2.220   7.365  19.191  0.00  0.00    +0.000 A 
ATOM      5  N   UNL     1       2.861   6.176  19.262  0.00  0.00    +0.000 N 
ATOM      6  N   UNL     1       1.325   7.808  20.047  0.00  0.00    +0.000 NA
ATOM      7  H   UNL     1       3.658   6.031  18.657  0.00  0.00    +0.000 HD
ENDROOT
BRANCH   1  11
ATOM      8  C   UNL     1      -1.188  11.557  22.516  0.00  0.00    +0.000 A 
ATOM      9  C   UNL     1      -0.503  10.413  22.955  0.00  0.00    +0.000 A 
ATOM     10  C   UNL     1       0.173   9.591  22.047  0.00  0.00    +0.000 A 
ATOM     11  C   UNL     1       0.141   9.877  20.680  0.00  0.00    +0.000 A 
ATOM     12  C   UNL     1      -0.622  10.965  20.241  0.00  0.00    +0.000 A 
ATOM     13  C   UNL     1      -1.296  11.806  21.142  0.00  0.00    +0.000 A 
BRANCH   8  15
ATOM     14  C   UNL     1      -3.160  12.214  23.635  0.00  0.00    +0.000 C 
ATOM     15  O   UNL     1      -1.763  12.416  23.415  0.00  0.00    +0.000 OA
ENDBRANCH   8  15
BRANCH  13  16
ATOM     16  O   UNL     1      -1.955  12.815  20.493  0.00  0.00    +0.000 OA
ATOM     17  C   UNL     1      -3.138  12.516  19.770  0.00  0.00    +0.000 C 
ENDBRANCH  13  16
ENDBRANCH   1  11
BRANCH   5  18
ATOM     18  C   UNL     1       2.334   4.987  19.798  0.00  0.00    +0.000 A 
ATOM     19  C   UNL     1       2.548   4.597  21.127  0.00  0.00    +0.000 A 
ATOM     20  C   UNL     1       2.016   3.406  21.625  0.00  0.00    +0.000 A 
ATOM     21  C   UNL     1       1.287   2.567  20.788  0.00  0.00    +0.000 A 
ATOM     22  C   UNL     1       1.089   2.922  19.455  0.00  0.00    +0.000 A 
ATOM     23  C   UNL     1       1.606   4.125  18.966  0.00  0.00    +0.000 A 
ENDBRANCH   5  18
TORSDOF 4
ENDMDL
