MODEL 1
REMARK VINA RESULT:      -9.1      0.000      0.000
REMARK  Name = 
REMARK  4 active torsions:
REMARK  status: ('A' for Active; 'I' for Inactive)
REMARK    1  A    between atoms: C_2  and  O_3
REMARK    2  A    between atoms: C_2  and  C_4
REMARK    3  A    between atoms: C_7  and  N_8
REMARK    4  A    between atoms: C_13  and  C_14
REMARK                            x       y       z     vdW  Elec       q    Type
REMARK                         _______ _______ _______ _____ _____    ______ ____
ROOT
ATOM      1  N   UNL     1       2.219   7.185  20.679  0.00  0.00    +0.000 N 
ATOM      2  C   UNL     1       2.728   6.149  19.907  0.00  0.00    +0.000 A 
ATOM      3  N   UNL     1       3.457   6.340  18.844  0.00  0.00    +0.000 NA
ATOM      4  C   UNL     1       3.851   5.264  18.023  0.00  0.00    +0.000 A 
ATOM      5  C   UNL     1       4.634   5.512  16.900  0.00  0.00    +0.000 A 
ATOM      6  C   UNL     1       5.078   4.456  16.082  0.00  0.00    +0.000 A 
ATOM      7  C   UNL     1       4.763   3.133  16.439  0.00  0.00    +0.000 A 
ATOM      8  C   UNL     1       3.904   2.872  17.506  0.00  0.00    +0.000 A 
ATOM      9  C   UNL     1       3.425   3.949  18.252  0.00  0.00    +0.000 A 
ATOM     10  N   UNL     1       2.516   3.792  19.299  0.00  0.00    +0.000 N 
ATOM     11  C   UNL     1       1.589   2.811  19.536  0.00  0.00    +0.000 A 
ATOM     12  C   UNL     1       1.115   3.007  20.818  0.00  0.00    +0.000 A 
ATOM     13  C   UNL     1       1.710   4.199  21.309  0.00  0.00    +0.000 A 
ATOM     14  C   UNL     1       2.324   4.784  20.223  0.00  0.00    +0.000 A 
ATOM     15  H   UNL     1       1.733   6.854  21.498  0.00  0.00    +0.000 HD
ENDROOT
BRANCH   1  19
ATOM     16  C   UNL     1      -0.056  10.342  18.968  0.00  0.00    +0.000 A 
ATOM     17  C   UNL     1      -0.241   9.968  20.304  0.00  0.00    +0.000 A 
ATOM     18  C   UNL     1       0.522   8.935  20.860  0.00  0.00    +0.000 A 
ATOM     19  C   UNL     1       1.474   8.245  20.087  0.00  0.00    +0.000 A 
ATOM     20  C   UNL     1       1.673   8.666  18.764  0.00  0.00    +0.000 A 
ATOM     21  C   UNL     1       0.922   9.701  18.206  0.00  0.00    +0.000 A 
BRANCH  16  23
ATOM     22  O   UNL     1      -1.037  12.503  18.992  0.00  0.00    +0.000 OA
ATOM     23  C   UNL     1      -0.879  11.448  18.415  0.00  0.00    +0.000 C 
BRANCH  23  24
ATOM     24  O   UNL     1      -1.470  11.142  17.238  0.00  0.00    +0.000 OA
ATOM     25  H   UNL     1      -1.837  11.893  16.747  0.00  0.00    +0.000 HD
ENDBRANCH  23  24
ENDBRANCH  16  23
ENDBRANCH   1  19
BRANCH   6  26
ATOM     26  C   UNL     1       5.870   4.728  14.828  0.00  0.00    +0.000 C 
ATOM     27  F   UNL     1       5.462   3.998  13.754  0.00  0.00    +0.000 F 
ATOM     28  F   UNL     1       5.815   6.031  14.443  0.00  0.00    +0.000 F 
ATOM     29  F   UNL     1       7.194   4.441  14.985  0.00  0.00    +0.000 F 
ENDBRANCH   6  26
TORSDOF 4
ENDMDL
MODEL 2
REMARK VINA RESULT:      -8.9      0.236      1.226
REMARK  Name = 
REMARK  4 active torsions:
REMARK  status: ('A' for Active; 'I' for Inactive)
REMARK    1  A    between atoms: C_2  and  O_3
REMARK    2  A    between atoms: C_2  and  C_4
REMARK    3  A    between atoms: C_7  and  N_8
REMARK    4  A    between atoms: C_13  and  C_14
REMARK                            x       y       z     vdW  Elec       q    Type
REMARK                         _______ _______ _______ _____ _____    ______ ____
ROOT
ATOM      1  N   UNL     1       2.128   7.099  20.769  0.00  0.00    +0.000 N 
ATOM      2  C   UNL     1       2.658   6.114  19.946  0.00  0.00    +0.000 A 
ATOM      3  N   UNL     1       3.414   6.371  18.916  0.00  0.00    +0.000 NA
ATOM      4  C   UNL     1       3.831   5.350  18.040  0.00  0.00    +0.000 A 
ATOM      5  C   UNL     1       4.642   5.668  16.956  0.00  0.00    +0.000 A 
ATOM      6  C   UNL     1       5.109   4.666  16.085  0.00  0.00    +0.000 A 
ATOM      7  C   UNL     1       4.786   3.323  16.349  0.00  0.00    +0.000 A 
ATOM      8  C   UNL     1       3.901   2.996  17.375  0.00  0.00    +0.000 A 
ATOM      9  C   UNL     1       3.401   4.023  18.174  0.00  0.00    +0.000 A 
ATOM     10  N   UNL     1       2.465   3.800  19.185  0.00  0.00    +0.000 N 
ATOM     11  C   UNL     1       1.534   2.806  19.336  0.00  0.00    +0.000 A 
ATOM     12  C   UNL     1       1.027   2.921  20.615  0.00  0.00    +0.000 A 
ATOM     13  C   UNL     1       1.607   4.079  21.196  0.00  0.00    +0.000 A 
ATOM     14  C   UNL     1       2.249   4.731  20.164  0.00  0.00    +0.000 A 
ATOM     15  H   UNL     1       1.621   6.717  21.553  0.00  0.00    +0.000 HD
ENDROOT
BRANCH   1  19
ATOM     16  C   UNL     1       0.001  10.378  19.097  0.00  0.00    +0.000 A 
ATOM     17  C   UNL     1       0.978   9.704  18.355  0.00  0.00    +0.000 A 
ATOM     18  C   UNL     1       1.664   8.620  18.911  0.00  0.00    +0.000 A 
ATOM     19  C   UNL     1       1.397   8.195  20.226  0.00  0.00    +0.000 A 
ATOM     20  C   UNL     1       0.383   8.856  20.935  0.00  0.00    +0.000 A 
ATOM     21  C   UNL     1      -0.311   9.934  20.382  0.00  0.00    +0.000 A 
BRANCH  16  23
ATOM     22  O   UNL     1      -0.729  12.632  18.953  0.00  0.00    +0.000 OA
ATOM     23  C   UNL     1      -0.712  11.520  18.469  0.00  0.00    +0.000 C 
BRANCH  23  24
ATOM     24  O   UNL     1      -1.374  11.185  17.340  0.00  0.00    +0.000 OA
ATOM     25  H   UNL     1      -2.316  11.411  17.325  0.00  0.00    +0.000 HD
ENDBRANCH  23  24
ENDBRANCH  16  23
ENDBRANCH   1  19
BRANCH   6  26
ATOM     26  C   UNL     1       5.933   5.017  14.871  0.00  0.00    +0.000 C 
ATOM     27  F   UNL     1       7.267   5.117  15.125  0.00  0.00    +0.000 F 
ATOM     28  F   UNL     1       5.806   4.108  13.868  0.00  0.00    +0.000 F 
ATOM     29  F   UNL     1       5.571   6.217  14.335  0.00  0.00    +0.000 F 
ENDBRANCH   6  26
TORSDOF 4
ENDMDL
MODEL 3
REMARK VINA RESULT:      -8.9      0.770      1.147
REMARK  Name = 
REMARK  4 active torsions:
REMARK  status: ('A' for Active; 'I' for Inactive)
REMARK    1  A    between atoms: C_2  and  O_3
REMARK    2  A    between atoms: C_2  and  C_4
REMARK    3  A    between atoms: C_7  and  N_8
REMARK    4  A    between atoms: C_13  and  C_14
REMARK                            x       y       z     vdW  Elec       q    Type
REMARK                         _______ _______ _______ _____ _____    ______ ____
ROOT
ATOM      1  N   UNL     1       1.855   6.959  20.841  0.00  0.00    +0.000 N 
ATOM      2  C   UNL     1       2.480   6.044  20.003  0.00  0.00    +0.000 A 
ATOM      3  N   UNL     1       3.456   6.359  19.199  0.00  0.00    +0.000 NA
ATOM      4  C   UNL     1       3.978   5.427  18.281  0.00  0.00    +0.000 A 
ATOM      5  C   UNL     1       5.024   5.804  17.444  0.00  0.00    +0.000 A 
ATOM      6  C   UNL     1       5.596   4.885  16.545  0.00  0.00    +0.000 A 
ATOM      7  C   UNL     1       5.132   3.558  16.532  0.00  0.00    +0.000 A 
ATOM      8  C   UNL     1       4.026   3.187  17.297  0.00  0.00    +0.000 A 
ATOM      9  C   UNL     1       3.439   4.144  18.124  0.00  0.00    +0.000 A 
ATOM     10  N   UNL     1       2.295   3.883  18.879  0.00  0.00    +0.000 N 
ATOM     11  C   UNL     1       1.286   2.975  18.687  0.00  0.00    +0.000 A 
ATOM     12  C   UNL     1       0.526   2.968  19.839  0.00  0.00    +0.000 A 
ATOM     13  C   UNL     1       1.046   3.976  20.693  0.00  0.00    +0.000 A 
ATOM     14  C   UNL     1       1.938   4.692  19.923  0.00  0.00    +0.000 A 
ATOM     15  H   UNL     1       1.166   6.528  21.439  0.00  0.00    +0.000 HD
ENDROOT
BRANCH   1  19
ATOM     16  C   UNL     1       0.248  10.612  19.376  0.00  0.00    +0.000 A 
ATOM     17  C   UNL     1      -0.073  10.151  20.657  0.00  0.00    +0.000 A 
ATOM     18  C   UNL     1       0.470   8.952  21.133  0.00  0.00    +0.000 A 
ATOM     19  C   UNL     1       1.335   8.184  20.332  0.00  0.00    +0.000 A 
ATOM     20  C   UNL     1       1.679   8.688  19.070  0.00  0.00    +0.000 A 
ATOM     21  C   UNL     1       1.146   9.887  18.592  0.00  0.00    +0.000 A 
BRANCH  16  23
ATOM     22  O   UNL     1      -0.348  12.900  19.583  0.00  0.00    +0.000 OA
ATOM     23  C   UNL     1      -0.343  11.892  18.909  0.00  0.00    +0.000 C 
BRANCH  23  24
ATOM     24  O   UNL     1      -0.913  11.806  17.686  0.00  0.00    +0.000 OA
ATOM     25  H   UNL     1      -1.803  12.182  17.613  0.00  0.00    +0.000 HD
ENDBRANCH  23  24
ENDBRANCH  16  23
ENDBRANCH   1  19
BRANCH   6  26
ATOM     26  C   UNL     1       6.684   5.311  15.590  0.00  0.00    +0.000 C 
ATOM     27  F   UNL     1       7.494   6.288  16.084  0.00  0.00    +0.000 F 
ATOM     28  F   UNL     1       7.502   4.285  15.234  0.00  0.00    +0.000 F 
ATOM     29  F   UNL     1       6.178   5.807  14.425  0.00  0.00    +0.000 F 
ENDBRANCH   6  26
TORSDOF 4
ENDMDL
MODEL 4
REMARK VINA RESULT:      -8.8      0.905      1.403
REMARK  Name = 
REMARK  4 active torsions:
REMARK  status: ('A' for Active; 'I' for Inactive)
REMARK    1  A    between atoms: C_2  and  O_3
REMARK    2  A    between atoms: C_2  and  C_4
REMARK    3  A    between atoms: C_7  and  N_8
REMARK    4  A    between atoms: C_13  and  C_14
REMARK                            x       y       z     vdW  Elec       q    Type
REMARK                         _______ _______ _______ _____ _____    ______ ____
ROOT
ATOM      1  N   UNL     1       1.889   6.867  20.888  0.00  0.00    +0.000 N 
ATOM      2  C   UNL     1       2.505   5.970  20.026  0.00  0.00    +0.000 A 
ATOM      3  N   UNL     1       3.501   6.292  19.249  0.00  0.00    +0.000 NA
ATOM      4  C   UNL     1       4.017   5.382  18.305  0.00  0.00    +0.000 A 
ATOM      5  C   UNL     1       5.085   5.765  17.499  0.00  0.00    +0.000 A 
ATOM      6  C   UNL     1       5.649   4.868  16.574  0.00  0.00    +0.000 A 
ATOM      7  C   UNL     1       5.154   3.554  16.503  0.00  0.00    +0.000 A 
ATOM      8  C   UNL     1       4.028   3.181  17.235  0.00  0.00    +0.000 A 
ATOM      9  C   UNL     1       3.450   4.120  18.090  0.00  0.00    +0.000 A 
ATOM     10  N   UNL     1       2.288   3.858  18.816  0.00  0.00    +0.000 N 
ATOM     11  C   UNL     1       1.261   2.983  18.574  0.00  0.00    +0.000 A 
ATOM     12  C   UNL     1       0.482   2.951  19.713  0.00  0.00    +0.000 A 
ATOM     13  C   UNL     1       1.012   3.912  20.613  0.00  0.00    +0.000 A 
ATOM     14  C   UNL     1       1.933   4.636  19.886  0.00  0.00    +0.000 A 
ATOM     15  H   UNL     1       1.181   6.431  21.459  0.00  0.00    +0.000 HD
ENDROOT
BRANCH   1  19
ATOM     16  C   UNL     1       0.502  10.613  19.435  0.00  0.00    +0.000 A 
ATOM     17  C   UNL     1       1.247   9.758  18.615  0.00  0.00    +0.000 A 
ATOM     18  C   UNL     1       1.689   8.522  19.100  0.00  0.00    +0.000 A 
ATOM     19  C   UNL     1       1.407   8.123  20.420  0.00  0.00    +0.000 A 
ATOM     20  C   UNL     1       0.621   8.976  21.209  0.00  0.00    +0.000 A 
ATOM     21  C   UNL     1       0.170  10.207  20.728  0.00  0.00    +0.000 A 
BRANCH  16  23
ATOM     22  O   UNL     1      -1.057  12.372  19.102  0.00  0.00    +0.000 OA
ATOM     23  C   UNL     1       0.044  11.914  18.882  0.00  0.00    +0.000 C 
BRANCH  23  24
ATOM     24  O   UNL     1       0.954  12.504  18.074  0.00  0.00    +0.000 OA
ATOM     25  H   UNL     1       1.727  12.880  18.521  0.00  0.00    +0.000 HD
ENDBRANCH  23  24
ENDBRANCH  16  23
ENDBRANCH   1  19
BRANCH   6  26
ATOM     26  C   UNL     1       6.762   5.303  15.653  0.00  0.00    +0.000 C 
ATOM     27  F   UNL     1       6.341   5.618  14.397  0.00  0.00    +0.000 F 
ATOM     28  F   UNL     1       7.429   6.394  16.113  0.00  0.00    +0.000 F 
ATOM     29  F   UNL     1       7.704   4.330  15.491  0.00  0.00    +0.000 F 
ENDBRANCH   6  26
TORSDOF 4
ENDMDL
MODEL 5
REMARK VINA RESULT:      -7.8      6.530     10.086
REMARK  Name = 
REMARK  4 active torsions:
REMARK  status: ('A' for Active; 'I' for Inactive)
REMARK    1  A    between atoms: C_2  and  O_3
REMARK    2  A    between atoms: C_2  and  C_4
REMARK    3  A    between atoms: C_7  and  N_8
REMARK    4  A    between atoms: C_13  and  C_14
REMARK                            x       y       z     vdW  Elec       q    Type
REMARK                         _______ _______ _______ _____ _____    ______ ____
ROOT
ATOM      1  N   UNL     1       0.271  10.825  17.947  0.00  0.00    +0.000 N 
ATOM      2  C   UNL     1      -0.877  11.353  18.524  0.00  0.00    +0.000 A 
ATOM      3  N   UNL     1      -0.965  11.668  19.785  0.00  0.00    +0.000 NA
ATOM      4  C   UNL     1      -2.185  12.088  20.351  0.00  0.00    +0.000 A 
ATOM      5  C   UNL     1      -2.235  12.419  21.701  0.00  0.00    +0.000 A 
ATOM      6  C   UNL     1      -3.427  12.881  22.289  0.00  0.00    +0.000 A 
ATOM      7  C   UNL     1      -4.567  13.053  21.483  0.00  0.00    +0.000 A 
ATOM      8  C   UNL     1      -4.561  12.639  20.151  0.00  0.00    +0.000 A 
ATOM      9  C   UNL     1      -3.381  12.119  19.621  0.00  0.00    +0.000 A 
ATOM     10  N   UNL     1      -3.296  11.625  18.319  0.00  0.00    +0.000 N 
ATOM     11  C   UNL     1      -4.262  11.109  17.495  0.00  0.00    +0.000 A 
ATOM     12  C   UNL     1      -3.698  10.987  16.241  0.00  0.00    +0.000 A 
ATOM     13  C   UNL     1      -2.331  11.349  16.357  0.00  0.00    +0.000 A 
ATOM     14  C   UNL     1      -2.084  11.444  17.710  0.00  0.00    +0.000 A 
ATOM     15  H   UNL     1       0.182  10.702  16.950  0.00  0.00    +0.000 HD
ENDROOT
BRANCH   1  19
ATOM     16  C   UNL     1       2.196   7.386  19.543  0.00  0.00    +0.000 A 
ATOM     17  C   UNL     1       2.321   7.714  18.189  0.00  0.00    +0.000 A 
ATOM     18  C   UNL     1       1.693   8.854  17.677  0.00  0.00    +0.000 A 
ATOM     19  C   UNL     1       0.914   9.682  18.506  0.00  0.00    +0.000 A 
ATOM     20  C   UNL     1       0.839   9.360  19.869  0.00  0.00    +0.000 A 
ATOM     21  C   UNL     1       1.470   8.228  20.388  0.00  0.00    +0.000 A 
BRANCH  16  23
ATOM     22  O   UNL     1       3.888   5.722  19.542  0.00  0.00    +0.000 OA
ATOM     23  C   UNL     1       2.884   6.172  20.052  0.00  0.00    +0.000 C 
BRANCH  23  24
ATOM     24  O   UNL     1       2.254   5.597  21.100  0.00  0.00    +0.000 OA
ATOM     25  H   UNL     1       2.816   5.384  21.860  0.00  0.00    +0.000 HD
ENDBRANCH  23  24
ENDBRANCH  16  23
ENDBRANCH   1  19
BRANCH   6  26
ATOM     26  C   UNL     1      -3.499  13.176  23.766  0.00  0.00    +0.000 C 
ATOM     27  F   UNL     1      -3.784  12.085  24.529  0.00  0.00    +0.000 F 
ATOM     28  F   UNL     1      -2.340  13.689  24.257  0.00  0.00    +0.000 F 
ATOM     29  F   UNL     1      -4.467  14.091  24.059  0.00  0.00    +0.000 F 
ENDBRANCH   6  26
TORSDOF 4
ENDMDL
MODEL 6
REMARK VINA RESULT:      -7.4      6.502     10.023
REMARK  Name = 
REMARK  4 active torsions:
REMARK  status: ('A' for Active; 'I' for Inactive)
REMARK    1  A    between atoms: C_2  and  O_3
REMARK    2  A    between atoms: C_2  and  C_4
REMARK    3  A    between atoms: C_7  and  N_8
REMARK    4  A    between atoms: C_13  and  C_14
REMARK                            x       y       z     vdW  Elec       q    Type
REMARK                         _______ _______ _______ _____ _____    ______ ____
ROOT
ATOM      1  N   UNL     1       0.267  10.848  17.928  0.00  0.00    +0.000 N 
ATOM      2  C   UNL     1      -0.876  11.363  18.525  0.00  0.00    +0.000 A 
ATOM      3  N   UNL     1      -0.958  11.640  19.796  0.00  0.00    +0.000 NA
ATOM      4  C   UNL     1      -2.174  12.047  20.380  0.00  0.00    +0.000 A 
ATOM      5  C   UNL     1      -2.216  12.338  21.740  0.00  0.00    +0.000 A 
ATOM      6  C   UNL     1      -3.404  12.786  22.346  0.00  0.00    +0.000 A 
ATOM      7  C   UNL     1      -4.547  12.987  21.551  0.00  0.00    +0.000 A 
ATOM      8  C   UNL     1      -4.549  12.614  20.207  0.00  0.00    +0.000 A 
ATOM      9  C   UNL     1      -3.372  12.105  19.657  0.00  0.00    +0.000 A 
ATOM     10  N   UNL     1      -3.295  11.651  18.340  0.00  0.00    +0.000 N 
ATOM     11  C   UNL     1      -4.267  11.163  17.505  0.00  0.00    +0.000 A 
ATOM     12  C   UNL     1      -3.709  11.077  16.246  0.00  0.00    +0.000 A 
ATOM     13  C   UNL     1      -2.340  11.430  16.366  0.00  0.00    +0.000 A 
ATOM     14  C   UNL     1      -2.087  11.483  17.720  0.00  0.00    +0.000 A 
ATOM     15  H   UNL     1       0.173  10.755  16.928  0.00  0.00    +0.000 HD
ENDROOT
BRANCH   1  19
ATOM     16  C   UNL     1       2.173   7.413  19.552  0.00  0.00    +0.000 A 
ATOM     17  C   UNL     1       1.405   8.255  20.362  0.00  0.00    +0.000 A 
ATOM     18  C   UNL     1       0.773   9.377  19.815  0.00  0.00    +0.000 A 
ATOM     19  C   UNL     1       0.908   9.687  18.449  0.00  0.00    +0.000 A 
ATOM     20  C   UNL     1       1.645   8.803  17.647  0.00  0.00    +0.000 A 
ATOM     21  C   UNL     1       2.272   7.678  18.186  0.00  0.00    +0.000 A 
BRANCH  16  23
ATOM     22  O   UNL     1       3.829   5.720  19.718  0.00  0.00    +0.000 OA
ATOM     23  C   UNL     1       2.823   6.227  20.168  0.00  0.00    +0.000 C 
BRANCH  23  24
ATOM     24  O   UNL     1       2.156   5.746  21.241  0.00  0.00    +0.000 OA
ATOM     25  H   UNL     1       2.639   5.099  21.777  0.00  0.00    +0.000 HD
ENDBRANCH  23  24
ENDBRANCH  16  23
ENDBRANCH   1  19
BRANCH   6  26
ATOM     26  C   UNL     1      -3.469  13.037  23.832  0.00  0.00    +0.000 C 
ATOM     27  F   UNL     1      -4.359  14.005  24.185  0.00  0.00    +0.000 F 
ATOM     28  F   UNL     1      -3.815  11.928  24.539  0.00  0.00    +0.000 F 
ATOM     29  F   UNL     1      -2.268  13.441  24.337  0.00  0.00    +0.000 F 
ENDBRANCH   6  26
TORSDOF 4
ENDMDL
MODEL 7
REMARK VINA RESULT:      -7.3      5.128      8.137
REMARK  Name = 
REMARK  4 active torsions:
REMARK  status: ('A' for Active; 'I' for Inactive)
REMARK    1  A    between atoms: C_2  and  O_3
REMARK    2  A    between atoms: C_2  and  C_4
REMARK    3  A    between atoms: C_7  and  N_8
REMARK    4  A    between atoms: C_13  and  C_14
REMARK                            x       y       z     vdW  Elec       q    Type
REMARK                         _______ _______ _______ _____ _____    ______ ____
ROOT
ATOM      1  N   UNL     1       1.368   8.244  18.238  0.00  0.00    +0.000 N 
ATOM      2  C   UNL     1       1.356   9.581  18.612  0.00  0.00    +0.000 A 
ATOM      3  N   UNL     1       2.124  10.484  18.070  0.00  0.00    +0.000 NA
ATOM      4  C   UNL     1       2.163  11.803  18.563  0.00  0.00    +0.000 A 
ATOM      5  C   UNL     1       2.994  12.737  17.951  0.00  0.00    +0.000 A 
ATOM      6  C   UNL     1       3.027  14.073  18.392  0.00  0.00    +0.000 A 
ATOM      7  C   UNL     1       2.171  14.472  19.434  0.00  0.00    +0.000 A 
ATOM      8  C   UNL     1       1.401  13.532  20.118  0.00  0.00    +0.000 A 
ATOM      9  C   UNL     1       1.448  12.203  19.699  0.00  0.00    +0.000 A 
ATOM     10  N   UNL     1       0.760  11.183  20.358  0.00  0.00    +0.000 N 
ATOM     11  C   UNL     1       0.340  11.086  21.659  0.00  0.00    +0.000 A 
ATOM     12  C   UNL     1      -0.490   9.985  21.732  0.00  0.00    +0.000 A 
ATOM     13  C   UNL     1      -0.476   9.361  20.457  0.00  0.00    +0.000 A 
ATOM     14  C   UNL     1       0.537   9.976  19.753  0.00  0.00    +0.000 A 
ATOM     15  H   UNL     1       0.665   7.702  18.717  0.00  0.00    +0.000 HD
ENDROOT
BRANCH   1  19
ATOM     16  C   UNL     1       4.989   6.017  18.192  0.00  0.00    +0.000 A 
ATOM     17  C   UNL     1       4.019   5.787  19.175  0.00  0.00    +0.000 A 
ATOM     18  C   UNL     1       2.827   6.519  19.174  0.00  0.00    +0.000 A 
ATOM     19  C   UNL     1       2.585   7.504  18.198  0.00  0.00    +0.000 A 
ATOM     20  C   UNL     1       3.550   7.685  17.197  0.00  0.00    +0.000 A 
ATOM     21  C   UNL     1       4.740   6.953  17.188  0.00  0.00    +0.000 A 
BRANCH  16  23
ATOM     22  O   UNL     1       7.317   5.663  17.891  0.00  0.00    +0.000 OA
ATOM     23  C   UNL     1       6.239   5.215  18.222  0.00  0.00    +0.000 C 
BRANCH  23  24
ATOM     24  O   UNL     1       6.046   3.933  18.603  0.00  0.00    +0.000 OA
ATOM     25  H   UNL     1       5.193   3.745  19.023  0.00  0.00    +0.000 HD
ENDBRANCH  23  24
ENDBRANCH  16  23
ENDBRANCH   1  19
BRANCH   6  26
ATOM     26  C   UNL     1       3.976  15.069  17.774  0.00  0.00    +0.000 C 
ATOM     27  F   UNL     1       3.517  15.614  16.614  0.00  0.00    +0.000 F 
ATOM     28  F   UNL     1       4.252  16.114  18.599  0.00  0.00    +0.000 F 
ATOM     29  F   UNL     1       5.180  14.508  17.466  0.00  0.00    +0.000 F 
ENDBRANCH   6  26
TORSDOF 4
ENDMDL
MODEL 8
REMARK VINA RESULT:      -7.2      7.012      8.683
REMARK  Name = 
REMARK  4 active torsions:
REMARK  status: ('A' for Active; 'I' for Inactive)
REMARK    1  A    between atoms: C_2  and  O_3
REMARK    2  A    between atoms: C_2  and  C_4
REMARK    3  A    between atoms: C_7  and  N_8
REMARK    4  A    between atoms: C_13  and  C_14
REMARK                            x       y       z     vdW  Elec       q    Type
REMARK                         _______ _______ _______ _____ _____    ______ ____
ROOT
ATOM      1  N   UNL     1      -2.650  11.499  19.180  0.00  0.00    +0.000 N 
ATOM      2  C   UNL     1      -1.421  12.041  19.533  0.00  0.00    +0.000 A 
ATOM      3  N   UNL     1      -0.882  13.056  18.919  0.00  0.00    +0.000 NA
ATOM      4  C   UNL     1       0.419  13.496  19.234  0.00  0.00    +0.000 A 
ATOM      5  C   UNL     1       0.955  14.587  18.556  0.00  0.00    +0.000 A 
ATOM      6  C   UNL     1       2.235  15.077  18.874  0.00  0.00    +0.000 A 
ATOM      7  C   UNL     1       2.956  14.481  19.925  0.00  0.00    +0.000 A 
ATOM      8  C   UNL     1       2.475  13.332  20.551  0.00  0.00    +0.000 A 
ATOM      9  C   UNL     1       1.233  12.832  20.160  0.00  0.00    +0.000 A 
ATOM     10  N   UNL     1       0.697  11.656  20.687  0.00  0.00    +0.000 N 
ATOM     11  C   UNL     1       1.314  10.564  21.240  0.00  0.00    +0.000 A 
ATOM     12  C   UNL     1       0.324   9.790  21.811  0.00  0.00    +0.000 A 
ATOM     13  C   UNL     1      -0.920  10.396  21.495  0.00  0.00    +0.000 A 
ATOM     14  C   UNL     1      -0.634  11.367  20.560  0.00  0.00    +0.000 A 
ATOM     15  H   UNL     1      -2.941  10.762  19.803  0.00  0.00    +0.000 HD
ENDROOT
BRANCH   1  19
ATOM     16  C   UNL     1      -3.393  10.324  15.162  0.00  0.00    +0.000 A 
ATOM     17  C   UNL     1      -2.318   9.786  15.879  0.00  0.00    +0.000 A 
ATOM     18  C   UNL     1      -2.089  10.172  17.204  0.00  0.00    +0.000 A 
ATOM     19  C   UNL     1      -2.923  11.114  17.836  0.00  0.00    +0.000 A 
ATOM     20  C   UNL     1      -4.020  11.605  17.113  0.00  0.00    +0.000 A 
ATOM     21  C   UNL     1      -4.258  11.218  15.793  0.00  0.00    +0.000 A 
BRANCH  16  23
ATOM     22  O   UNL     1      -4.704   9.627  13.311  0.00  0.00    +0.000 OA
ATOM     23  C   UNL     1      -3.607   9.884  13.760  0.00  0.00    +0.000 C 
BRANCH  23  24
ATOM     24  O   UNL     1      -2.461   9.752  13.057  0.00  0.00    +0.000 OA
ATOM     25  H   UNL     1      -2.183  10.536  12.559  0.00  0.00    +0.000 HD
ENDBRANCH  23  24
ENDBRANCH  16  23
ENDBRANCH   1  19
BRANCH   6  26
ATOM     26  C   UNL     1       2.844  16.216  18.095  0.00  0.00    +0.000 C 
ATOM     27  F   UNL     1       3.811  16.889  18.778  0.00  0.00    +0.000 F 
ATOM     28  F   UNL     1       3.415  15.811  16.930  0.00  0.00    +0.000 F 
ATOM     29  F   UNL     1       1.917  17.155  17.751  0.00  0.00    +0.000 F 
ENDBRANCH   6  26
TORSDOF 4
ENDMDL
MODEL 9
REMARK VINA RESULT:      -7.2      5.118      8.175
REMARK  Name = 
REMARK  4 active torsions:
REMARK  status: ('A' for Active; 'I' for Inactive)
REMARK    1  A    between atoms: C_2  and  O_3
REMARK    2  A    between atoms: C_2  and  C_4
REMARK    3  A    between atoms: C_7  and  N_8
REMARK    4  A    between atoms: C_13  and  C_14
REMARK                            x       y       z     vdW  Elec       q    Type
REMARK                         _______ _______ _______ _____ _____    ______ ____
ROOT
ATOM      1  N   UNL     1       1.387   8.201  18.256  0.00  0.00    +0.000 N 
ATOM      2  C   UNL     1       1.369   9.540  18.624  0.00  0.00    +0.000 A 
ATOM      3  N   UNL     1       2.145  10.440  18.089  0.00  0.00    +0.000 NA
ATOM      4  C   UNL     1       2.178  11.762  18.577  0.00  0.00    +0.000 A 
ATOM      5  C   UNL     1       3.018  12.693  17.973  0.00  0.00    +0.000 A 
ATOM      6  C   UNL     1       3.045  14.030  18.409  0.00  0.00    +0.000 A 
ATOM      7  C   UNL     1       2.173  14.435  19.436  0.00  0.00    +0.000 A 
ATOM      8  C   UNL     1       1.393  13.498  20.113  0.00  0.00    +0.000 A 
ATOM      9  C   UNL     1       1.446  12.167  19.700  0.00  0.00    +0.000 A 
ATOM     10  N   UNL     1       0.748  11.150  20.353  0.00  0.00    +0.000 N 
ATOM     11  C   UNL     1       0.309  11.058  21.649  0.00  0.00    +0.000 A 
ATOM     12  C   UNL     1      -0.523   9.958  21.714  0.00  0.00    +0.000 A 
ATOM     13  C   UNL     1      -0.490   9.329  20.442  0.00  0.00    +0.000 A 
ATOM     14  C   UNL     1       0.534   9.941  19.750  0.00  0.00    +0.000 A 
ATOM     15  H   UNL     1       0.677   7.661  18.726  0.00  0.00    +0.000 HD
ENDROOT
BRANCH   1  19
ATOM     16  C   UNL     1       5.027   6.009  18.126  0.00  0.00    +0.000 A 
ATOM     17  C   UNL     1       4.744   6.985  17.164  0.00  0.00    +0.000 A 
ATOM     18  C   UNL     1       3.548   7.708  17.223  0.00  0.00    +0.000 A 
ATOM     19  C   UNL     1       2.604   7.461  18.237  0.00  0.00    +0.000 A 
ATOM     20  C   UNL     1       2.928   6.510  19.216  0.00  0.00    +0.000 A 
ATOM     21  C   UNL     1       4.124   5.791  19.167  0.00  0.00    +0.000 A 
BRANCH  16  23
ATOM     22  O   UNL     1       7.298   5.724  17.498  0.00  0.00    +0.000 OA
ATOM     23  C   UNL     1       6.311   5.268  18.035  0.00  0.00    +0.000 C 
BRANCH  23  24
ATOM     24  O   UNL     1       6.252   4.025  18.563  0.00  0.00    +0.000 OA
ATOM     25  H   UNL     1       6.667   3.919  19.432  0.00  0.00    +0.000 HD
ENDBRANCH  23  24
ENDBRANCH  16  23
ENDBRANCH   1  19
BRANCH   6  26
ATOM     26  C   UNL     1       4.003  15.024  17.801  0.00  0.00    +0.000 C 
ATOM     27  F   UNL     1       5.216  14.492  17.485  0.00  0.00    +0.000 F 
ATOM     28  F   UNL     1       3.525  15.583  16.657  0.00  0.00    +0.000 F 
ATOM     29  F   UNL     1       4.266  16.064  18.643  0.00  0.00    +0.000 F 
ENDBRANCH   6  26
TORSDOF 4
ENDMDL
