MODEL 1
REMARK VINA RESULT:      -7.4      0.000      0.000
REMARK  Name = 
REMARK  3 active torsions:
REMARK  status: ('A' for Active; 'I' for Inactive)
REMARK    1  A    between atoms: C_1  and  C_2
REMARK    2  A    between atoms: C_2  and  C_3
REMARK    3  A    between atoms: C_8  and  C_10
REMARK                            x       y       z     vdW  Elec       q    Type
REMARK                         _______ _______ _______ _____ _____    ______ ____
ROOT
ATOM      1  C   UNL     1       1.560   2.490  21.753  0.00  0.00    +0.000 C 
ATOM      2  C   UNL     1       1.839   3.314  20.474  0.00  0.00    +0.000 C 
ATOM      3  C   UNL     1       0.780   2.896  19.431  0.00  0.00    +0.000 C 
ATOM      4  C   UNL     1       1.691   4.808  20.824  0.00  0.00    +0.000 C 
ATOM      5  C   UNL     1       2.081   5.798  19.724  0.00  0.00    +0.000 C 
ATOM      6  C   UNL     1       3.586   5.882  19.473  0.00  0.00    +0.000 C 
ATOM      7  N   UNL     1       4.143   4.882  18.555  0.00  0.00    +0.000 N 
ATOM      8  C   UNL     1       5.136   5.321  17.661  0.00  0.00    +0.000 C 
ATOM      9  O   UNL     1       5.508   6.497  17.656  0.00  0.00    +0.000 OA
ATOM     10  C   UNL     1       3.682   3.496  18.629  0.00  0.00    +0.000 C 
ATOM     11  C   UNL     1       3.275   2.981  20.008  0.00  0.00    +0.000 C 
ENDROOT
BRANCH   8  12
ATOM     12  C   UNL     1       5.802   4.292  16.729  0.00  0.00    +0.000 C 
ATOM     13  C   UNL     1       5.032   4.069  15.416  0.00  0.00    +0.000 C 
ATOM     14  C   UNL     1       5.988   4.449  14.340  0.00  0.00    +0.000 C 
ATOM     15  C   UNL     1       7.184   4.787  14.827  0.00  0.00    +0.000 C 
ATOM     16  C   UNL     1       7.234   4.689  16.315  0.00  0.00    +0.000 C 
ENDBRANCH   8  12
TORSDOF 1
ENDMDL
MODEL 2
REMARK VINA RESULT:      -7.1      1.501      5.885
REMARK  Name = 
REMARK  3 active torsions:
REMARK  status: ('A' for Active; 'I' for Inactive)
REMARK    1  A    between atoms: C_1  and  C_2
REMARK    2  A    between atoms: C_2  and  C_3
REMARK    3  A    between atoms: C_8  and  C_10
REMARK                            x       y       z     vdW  Elec       q    Type
REMARK                         _______ _______ _______ _____ _____    ______ ____
ROOT
ATOM      1  C   UNL     1       6.529   4.655  14.239  0.00  0.00    +0.000 C 
ATOM      2  C   UNL     1       6.126   4.871  15.717  0.00  0.00    +0.000 C 
ATOM      3  C   UNL     1       7.316   4.400  16.580  0.00  0.00    +0.000 C 
ATOM      4  C   UNL     1       5.869   6.377  15.928  0.00  0.00    +0.000 C 
ATOM      5  C   UNL     1       5.307   6.778  17.294  0.00  0.00    +0.000 C 
ATOM      6  C   UNL     1       3.848   6.376  17.503  0.00  0.00    +0.000 C 
ATOM      7  N   UNL     1       3.618   5.009  17.984  0.00  0.00    +0.000 N 
ATOM      8  C   UNL     1       2.601   4.832  18.938  0.00  0.00    +0.000 C 
ATOM      9  O   UNL     1       1.943   5.791  19.349  0.00  0.00    +0.000 OA
ATOM     10  C   UNL     1       4.410   3.908  17.436  0.00  0.00    +0.000 C 
ATOM     11  C   UNL     1       4.852   4.037  15.980  0.00  0.00    +0.000 C 
ENDROOT
BRANCH   8  12
ATOM     12  C   UNL     1       2.273   3.405  19.417  0.00  0.00    +0.000 C 
ATOM     13  C   UNL     1       3.298   2.847  20.420  0.00  0.00    +0.000 C 
ATOM     14  C   UNL     1       2.514   2.566  21.654  0.00  0.00    +0.000 C 
ATOM     15  C   UNL     1       1.213   2.814  21.490  0.00  0.00    +0.000 C 
ATOM     16  C   UNL     1       0.901   3.301  20.115  0.00  0.00    +0.000 C 
ENDBRANCH   8  12
TORSDOF 1
ENDMDL
MODEL 3
REMARK VINA RESULT:      -6.9      1.084      1.128
REMARK  Name = 
REMARK  3 active torsions:
REMARK  status: ('A' for Active; 'I' for Inactive)
REMARK    1  A    between atoms: C_1  and  C_2
REMARK    2  A    between atoms: C_2  and  C_3
REMARK    3  A    between atoms: C_8  and  C_10
REMARK                            x       y       z     vdW  Elec       q    Type
REMARK                         _______ _______ _______ _____ _____    ______ ____
ROOT
ATOM      1  C   UNL     1       2.430   2.750  21.333  0.00  0.00    +0.000 C 
ATOM      2  C   UNL     1       2.439   3.255  19.870  0.00  0.00    +0.000 C 
ATOM      3  C   UNL     1       1.551   2.288  19.057  0.00  0.00    +0.000 C 
ATOM      4  C   UNL     1       1.848   4.678  19.850  0.00  0.00    +0.000 C 
ATOM      5  C   UNL     1       1.914   5.415  18.510  0.00  0.00    +0.000 C 
ATOM      6  C   UNL     1       3.321   5.864  18.120  0.00  0.00    +0.000 C 
ATOM      7  N   UNL     1       4.149   4.865  17.435  0.00  0.00    +0.000 N 
ATOM      8  C   UNL     1       4.958   5.323  16.380  0.00  0.00    +0.000 C 
ATOM      9  O   UNL     1       4.956   6.513  16.051  0.00  0.00    +0.000 OA
ATOM     10  C   UNL     1       4.130   3.475  17.889  0.00  0.00    +0.000 C 
ATOM     11  C   UNL     1       3.906   3.243  19.383  0.00  0.00    +0.000 C 
ENDROOT
BRANCH   8  12
ATOM     12  C   UNL     1       5.900   4.326  15.679  0.00  0.00    +0.000 C 
ATOM     13  C   UNL     1       5.352   3.810  14.337  0.00  0.00    +0.000 C 
ATOM     14  C   UNL     1       6.363   4.223  13.326  0.00  0.00    +0.000 C 
ATOM     15  C   UNL     1       7.414   4.829  13.883  0.00  0.00    +0.000 C 
ATOM     16  C   UNL     1       7.288   4.922  15.367  0.00  0.00    +0.000 C 
ENDBRANCH   8  12
TORSDOF 1
ENDMDL
MODEL 4
REMARK VINA RESULT:      -6.6      1.901      3.097
REMARK  Name = 
REMARK  3 active torsions:
REMARK  status: ('A' for Active; 'I' for Inactive)
REMARK    1  A    between atoms: C_1  and  C_2
REMARK    2  A    between atoms: C_2  and  C_3
REMARK    3  A    between atoms: C_8  and  C_10
REMARK                            x       y       z     vdW  Elec       q    Type
REMARK                         _______ _______ _______ _____ _____    ______ ____
ROOT
ATOM      1  C   UNL     1       0.120   3.057  19.760  0.00  0.00    +0.000 C 
ATOM      2  C   UNL     1       1.666   2.997  19.718  0.00  0.00    +0.000 C 
ATOM      3  C   UNL     1       2.143   2.704  21.157  0.00  0.00    +0.000 C 
ATOM      4  C   UNL     1       2.075   1.853  18.770  0.00  0.00    +0.000 C 
ATOM      5  C   UNL     1       3.571   1.730  18.471  0.00  0.00    +0.000 C 
ATOM      6  C   UNL     1       4.114   2.835  17.566  0.00  0.00    +0.000 C 
ATOM      7  N   UNL     1       4.508   4.080  18.235  0.00  0.00    +0.000 N 
ATOM      8  C   UNL     1       5.672   4.713  17.768  0.00  0.00    +0.000 C 
ATOM      9  O   UNL     1       6.328   4.230  16.840  0.00  0.00    +0.000 OA
ATOM     10  C   UNL     1       3.674   4.619  19.310  0.00  0.00    +0.000 C 
ATOM     11  C   UNL     1       2.171   4.365  19.206  0.00  0.00    +0.000 C 
ENDROOT
BRANCH   8  12
ATOM     12  C   UNL     1       6.086   6.061  18.389  0.00  0.00    +0.000 C 
ATOM     13  C   UNL     1       7.432   6.003  19.131  0.00  0.00    +0.000 C 
ATOM     14  C   UNL     1       8.300   6.989  18.429  0.00  0.00    +0.000 C 
ATOM     15  C   UNL     1       7.646   7.632  17.459  0.00  0.00    +0.000 C 
ATOM     16  C   UNL     1       6.226   7.190  17.347  0.00  0.00    +0.000 C 
ENDBRANCH   8  12
TORSDOF 1
ENDMDL
MODEL 5
REMARK VINA RESULT:      -6.5      1.826      3.003
REMARK  Name = 
REMARK  3 active torsions:
REMARK  status: ('A' for Active; 'I' for Inactive)
REMARK    1  A    between atoms: C_1  and  C_2
REMARK    2  A    between atoms: C_2  and  C_3
REMARK    3  A    between atoms: C_8  and  C_10
REMARK                            x       y       z     vdW  Elec       q    Type
REMARK                         _______ _______ _______ _____ _____    ______ ____
ROOT
ATOM      1  C   UNL     1       1.656   4.330  19.327  0.00  0.00    +0.000 C 
ATOM      2  C   UNL     1       2.927   5.020  18.774  0.00  0.00    +0.000 C 
ATOM      3  C   UNL     1       2.621   6.532  18.702  0.00  0.00    +0.000 C 
ATOM      4  C   UNL     1       4.085   4.750  19.755  0.00  0.00    +0.000 C 
ATOM      5  C   UNL     1       5.470   5.220  19.306  0.00  0.00    +0.000 C 
ATOM      6  C   UNL     1       6.071   4.384  18.177  0.00  0.00    +0.000 C 
ATOM      7  N   UNL     1       5.673   4.758  16.815  0.00  0.00    +0.000 N 
ATOM      8  C   UNL     1       6.670   4.712  15.825  0.00  0.00    +0.000 C 
ATOM      9  O   UNL     1       7.824   4.377  16.103  0.00  0.00    +0.000 OA
ATOM     10  C   UNL     1       4.282   5.119  16.542  0.00  0.00    +0.000 C 
ATOM     11  C   UNL     1       3.213   4.419  17.379  0.00  0.00    +0.000 C 
ENDROOT
BRANCH   8  12
ATOM     12  C   UNL     1       6.283   5.026  14.367  0.00  0.00    +0.000 C 
ATOM     13  C   UNL     1       7.497   5.283  13.457  0.00  0.00    +0.000 C 
ATOM     14  C   UNL     1       7.410   4.239  12.398  0.00  0.00    +0.000 C 
ATOM     15  C   UNL     1       6.319   3.481  12.528  0.00  0.00    +0.000 C 
ATOM     16  C   UNL     1       5.485   3.889  13.695  0.00  0.00    +0.000 C 
ENDBRANCH   8  12
TORSDOF 1
ENDMDL
MODEL 6
REMARK VINA RESULT:      -6.3      1.886      5.789
REMARK  Name = 
REMARK  3 active torsions:
REMARK  status: ('A' for Active; 'I' for Inactive)
REMARK    1  A    between atoms: C_1  and  C_2
REMARK    2  A    between atoms: C_2  and  C_3
REMARK    3  A    between atoms: C_8  and  C_10
REMARK                            x       y       z     vdW  Elec       q    Type
REMARK                         _______ _______ _______ _____ _____    ______ ____
ROOT
ATOM      1  C   UNL     1       8.111   6.191  18.636  0.00  0.00    +0.000 C 
ATOM      2  C   UNL     1       6.733   5.990  17.961  0.00  0.00    +0.000 C 
ATOM      3  C   UNL     1       6.246   7.385  17.513  0.00  0.00    +0.000 C 
ATOM      4  C   UNL     1       6.926   5.068  16.741  0.00  0.00    +0.000 C 
ATOM      5  C   UNL     1       5.648   4.622  16.026  0.00  0.00    +0.000 C 
ATOM      6  C   UNL     1       4.822   3.607  16.814  0.00  0.00    +0.000 C 
ATOM      7  N   UNL     1       3.890   4.162  17.802  0.00  0.00    +0.000 N 
ATOM      8  C   UNL     1       2.634   3.542  17.912  0.00  0.00    +0.000 C 
ATOM      9  O   UNL     1       2.338   2.578  17.200  0.00  0.00    +0.000 OA
ATOM     10  C   UNL     1       4.309   5.287  18.638  0.00  0.00    +0.000 C 
ATOM     11  C   UNL     1       5.790   5.355  19.008  0.00  0.00    +0.000 C 
ENDROOT
BRANCH   8  12
ATOM     12  C   UNL     1       1.649   4.042  18.986  0.00  0.00    +0.000 C 
ATOM     13  C   UNL     1       0.769   2.926  19.574  0.00  0.00    +0.000 C 
ATOM     14  C   UNL     1       1.082   2.917  21.030  0.00  0.00    +0.000 C 
ATOM     15  C   UNL     1       1.943   3.880  21.365  0.00  0.00    +0.000 C 
ATOM     16  C   UNL     1       2.352   4.703  20.190  0.00  0.00    +0.000 C 
ENDBRANCH   8  12
TORSDOF 1
ENDMDL
MODEL 7
REMARK VINA RESULT:      -6.2      1.772      2.448
REMARK  Name = 
REMARK  3 active torsions:
REMARK  status: ('A' for Active; 'I' for Inactive)
REMARK    1  A    between atoms: C_1  and  C_2
REMARK    2  A    between atoms: C_2  and  C_3
REMARK    3  A    between atoms: C_8  and  C_10
REMARK                            x       y       z     vdW  Elec       q    Type
REMARK                         _______ _______ _______ _____ _____    ______ ____
ROOT
ATOM      1  C   UNL     1       1.635   2.575  21.259  0.00  0.00    +0.000 C 
ATOM      2  C   UNL     1       2.158   2.974  19.858  0.00  0.00    +0.000 C 
ATOM      3  C   UNL     1       2.364   1.665  19.066  0.00  0.00    +0.000 C 
ATOM      4  C   UNL     1       1.090   3.854  19.180  0.00  0.00    +0.000 C 
ATOM      5  C   UNL     1       1.486   4.482  17.842  0.00  0.00    +0.000 C 
ATOM      6  C   UNL     1       2.509   5.611  17.968  0.00  0.00    +0.000 C 
ATOM      7  N   UNL     1       3.917   5.202  18.015  0.00  0.00    +0.000 N 
ATOM      8  C   UNL     1       4.837   6.001  17.315  0.00  0.00    +0.000 C 
ATOM      9  O   UNL     1       4.463   6.995  16.687  0.00  0.00    +0.000 OA
ATOM     10  C   UNL     1       4.303   4.030  18.801  0.00  0.00    +0.000 C 
ATOM     11  C   UNL     1       3.483   3.745  20.059  0.00  0.00    +0.000 C 
ENDROOT
BRANCH   8  12
ATOM     12  C   UNL     1       6.335   5.654  17.397  0.00  0.00    +0.000 C 
ATOM     13  C   UNL     1       7.255   6.846  17.082  0.00  0.00    +0.000 C 
ATOM     14  C   UNL     1       8.067   7.041  18.315  0.00  0.00    +0.000 C 
ATOM     15  C   UNL     1       7.800   6.119  19.243  0.00  0.00    +0.000 C 
ATOM     16  C   UNL     1       6.764   5.147  18.789  0.00  0.00    +0.000 C 
ENDBRANCH   8  12
TORSDOF 1
ENDMDL
MODEL 8
REMARK VINA RESULT:      -6.1      1.449      5.581
REMARK  Name = 
REMARK  3 active torsions:
REMARK  status: ('A' for Active; 'I' for Inactive)
REMARK    1  A    between atoms: C_1  and  C_2
REMARK    2  A    between atoms: C_2  and  C_3
REMARK    3  A    between atoms: C_8  and  C_10
REMARK                            x       y       z     vdW  Elec       q    Type
REMARK                         _______ _______ _______ _____ _____    ______ ____
ROOT
ATOM      1  C   UNL     1       6.308   4.016  14.513  0.00  0.00    +0.000 C 
ATOM      2  C   UNL     1       6.099   4.634  15.916  0.00  0.00    +0.000 C 
ATOM      3  C   UNL     1       7.398   4.387  16.713  0.00  0.00    +0.000 C 
ATOM      4  C   UNL     1       5.850   6.145  15.743  0.00  0.00    +0.000 C 
ATOM      5  C   UNL     1       5.465   6.913  17.009  0.00  0.00    +0.000 C 
ATOM      6  C   UNL     1       4.052   6.615  17.507  0.00  0.00    +0.000 C 
ATOM      7  N   UNL     1       3.906   5.435  18.366  0.00  0.00    +0.000 N 
ATOM      8  C   UNL     1       3.026   5.544  19.456  0.00  0.00    +0.000 C 
ATOM      9  O   UNL     1       2.414   6.594  19.673  0.00  0.00    +0.000 OA
ATOM     10  C   UNL     1       4.636   4.209  18.040  0.00  0.00    +0.000 C 
ATOM     11  C   UNL     1       4.882   3.929  16.559  0.00  0.00    +0.000 C 
ENDROOT
BRANCH   8  12
ATOM     12  C   UNL     1       2.784   4.308  20.343  0.00  0.00    +0.000 C 
ATOM     13  C   UNL     1       1.328   4.177  20.823  0.00  0.00    +0.000 C 
ATOM     14  C   UNL     1       0.862   2.870  20.283  0.00  0.00    +0.000 C 
ATOM     15  C   UNL     1       1.831   2.220  19.635  0.00  0.00    +0.000 C 
ATOM     16  C   UNL     1       3.114   2.979  19.632  0.00  0.00    +0.000 C 
ENDBRANCH   8  12
TORSDOF 1
ENDMDL
MODEL 9
REMARK VINA RESULT:      -6.0      1.266      1.608
REMARK  Name = 
REMARK  3 active torsions:
REMARK  status: ('A' for Active; 'I' for Inactive)
REMARK    1  A    between atoms: C_1  and  C_2
REMARK    2  A    between atoms: C_2  and  C_3
REMARK    3  A    between atoms: C_8  and  C_10
REMARK                            x       y       z     vdW  Elec       q    Type
REMARK                         _______ _______ _______ _____ _____    ______ ____
ROOT
ATOM      1  C   UNL     1       2.026   3.459  20.579  0.00  0.00    +0.000 C 
ATOM      2  C   UNL     1       2.366   4.157  19.240  0.00  0.00    +0.000 C 
ATOM      3  C   UNL     1       1.235   3.803  18.250  0.00  0.00    +0.000 C 
ATOM      4  C   UNL     1       2.409   5.677  19.489  0.00  0.00    +0.000 C 
ATOM      5  C   UNL     1       2.884   6.538  18.316  0.00  0.00    +0.000 C 
ATOM      6  C   UNL     1       4.380   6.421  18.029  0.00  0.00    +0.000 C 
ATOM      7  N   UNL     1       4.787   5.302  17.171  0.00  0.00    +0.000 N 
ATOM      8  C   UNL     1       5.799   5.556  16.230  0.00  0.00    +0.000 C 
ATOM      9  O   UNL     1       6.310   6.675  16.136  0.00  0.00    +0.000 OA
ATOM     10  C   UNL     1       4.164   3.990  17.351  0.00  0.00    +0.000 C 
ATOM     11  C   UNL     1       3.738   3.621  18.771  0.00  0.00    +0.000 C 
ENDROOT
BRANCH   8  12
ATOM     12  C   UNL     1       6.311   4.394  15.358  0.00  0.00    +0.000 C 
ATOM     13  C   UNL     1       5.208   3.737  14.510  0.00  0.00    +0.000 C 
ATOM     14  C   UNL     1       5.652   3.914  13.100  0.00  0.00    +0.000 C 
ATOM     15  C   UNL     1       6.846   4.505  13.019  0.00  0.00    +0.000 C 
ATOM     16  C   UNL     1       7.410   4.822  14.364  0.00  0.00    +0.000 C 
ENDBRANCH   8  12
TORSDOF 1
ENDMDL
