MODEL 1
REMARK VINA RESULT:      -6.7      0.000      0.000
REMARK  Name = 
REMARK  19 active torsions:
REMARK  status: ('A' for Active; 'I' for Inactive)
REMARK    1  A    between atoms: C_1  and  C_2
REMARK    2  A    between atoms: C_2  and  C_3
REMARK    3  A    between atoms: C_3  and  C_4
REMARK    4  A    between atoms: C_4  and  C_5
REMARK    5  A    between atoms: C_5  and  C_6
REMARK    6  A    between atoms: C_6  and  C_7
REMARK    7  A    between atoms: C_7  and  C_8
REMARK    8  A    between atoms: C_8  and  C_9
REMARK    9  A    between atoms: N_11  and  C_12
REMARK   10  A    between atoms: C_12  and  C_13
REMARK   11  A    between atoms: C_16  and  O_17
REMARK   12  A    between atoms: O_17  and  C_18
REMARK   13  A    between atoms: C_18  and  C_19
REMARK   14  A    between atoms: C_19  and  O_20
REMARK   15  A    between atoms: C_19  and  C_21
REMARK   16  A    between atoms: C_21  and  C_22
REMARK   17  A    between atoms: C_22  and  N_23
REMARK   18  A    between atoms: C_29  and  O_30
REMARK   19  A    between atoms: O_30  and  C_31
REMARK                            x       y       z     vdW  Elec       q    Type
REMARK                         _______ _______ _______ _____ _____    ______ ____
ROOT
ATOM      1  C   UNL     1       2.842   6.260  18.524  0.00  0.00    +0.000 A 
ATOM      2  C   UNL     1       2.578   5.761  19.800  0.00  0.00    +0.000 A 
ATOM      3  C   UNL     1       1.999   6.585  20.765  0.00  0.00    +0.000 A 
ATOM      4  C   UNL     1       1.655   7.914  20.476  0.00  0.00    +0.000 A 
ATOM      5  C   UNL     1       1.899   8.423  19.186  0.00  0.00    +0.000 A 
ATOM      6  C   UNL     1       2.493   7.587  18.227  0.00  0.00    +0.000 A 
ENDROOT
BRANCH   5   7
ATOM      7  O   UNL     1       1.532   9.713  18.920  0.00  0.00    +0.000 OA
ATOM      8  C   UNL     1       0.286   9.962  18.289  0.00  0.00    +0.000 C 
ENDBRANCH   5   7
BRANCH   1   9
ATOM      9  C   UNL     1       3.430   5.378  17.461  0.00  0.00    +0.000 C 
BRANCH   9  12
ATOM     10  C   UNL     1       5.902   5.506  17.595  0.00  0.00    +0.000 C 
ATOM     11  O   UNL     1       6.009   4.685  18.500  0.00  0.00    +0.000 OA
ATOM     12  N   UNL     1       4.714   5.890  17.023  0.00  0.00    +0.000 N 
ATOM     13  H   UNL     1       4.726   6.489  16.208  0.00  0.00    +0.000 HD
BRANCH  10  14
ATOM     14  C   UNL     1       7.116   6.198  17.002  0.00  0.00    +0.000 C 
BRANCH  14  15
ATOM     15  C   UNL     1       7.800   7.071  18.048  0.00  0.00    +0.000 C 
BRANCH  15  16
ATOM     16  C   UNL     1       7.845   8.543  17.643  0.00  0.00    +0.000 C 
BRANCH  16  17
ATOM     17  C   UNL     1       8.652   9.341  18.668  0.00  0.00    +0.000 C 
BRANCH  17  18
ATOM     18  C   UNL     1       9.183  10.649  18.089  0.00  0.00    +0.000 C 
BRANCH  18  19
ATOM     19  C   UNL     1       9.894  11.468  19.168  0.00  0.00    +0.000 C 
BRANCH  19  21
ATOM     20  C   UNL     1       9.458  12.141  21.554  0.00  0.00    +0.000 C 
ATOM     21  C   UNL     1       9.532  10.984  20.571  0.00  0.00    +0.000 C 
ENDBRANCH  19  21
ENDBRANCH  18  19
ENDBRANCH  17  18
ENDBRANCH  16  17
ENDBRANCH  15  16
ENDBRANCH  14  15
ENDBRANCH  10  14
ENDBRANCH   9  12
ENDBRANCH   1   9
BRANCH   4  22
ATOM     22  O   UNL     1       1.101   8.557  21.559  0.00  0.00    +0.000 OA
BRANCH  22  23
ATOM     23  C   UNL     1      -0.324   8.620  21.662  0.00  0.00    +0.000 C 
BRANCH  23  24
ATOM     24  C   UNL     1      -0.718   9.737  22.640  0.00  0.00    +0.000 C 
BRANCH  24  25
ATOM     25  O   UNL     1      -0.134   9.478  23.922  0.00  0.00    +0.000 OA
ATOM     26  H   UNL     1      -0.874   9.280  24.525  0.00  0.00    +0.000 HD
ENDBRANCH  24  25
BRANCH  24  27
ATOM     27  C   UNL     1      -0.299  11.142  22.196  0.00  0.00    +0.000 C 
BRANCH  27  28
ATOM     28  C   UNL     1      -1.201  12.224  22.783  0.00  0.00    +0.000 C 
BRANCH  28  29
ATOM     29  N   UNL     1      -2.363  12.477  21.921  0.00  0.00    +0.000 N 
ATOM     30  C   UNL     1      -3.628  12.668  22.464  0.00  0.00    +0.000 C 
ATOM     31  C   UNL     1      -4.745  12.714  21.723  0.00  0.00    +0.000 C 
ATOM     32  C   UNL     1      -4.686  12.546  20.227  0.00  0.00    +0.000 C 
ATOM     33  C   UNL     1      -3.278  12.483  19.698  0.00  0.00    +0.000 C 
ATOM     34  C   UNL     1      -2.230  12.448  20.537  0.00  0.00    +0.000 C 
ENDBRANCH  28  29
ENDBRANCH  27  28
ENDBRANCH  24  27
ENDBRANCH  23  24
ENDBRANCH  22  23
ENDBRANCH   4  22
TORSDOF 17
ENDMDL
MODEL 2
REMARK VINA RESULT:      -6.6      2.900      5.115
REMARK  Name = 
REMARK  19 active torsions:
REMARK  status: ('A' for Active; 'I' for Inactive)
REMARK    1  A    between atoms: C_1  and  C_2
REMARK    2  A    between atoms: C_2  and  C_3
REMARK    3  A    between atoms: C_3  and  C_4
REMARK    4  A    between atoms: C_4  and  C_5
REMARK    5  A    between atoms: C_5  and  C_6
REMARK    6  A    between atoms: C_6  and  C_7
REMARK    7  A    between atoms: C_7  and  C_8
REMARK    8  A    between atoms: C_8  and  C_9
REMARK    9  A    between atoms: N_11  and  C_12
REMARK   10  A    between atoms: C_12  and  C_13
REMARK   11  A    between atoms: C_16  and  O_17
REMARK   12  A    between atoms: O_17  and  C_18
REMARK   13  A    between atoms: C_18  and  C_19
REMARK   14  A    between atoms: C_19  and  O_20
REMARK   15  A    between atoms: C_19  and  C_21
REMARK   16  A    between atoms: C_21  and  C_22
REMARK   17  A    between atoms: C_22  and  N_23
REMARK   18  A    between atoms: C_29  and  O_30
REMARK   19  A    between atoms: O_30  and  C_31
REMARK                            x       y       z     vdW  Elec       q    Type
REMARK                         _______ _______ _______ _____ _____    ______ ____
ROOT
ATOM      1  C   UNL     1       2.175   7.058  18.940  0.00  0.00    +0.000 A 
ATOM      2  C   UNL     1       2.050   8.073  17.990  0.00  0.00    +0.000 A 
ATOM      3  C   UNL     1       1.567   9.326  18.368  0.00  0.00    +0.000 A 
ATOM      4  C   UNL     1       1.218   9.601  19.699  0.00  0.00    +0.000 A 
ATOM      5  C   UNL     1       1.358   8.590  20.670  0.00  0.00    +0.000 A 
ATOM      6  C   UNL     1       1.834   7.330  20.275  0.00  0.00    +0.000 A 
ENDROOT
BRANCH   5   7
ATOM      7  O   UNL     1       1.036   8.889  21.965  0.00  0.00    +0.000 OA
ATOM      8  C   UNL     1      -0.316   8.781  22.384  0.00  0.00    +0.000 C 
ENDBRANCH   5   7
BRANCH   1   9
ATOM      9  C   UNL     1       2.728   5.714  18.560  0.00  0.00    +0.000 C 
BRANCH   9  12
ATOM     10  C   UNL     1       4.997   4.789  18.938  0.00  0.00    +0.000 C 
ATOM     11  O   UNL     1       4.611   3.769  19.497  0.00  0.00    +0.000 OA
ATOM     12  N   UNL     1       4.172   5.770  18.443  0.00  0.00    +0.000 N 
ATOM     13  H   UNL     1       4.569   6.524  17.898  0.00  0.00    +0.000 HD
BRANCH  10  14
ATOM     14  C   UNL     1       6.473   5.075  18.734  0.00  0.00    +0.000 C 
BRANCH  14  15
ATOM     15  C   UNL     1       6.666   6.290  17.833  0.00  0.00    +0.000 C 
BRANCH  15  16
ATOM     16  C   UNL     1       7.011   5.904  16.396  0.00  0.00    +0.000 C 
BRANCH  16  17
ATOM     17  C   UNL     1       7.045   4.381  16.260  0.00  0.00    +0.000 C 
BRANCH  17  18
ATOM     18  C   UNL     1       5.920   3.858  15.370  0.00  0.00    +0.000 C 
BRANCH  18  19
ATOM     19  C   UNL     1       6.007   4.474  13.973  0.00  0.00    +0.000 C 
BRANCH  19  21
ATOM     20  C   UNL     1       4.953   3.364  11.975  0.00  0.00    +0.000 C 
ATOM     21  C   UNL     1       6.163   3.404  12.895  0.00  0.00    +0.000 C 
ENDBRANCH  19  21
ENDBRANCH  18  19
ENDBRANCH  17  18
ENDBRANCH  16  17
ENDBRANCH  15  16
ENDBRANCH  14  15
ENDBRANCH  10  14
ENDBRANCH   9  12
ENDBRANCH   1   9
BRANCH   4  22
ATOM     22  O   UNL     1       0.763  10.888  19.864  0.00  0.00    +0.000 OA
BRANCH  22  23
ATOM     23  C   UNL     1       0.596  11.708  18.704  0.00  0.00    +0.000 C 
BRANCH  23  24
ATOM     24  C   UNL     1      -0.844  12.244  18.660  0.00  0.00    +0.000 C 
BRANCH  24  25
ATOM     25  O   UNL     1      -1.075  12.889  17.403  0.00  0.00    +0.000 OA
ATOM     26  H   UNL     1      -0.855  12.235  16.714  0.00  0.00    +0.000 HD
ENDBRANCH  24  25
BRANCH  24  27
ATOM     27  C   UNL     1      -1.922  11.173  18.856  0.00  0.00    +0.000 C 
BRANCH  27  28
ATOM     28  C   UNL     1      -2.878  11.094  17.669  0.00  0.00    +0.000 C 
BRANCH  28  29
ATOM     29  N   UNL     1      -4.176  11.703  17.986  0.00  0.00    +0.000 N 
ATOM     30  C   UNL     1      -5.143  11.878  17.003  0.00  0.00    +0.000 C 
ATOM     31  C   UNL     1      -6.261  12.593  17.193  0.00  0.00    +0.000 C 
ATOM     32  C   UNL     1      -6.529  13.272  18.512  0.00  0.00    +0.000 C 
ATOM     33  C   UNL     1      -5.512  12.926  19.567  0.00  0.00    +0.000 C 
ATOM     34  C   UNL     1      -4.429  12.194  19.263  0.00  0.00    +0.000 C 
ENDBRANCH  28  29
ENDBRANCH  27  28
ENDBRANCH  24  27
ENDBRANCH  23  24
ENDBRANCH  22  23
ENDBRANCH   4  22
TORSDOF 17
ENDMDL
MODEL 3
REMARK VINA RESULT:      -6.6      3.955      6.011
REMARK  Name = 
REMARK  19 active torsions:
REMARK  status: ('A' for Active; 'I' for Inactive)
REMARK    1  A    between atoms: C_1  and  C_2
REMARK    2  A    between atoms: C_2  and  C_3
REMARK    3  A    between atoms: C_3  and  C_4
REMARK    4  A    between atoms: C_4  and  C_5
REMARK    5  A    between atoms: C_5  and  C_6
REMARK    6  A    between atoms: C_6  and  C_7
REMARK    7  A    between atoms: C_7  and  C_8
REMARK    8  A    between atoms: C_8  and  C_9
REMARK    9  A    between atoms: N_11  and  C_12
REMARK   10  A    between atoms: C_12  and  C_13
REMARK   11  A    between atoms: C_16  and  O_17
REMARK   12  A    between atoms: O_17  and  C_18
REMARK   13  A    between atoms: C_18  and  C_19
REMARK   14  A    between atoms: C_19  and  O_20
REMARK   15  A    between atoms: C_19  and  C_21
REMARK   16  A    between atoms: C_21  and  C_22
REMARK   17  A    between atoms: C_22  and  N_23
REMARK   18  A    between atoms: C_29  and  O_30
REMARK   19  A    between atoms: O_30  and  C_31
REMARK                            x       y       z     vdW  Elec       q    Type
REMARK                         _______ _______ _______ _____ _____    ______ ____
ROOT
ATOM      1  C   UNL     1       0.813   9.573  21.065  0.00  0.00    +0.000 A 
ATOM      2  C   UNL     1      -0.199   9.163  21.933  0.00  0.00    +0.000 A 
ATOM      3  C   UNL     1      -0.896  10.107  22.687  0.00  0.00    +0.000 A 
ATOM      4  C   UNL     1      -0.613  11.478  22.580  0.00  0.00    +0.000 A 
ATOM      5  C   UNL     1       0.394  11.904  21.693  0.00  0.00    +0.000 A 
ATOM      6  C   UNL     1       1.096  10.943  20.948  0.00  0.00    +0.000 A 
ENDROOT
BRANCH   5   7
ATOM      7  O   UNL     1       0.635  13.246  21.586  0.00  0.00    +0.000 OA
ATOM      8  C   UNL     1       0.432  13.889  20.337  0.00  0.00    +0.000 C 
ENDBRANCH   5   7
BRANCH   1   9
ATOM      9  C   UNL     1       1.549   8.575  20.217  0.00  0.00    +0.000 C 
BRANCH   9  12
ATOM     10  C   UNL     1       2.123   6.164  20.273  0.00  0.00    +0.000 C 
ATOM     11  O   UNL     1       2.849   6.198  19.286  0.00  0.00    +0.000 OA
ATOM     12  N   UNL     1       1.470   7.250  20.801  0.00  0.00    +0.000 N 
ATOM     13  H   UNL     1       0.981   7.155  21.682  0.00  0.00    +0.000 HD
BRANCH  10  14
ATOM     14  C   UNL     1       1.867   4.872  21.028  0.00  0.00    +0.000 C 
BRANCH  14  15
ATOM     15  C   UNL     1       0.993   3.933  20.204  0.00  0.00    +0.000 C 
BRANCH  15  16
ATOM     16  C   UNL     1       1.583   2.529  20.097  0.00  0.00    +0.000 C 
BRANCH  16  17
ATOM     17  C   UNL     1       1.668   2.110  18.629  0.00  0.00    +0.000 C 
BRANCH  17  18
ATOM     18  C   UNL     1       2.222   3.224  17.744  0.00  0.00    +0.000 C 
BRANCH  18  19
ATOM     19  C   UNL     1       3.730   3.059  17.549  0.00  0.00    +0.000 C 
BRANCH  19  21
ATOM     20  C   UNL     1       5.485   3.979  15.997  0.00  0.00    +0.000 C 
ATOM     21  C   UNL     1       4.361   4.320  16.963  0.00  0.00    +0.000 C 
ENDBRANCH  19  21
ENDBRANCH  18  19
ENDBRANCH  17  18
ENDBRANCH  16  17
ENDBRANCH  15  16
ENDBRANCH  14  15
ENDBRANCH  10  14
ENDBRANCH   9  12
ENDBRANCH   1   9
BRANCH   4  22
ATOM     22  O   UNL     1      -1.405  12.240  23.405  0.00  0.00    +0.000 OA
BRANCH  22  23
ATOM     23  C   UNL     1      -2.805  11.955  23.465  0.00  0.00    +0.000 C 
BRANCH  23  24
ATOM     24  C   UNL     1      -3.587  13.082  22.771  0.00  0.00    +0.000 C 
BRANCH  24  25
ATOM     25  O   UNL     1      -2.751  14.238  22.649  0.00  0.00    +0.000 OA
ATOM     26  H   UNL     1      -2.689  14.627  23.542  0.00  0.00    +0.000 HD
ENDBRANCH  24  25
BRANCH  24  27
ATOM     27  C   UNL     1      -4.115  12.720  21.379  0.00  0.00    +0.000 C 
BRANCH  27  28
ATOM     28  C   UNL     1      -3.117  13.066  20.278  0.00  0.00    +0.000 C 
BRANCH  28  29
ATOM     29  N   UNL     1      -3.102  12.039  19.228  0.00  0.00    +0.000 N 
ATOM     30  C   UNL     1      -4.258  11.714  18.528  0.00  0.00    +0.000 C 
ATOM     31  C   UNL     1      -4.343  10.664  17.699  0.00  0.00    +0.000 C 
ATOM     32  C   UNL     1      -3.163   9.751  17.487  0.00  0.00    +0.000 C 
ATOM     33  C   UNL     1      -1.912  10.241  18.166  0.00  0.00    +0.000 C 
ATOM     34  C   UNL     1      -1.943  11.313  18.973  0.00  0.00    +0.000 C 
ENDBRANCH  28  29
ENDBRANCH  27  28
ENDBRANCH  24  27
ENDBRANCH  23  24
ENDBRANCH  22  23
ENDBRANCH   4  22
TORSDOF 17
ENDMDL
MODEL 4
REMARK VINA RESULT:      -6.6      4.835      7.299
REMARK  Name = 
REMARK  19 active torsions:
REMARK  status: ('A' for Active; 'I' for Inactive)
REMARK    1  A    between atoms: C_1  and  C_2
REMARK    2  A    between atoms: C_2  and  C_3
REMARK    3  A    between atoms: C_3  and  C_4
REMARK    4  A    between atoms: C_4  and  C_5
REMARK    5  A    between atoms: C_5  and  C_6
REMARK    6  A    between atoms: C_6  and  C_7
REMARK    7  A    between atoms: C_7  and  C_8
REMARK    8  A    between atoms: C_8  and  C_9
REMARK    9  A    between atoms: N_11  and  C_12
REMARK   10  A    between atoms: C_12  and  C_13
REMARK   11  A    between atoms: C_16  and  O_17
REMARK   12  A    between atoms: O_17  and  C_18
REMARK   13  A    between atoms: C_18  and  C_19
REMARK   14  A    between atoms: C_19  and  O_20
REMARK   15  A    between atoms: C_19  and  C_21
REMARK   16  A    between atoms: C_21  and  C_22
REMARK   17  A    between atoms: C_22  and  N_23
REMARK   18  A    between atoms: C_29  and  O_30
REMARK   19  A    between atoms: O_30  and  C_31
REMARK                            x       y       z     vdW  Elec       q    Type
REMARK                         _______ _______ _______ _____ _____    ______ ____
ROOT
ATOM      1  C   UNL     1       7.665   7.845  17.802  0.00  0.00    +0.000 A 
ATOM      2  C   UNL     1       8.094   7.012  18.836  0.00  0.00    +0.000 A 
ATOM      3  C   UNL     1       7.516   5.753  19.002  0.00  0.00    +0.000 A 
ATOM      4  C   UNL     1       6.515   5.291  18.136  0.00  0.00    +0.000 A 
ATOM      5  C   UNL     1       6.087   6.116  17.078  0.00  0.00    +0.000 A 
ATOM      6  C   UNL     1       6.668   7.385  16.927  0.00  0.00    +0.000 A 
ENDROOT
BRANCH   5   7
ATOM      7  O   UNL     1       5.127   5.634  16.230  0.00  0.00    +0.000 OA
ATOM      8  C   UNL     1       5.524   4.926  15.066  0.00  0.00    +0.000 C 
ENDBRANCH   5   7
BRANCH   1   9
ATOM      9  C   UNL     1       8.300   9.188  17.584  0.00  0.00    +0.000 C 
BRANCH   9  12
ATOM     10  C   UNL     1       9.507  10.903  18.907  0.00  0.00    +0.000 C 
ATOM     11  O   UNL     1       9.542  11.735  18.008  0.00  0.00    +0.000 OA
ATOM     12  N   UNL     1       8.923   9.664  18.804  0.00  0.00    +0.000 N 
ATOM     13  H   UNL     1       8.842   9.083  19.628  0.00  0.00    +0.000 HD
BRANCH  10  14
ATOM     14  C   UNL     1      10.129  11.172  20.265  0.00  0.00    +0.000 C 
BRANCH  14  15
ATOM     15  C   UNL     1       9.125  11.851  21.191  0.00  0.00    +0.000 C 
BRANCH  15  16
ATOM     16  C   UNL     1       8.949  13.335  20.874  0.00  0.00    +0.000 C 
BRANCH  16  17
ATOM     17  C   UNL     1      10.169  14.119  21.359  0.00  0.00    +0.000 C 
BRANCH  17  18
ATOM     18  C   UNL     1      11.111  14.483  20.214  0.00  0.00    +0.000 C 
BRANCH  18  19
ATOM     19  C   UNL     1      10.409  15.397  19.208  0.00  0.00    +0.000 C 
BRANCH  19  21
ATOM     20  C   UNL     1      10.919  16.183  16.872  0.00  0.00    +0.000 C 
ATOM     21  C   UNL     1      10.698  14.976  17.769  0.00  0.00    +0.000 C 
ENDBRANCH  19  21
ENDBRANCH  18  19
ENDBRANCH  17  18
ENDBRANCH  16  17
ENDBRANCH  15  16
ENDBRANCH  14  15
ENDBRANCH  10  14
ENDBRANCH   9  12
ENDBRANCH   1   9
BRANCH   4  22
ATOM     22  O   UNL     1       6.076   4.031  18.470  0.00  0.00    +0.000 OA
BRANCH  22  23
ATOM     23  C   UNL     1       5.185   3.889  19.579  0.00  0.00    +0.000 C 
BRANCH  23  24
ATOM     24  C   UNL     1       4.375   2.593  19.423  0.00  0.00    +0.000 C 
BRANCH  24  25
ATOM     25  O   UNL     1       5.170   1.479  19.841  0.00  0.00    +0.000 OA
ATOM     26  H   UNL     1       5.273   0.905  19.059  0.00  0.00    +0.000 HD
ENDBRANCH  24  25
BRANCH  24  27
ATOM     27  C   UNL     1       3.061   2.570  20.211  0.00  0.00    +0.000 C 
BRANCH  27  28
ATOM     28  C   UNL     1       1.890   3.106  19.393  0.00  0.00    +0.000 C 
BRANCH  28  29
ATOM     29  N   UNL     1       1.889   4.575  19.359  0.00  0.00    +0.000 N 
ATOM     30  C   UNL     1       2.238   5.264  18.203  0.00  0.00    +0.000 C 
ATOM     31  C   UNL     1       2.434   6.590  18.171  0.00  0.00    +0.000 C 
ATOM     32  C   UNL     1       2.296   7.421  19.421  0.00  0.00    +0.000 C 
ATOM     33  C   UNL     1       1.785   6.632  20.597  0.00  0.00    +0.000 C 
ATOM     34  C   UNL     1       1.618   5.304  20.512  0.00  0.00    +0.000 C 
ENDBRANCH  28  29
ENDBRANCH  27  28
ENDBRANCH  24  27
ENDBRANCH  23  24
ENDBRANCH  22  23
ENDBRANCH   4  22
TORSDOF 17
ENDMDL
MODEL 5
REMARK VINA RESULT:      -6.6      3.589      6.197
REMARK  Name = 
REMARK  19 active torsions:
REMARK  status: ('A' for Active; 'I' for Inactive)
REMARK    1  A    between atoms: C_1  and  C_2
REMARK    2  A    between atoms: C_2  and  C_3
REMARK    3  A    between atoms: C_3  and  C_4
REMARK    4  A    between atoms: C_4  and  C_5
REMARK    5  A    between atoms: C_5  and  C_6
REMARK    6  A    between atoms: C_6  and  C_7
REMARK    7  A    between atoms: C_7  and  C_8
REMARK    8  A    between atoms: C_8  and  C_9
REMARK    9  A    between atoms: N_11  and  C_12
REMARK   10  A    between atoms: C_12  and  C_13
REMARK   11  A    between atoms: C_16  and  O_17
REMARK   12  A    between atoms: O_17  and  C_18
REMARK   13  A    between atoms: C_18  and  C_19
REMARK   14  A    between atoms: C_19  and  O_20
REMARK   15  A    between atoms: C_19  and  C_21
REMARK   16  A    between atoms: C_21  and  C_22
REMARK   17  A    between atoms: C_22  and  N_23
REMARK   18  A    between atoms: C_29  and  O_30
REMARK   19  A    between atoms: O_30  and  C_31
REMARK                            x       y       z     vdW  Elec       q    Type
REMARK                         _______ _______ _______ _____ _____    ______ ____
ROOT
ATOM      1  C   UNL     1       4.212   4.505  18.302  0.00  0.00    +0.000 A 
ATOM      2  C   UNL     1       3.805   5.702  17.711  0.00  0.00    +0.000 A 
ATOM      3  C   UNL     1       2.842   6.496  18.335  0.00  0.00    +0.000 A 
ATOM      4  C   UNL     1       2.279   6.126  19.566  0.00  0.00    +0.000 A 
ATOM      5  C   UNL     1       2.696   4.929  20.180  0.00  0.00    +0.000 A 
ATOM      6  C   UNL     1       3.657   4.133  19.537  0.00  0.00    +0.000 A 
ENDROOT
BRANCH   5   7
ATOM      7  O   UNL     1       2.152   4.602  21.392  0.00  0.00    +0.000 OA
ATOM      8  C   UNL     1       2.049   3.234  21.757  0.00  0.00    +0.000 C 
ENDBRANCH   5   7
BRANCH   1   9
ATOM      9  C   UNL     1       5.274   3.656  17.664  0.00  0.00    +0.000 C 
BRANCH   9  12
ATOM     10  C   UNL     1       6.732   4.481  15.837  0.00  0.00    +0.000 C 
ATOM     11  O   UNL     1       7.752   4.520  16.515  0.00  0.00    +0.000 OA
ATOM     12  N   UNL     1       5.504   4.068  16.293  0.00  0.00    +0.000 N 
ATOM     13  H   UNL     1       4.740   3.961  15.638  0.00  0.00    +0.000 HD
BRANCH  10  14
ATOM     14  C   UNL     1       6.729   4.901  14.378  0.00  0.00    +0.000 C 
BRANCH  14  15
ATOM     15  C   UNL     1       6.615   3.682  13.469  0.00  0.00    +0.000 C 
BRANCH  15  16
ATOM     16  C   UNL     1       6.086   4.035  12.081  0.00  0.00    +0.000 C 
BRANCH  16  17
ATOM     17  C   UNL     1       5.126   2.948  11.597  0.00  0.00    +0.000 C 
BRANCH  17  18
ATOM     18  C   UNL     1       3.681   3.437  11.548  0.00  0.00    +0.000 C 
BRANCH  18  19
ATOM     19  C   UNL     1       3.099   3.260  10.144  0.00  0.00    +0.000 C 
BRANCH  19  21
ATOM     20  C   UNL     1       1.951   5.067   8.819  0.00  0.00    +0.000 C 
ATOM     21  C   UNL     1       3.286   4.516   9.296  0.00  0.00    +0.000 C 
ENDBRANCH  19  21
ENDBRANCH  18  19
ENDBRANCH  17  18
ENDBRANCH  16  17
ENDBRANCH  15  16
ENDBRANCH  14  15
ENDBRANCH  10  14
ENDBRANCH   9  12
ENDBRANCH   1   9
BRANCH   4  22
ATOM     22  O   UNL     1       1.351   7.038  20.010  0.00  0.00    +0.000 OA
BRANCH  22  23
ATOM     23  C   UNL     1       1.775   8.059  20.917  0.00  0.00    +0.000 C 
BRANCH  23  24
ATOM     24  C   UNL     1       1.061   9.376  20.575  0.00  0.00    +0.000 C 
BRANCH  24  25
ATOM     25  O   UNL     1       0.992   9.527  19.153  0.00  0.00    +0.000 OA
ATOM     26  H   UNL     1       1.893   9.757  18.858  0.00  0.00    +0.000 HD
ENDBRANCH  24  25
BRANCH  24  27
ATOM     27  C   UNL     1      -0.358   9.490  21.141  0.00  0.00    +0.000 C 
BRANCH  27  28
ATOM     28  C   UNL     1      -0.415  10.383  22.376  0.00  0.00    +0.000 C 
BRANCH  28  29
ATOM     29  N   UNL     1      -1.422  11.441  22.226  0.00  0.00    +0.000 N 
ATOM     30  C   UNL     1      -2.258  11.788  23.281  0.00  0.00    +0.000 C 
ATOM     31  C   UNL     1      -3.311  12.607  23.144  0.00  0.00    +0.000 C 
ATOM     32  C   UNL     1      -3.658  13.200  21.803  0.00  0.00    +0.000 C 
ATOM     33  C   UNL     1      -2.634  12.894  20.743  0.00  0.00    +0.000 C 
ATOM     34  C   UNL     1      -1.612  12.060  20.995  0.00  0.00    +0.000 C 
ENDBRANCH  28  29
ENDBRANCH  27  28
ENDBRANCH  24  27
ENDBRANCH  23  24
ENDBRANCH  22  23
ENDBRANCH   4  22
TORSDOF 17
ENDMDL
MODEL 6
REMARK VINA RESULT:      -6.5      3.134      9.287
REMARK  Name = 
REMARK  19 active torsions:
REMARK  status: ('A' for Active; 'I' for Inactive)
REMARK    1  A    between atoms: C_1  and  C_2
REMARK    2  A    between atoms: C_2  and  C_3
REMARK    3  A    between atoms: C_3  and  C_4
REMARK    4  A    between atoms: C_4  and  C_5
REMARK    5  A    between atoms: C_5  and  C_6
REMARK    6  A    between atoms: C_6  and  C_7
REMARK    7  A    between atoms: C_7  and  C_8
REMARK    8  A    between atoms: C_8  and  C_9
REMARK    9  A    between atoms: N_11  and  C_12
REMARK   10  A    between atoms: C_12  and  C_13
REMARK   11  A    between atoms: C_16  and  O_17
REMARK   12  A    between atoms: O_17  and  C_18
REMARK   13  A    between atoms: C_18  and  C_19
REMARK   14  A    between atoms: C_19  and  O_20
REMARK   15  A    between atoms: C_19  and  C_21
REMARK   16  A    between atoms: C_21  and  C_22
REMARK   17  A    between atoms: C_22  and  N_23
REMARK   18  A    between atoms: C_29  and  O_30
REMARK   19  A    between atoms: O_30  and  C_31
REMARK                            x       y       z     vdW  Elec       q    Type
REMARK                         _______ _______ _______ _____ _____    ______ ____
ROOT
ATOM      1  C   UNL     1       2.213   9.351  18.538  0.00  0.00    +0.000 A 
ATOM      2  C   UNL     1       2.750   8.191  17.980  0.00  0.00    +0.000 A 
ATOM      3  C   UNL     1       2.646   6.977  18.659  0.00  0.00    +0.000 A 
ATOM      4  C   UNL     1       1.991   6.888  19.896  0.00  0.00    +0.000 A 
ATOM      5  C   UNL     1       1.428   8.050  20.461  0.00  0.00    +0.000 A 
ATOM      6  C   UNL     1       1.550   9.267  19.773  0.00  0.00    +0.000 A 
ENDROOT
BRANCH   5   7
ATOM      7  O   UNL     1       0.772   7.935  21.656  0.00  0.00    +0.000 OA
ATOM      8  C   UNL     1      -0.323   8.794  21.929  0.00  0.00    +0.000 C 
ENDBRANCH   5   7
BRANCH   1   9
ATOM      9  C   UNL     1       2.282  10.660  17.806  0.00  0.00    +0.000 C 
BRANCH   9  12
ATOM     10  C   UNL     1       1.127  12.649  18.731  0.00  0.00    +0.000 C 
ATOM     11  O   UNL     1       2.145  13.182  19.158  0.00  0.00    +0.000 OA
ATOM     12  N   UNL     1       1.094  11.452  18.059  0.00  0.00    +0.000 N 
ATOM     13  H   UNL     1       0.225  11.139  17.645  0.00  0.00    +0.000 HD
BRANCH  10  14
ATOM     14  C   UNL     1      -0.239  13.284  18.913  0.00  0.00    +0.000 C 
BRANCH  14  15
ATOM     15  C   UNL     1      -1.069  12.494  19.920  0.00  0.00    +0.000 C 
BRANCH  15  16
ATOM     16  C   UNL     1      -2.250  11.777  19.271  0.00  0.00    +0.000 C 
BRANCH  16  17
ATOM     17  C   UNL     1      -1.833  10.372  18.837  0.00  0.00    +0.000 C 
BRANCH  17  18
ATOM     18  C   UNL     1      -2.528   9.936  17.550  0.00  0.00    +0.000 C 
BRANCH  18  19
ATOM     19  C   UNL     1      -2.440  11.036  16.490  0.00  0.00    +0.000 C 
BRANCH  19  21
ATOM     20  C   UNL     1      -3.038   9.993  14.279  0.00  0.00    +0.000 C 
ATOM     21  C   UNL     1      -3.518  10.874  15.421  0.00  0.00    +0.000 C 
ENDBRANCH  19  21
ENDBRANCH  18  19
ENDBRANCH  17  18
ENDBRANCH  16  17
ENDBRANCH  15  16
ENDBRANCH  14  15
ENDBRANCH  10  14
ENDBRANCH   9  12
ENDBRANCH   1   9
BRANCH   4  22
ATOM     22  O   UNL     1       1.999   5.609  20.401  0.00  0.00    +0.000 OA
BRANCH  22  23
ATOM     23  C   UNL     1       1.920   4.512  19.487  0.00  0.00    +0.000 C 
BRANCH  23  24
ATOM     24  C   UNL     1       2.626   3.289  20.092  0.00  0.00    +0.000 C 
BRANCH  24  25
ATOM     25  O   UNL     1       1.831   2.120  19.870  0.00  0.00    +0.000 OA
ATOM     26  H   UNL     1       2.454   1.399  19.664  0.00  0.00    +0.000 HD
ENDBRANCH  24  25
BRANCH  24  27
ATOM     27  C   UNL     1       4.029   3.030  19.534  0.00  0.00    +0.000 C 
BRANCH  27  28
ATOM     28  C   UNL     1       4.100   3.256  18.028  0.00  0.00    +0.000 C 
BRANCH  28  29
ATOM     29  N   UNL     1       5.014   4.356  17.693  0.00  0.00    +0.000 N 
ATOM     30  C   UNL     1       5.980   4.783  18.596  0.00  0.00    +0.000 C 
ATOM     31  C   UNL     1       6.708   5.895  18.420  0.00  0.00    +0.000 C 
ATOM     32  C   UNL     1       6.504   6.768  17.208  0.00  0.00    +0.000 C 
ATOM     33  C   UNL     1       5.545   6.173  16.212  0.00  0.00    +0.000 C 
ATOM     34  C   UNL     1       4.872   5.047  16.494  0.00  0.00    +0.000 C 
ENDBRANCH  28  29
ENDBRANCH  27  28
ENDBRANCH  24  27
ENDBRANCH  23  24
ENDBRANCH  22  23
ENDBRANCH   4  22
TORSDOF 17
ENDMDL
MODEL 7
REMARK VINA RESULT:      -6.5      1.868      3.216
REMARK  Name = 
REMARK  19 active torsions:
REMARK  status: ('A' for Active; 'I' for Inactive)
REMARK    1  A    between atoms: C_1  and  C_2
REMARK    2  A    between atoms: C_2  and  C_3
REMARK    3  A    between atoms: C_3  and  C_4
REMARK    4  A    between atoms: C_4  and  C_5
REMARK    5  A    between atoms: C_5  and  C_6
REMARK    6  A    between atoms: C_6  and  C_7
REMARK    7  A    between atoms: C_7  and  C_8
REMARK    8  A    between atoms: C_8  and  C_9
REMARK    9  A    between atoms: N_11  and  C_12
REMARK   10  A    between atoms: C_12  and  C_13
REMARK   11  A    between atoms: C_16  and  O_17
REMARK   12  A    between atoms: O_17  and  C_18
REMARK   13  A    between atoms: C_18  and  C_19
REMARK   14  A    between atoms: C_19  and  O_20
REMARK   15  A    between atoms: C_19  and  C_21
REMARK   16  A    between atoms: C_21  and  C_22
REMARK   17  A    between atoms: C_22  and  N_23
REMARK   18  A    between atoms: C_29  and  O_30
REMARK   19  A    between atoms: O_30  and  C_31
REMARK                            x       y       z     vdW  Elec       q    Type
REMARK                         _______ _______ _______ _____ _____    ______ ____
ROOT
ATOM      1  C   UNL     1       2.689   7.027  19.048  0.00  0.00    +0.000 A 
ATOM      2  C   UNL     1       2.517   7.677  17.826  0.00  0.00    +0.000 A 
ATOM      3  C   UNL     1       1.714   8.816  17.749  0.00  0.00    +0.000 A 
ATOM      4  C   UNL     1       1.083   9.340  18.887  0.00  0.00    +0.000 A 
ATOM      5  C   UNL     1       1.265   8.702  20.129  0.00  0.00    +0.000 A 
ATOM      6  C   UNL     1       2.066   7.551  20.191  0.00  0.00    +0.000 A 
ENDROOT
BRANCH   5   7
ATOM      7  O   UNL     1       0.660   9.245  21.229  0.00  0.00    +0.000 OA
ATOM      8  C   UNL     1       1.281   9.110  22.498  0.00  0.00    +0.000 C 
ENDBRANCH   5   7
BRANCH   1   9
ATOM      9  C   UNL     1       3.579   5.822  19.158  0.00  0.00    +0.000 C 
BRANCH   9  12
ATOM     10  C   UNL     1       5.995   5.523  18.686  0.00  0.00    +0.000 C 
ATOM     11  O   UNL     1       6.242   4.932  19.731  0.00  0.00    +0.000 OA
ATOM     12  N   UNL     1       4.751   5.973  18.317  0.00  0.00    +0.000 N 
ATOM     13  H   UNL     1       4.615   6.352  17.388  0.00  0.00    +0.000 HD
BRANCH  10  14
ATOM     14  C   UNL     1       7.078   5.822  17.666  0.00  0.00    +0.000 C 
BRANCH  14  15
ATOM     15  C   UNL     1       7.170   7.322  17.405  0.00  0.00    +0.000 C 
BRANCH  15  16
ATOM     16  C   UNL     1       8.195   8.011  18.303  0.00  0.00    +0.000 C 
BRANCH  16  17
ATOM     17  C   UNL     1       8.367   9.469  17.875  0.00  0.00    +0.000 C 
BRANCH  17  18
ATOM     18  C   UNL     1       9.157  10.280  18.899  0.00  0.00    +0.000 C 
BRANCH  18  19
ATOM     19  C   UNL     1       9.114  11.770  18.556  0.00  0.00    +0.000 C 
BRANCH  19  21
ATOM     20  C   UNL     1      10.654  11.762  20.547  0.00  0.00    +0.000 C 
ATOM     21  C   UNL     1       9.782  12.614  19.639  0.00  0.00    +0.000 C 
ENDBRANCH  19  21
ENDBRANCH  18  19
ENDBRANCH  17  18
ENDBRANCH  16  17
ENDBRANCH  15  16
ENDBRANCH  14  15
ENDBRANCH  10  14
ENDBRANCH   9  12
ENDBRANCH   1   9
BRANCH   4  22
ATOM     22  O   UNL     1       0.337  10.459  18.601  0.00  0.00    +0.000 OA
BRANCH  22  23
ATOM     23  C   UNL     1      -1.078  10.409  18.803  0.00  0.00    +0.000 C 
BRANCH  23  24
ATOM     24  C   UNL     1      -1.795  10.750  17.488  0.00  0.00    +0.000 C 
BRANCH  24  25
ATOM     25  O   UNL     1      -2.302   9.549  16.895  0.00  0.00    +0.000 OA
ATOM     26  H   UNL     1      -1.877   9.474  16.020  0.00  0.00    +0.000 HD
ENDBRANCH  24  25
BRANCH  24  27
ATOM     27  C   UNL     1      -2.956  11.738  17.639  0.00  0.00    +0.000 C 
BRANCH  27  28
ATOM     28  C   UNL     1      -4.313  11.061  17.477  0.00  0.00    +0.000 C 
BRANCH  28  29
ATOM     29  N   UNL     1      -5.154  11.257  18.665  0.00  0.00    +0.000 N 
ATOM     30  C   UNL     1      -6.337  10.546  18.830  0.00  0.00    +0.000 C 
ATOM     31  C   UNL     1      -7.230  10.820  19.792  0.00  0.00    +0.000 C 
ATOM     32  C   UNL     1      -6.997  11.949  20.763  0.00  0.00    +0.000 C 
ATOM     33  C   UNL     1      -5.639  12.581  20.612  0.00  0.00    +0.000 C 
ATOM     34  C   UNL     1      -4.821  12.222  19.610  0.00  0.00    +0.000 C 
ENDBRANCH  28  29
ENDBRANCH  27  28
ENDBRANCH  24  27
ENDBRANCH  23  24
ENDBRANCH  22  23
ENDBRANCH   4  22
TORSDOF 17
ENDMDL
MODEL 8
REMARK VINA RESULT:      -6.4      2.719      4.396
REMARK  Name = 
REMARK  19 active torsions:
REMARK  status: ('A' for Active; 'I' for Inactive)
REMARK    1  A    between atoms: C_1  and  C_2
REMARK    2  A    between atoms: C_2  and  C_3
REMARK    3  A    between atoms: C_3  and  C_4
REMARK    4  A    between atoms: C_4  and  C_5
REMARK    5  A    between atoms: C_5  and  C_6
REMARK    6  A    between atoms: C_6  and  C_7
REMARK    7  A    between atoms: C_7  and  C_8
REMARK    8  A    between atoms: C_8  and  C_9
REMARK    9  A    between atoms: N_11  and  C_12
REMARK   10  A    between atoms: C_12  and  C_13
REMARK   11  A    between atoms: C_16  and  O_17
REMARK   12  A    between atoms: O_17  and  C_18
REMARK   13  A    between atoms: C_18  and  C_19
REMARK   14  A    between atoms: C_19  and  O_20
REMARK   15  A    between atoms: C_19  and  C_21
REMARK   16  A    between atoms: C_21  and  C_22
REMARK   17  A    between atoms: C_22  and  N_23
REMARK   18  A    between atoms: C_29  and  O_30
REMARK   19  A    between atoms: O_30  and  C_31
REMARK                            x       y       z     vdW  Elec       q    Type
REMARK                         _______ _______ _______ _____ _____    ______ ____
ROOT
ATOM      1  C   UNL     1       1.595   7.470  20.370  0.00  0.00    +0.000 A 
ATOM      2  C   UNL     1       2.007   7.854  19.093  0.00  0.00    +0.000 A 
ATOM      3  C   UNL     1       1.675   9.117  18.604  0.00  0.00    +0.000 A 
ATOM      4  C   UNL     1       0.944  10.030  19.379  0.00  0.00    +0.000 A 
ATOM      5  C   UNL     1       0.539   9.660  20.676  0.00  0.00    +0.000 A 
ATOM      6  C   UNL     1       0.869   8.381  21.153  0.00  0.00    +0.000 A 
ENDROOT
BRANCH   5   7
ATOM      7  O   UNL     1      -0.151  10.574  21.423  0.00  0.00    +0.000 OA
ATOM      8  C   UNL     1      -0.570  10.224  22.733  0.00  0.00    +0.000 C 
ENDBRANCH   5   7
BRANCH   1   9
ATOM      9  C   UNL     1       1.975   6.128  20.929  0.00  0.00    +0.000 C 
BRANCH   9  12
ATOM     10  C   UNL     1       3.326   4.311  19.920  0.00  0.00    +0.000 C 
ATOM     11  O   UNL     1       2.476   3.441  20.070  0.00  0.00    +0.000 OA
ATOM     12  N   UNL     1       3.173   5.626  20.284  0.00  0.00    +0.000 N 
ATOM     13  H   UNL     1       3.881   6.300  20.023  0.00  0.00    +0.000 HD
BRANCH  10  14
ATOM     14  C   UNL     1       4.675   4.005  19.295  0.00  0.00    +0.000 C 
BRANCH  14  15
ATOM     15  C   UNL     1       4.530   3.757  17.797  0.00  0.00    +0.000 C 
BRANCH  15  16
ATOM     16  C   UNL     1       3.747   4.864  17.094  0.00  0.00    +0.000 C 
BRANCH  16  17
ATOM     17  C   UNL     1       4.681   6.024  16.750  0.00  0.00    +0.000 C 
BRANCH  17  18
ATOM     18  C   UNL     1       5.742   5.625  15.727  0.00  0.00    +0.000 C 
BRANCH  18  19
ATOM     19  C   UNL     1       7.144   5.759  16.323  0.00  0.00    +0.000 C 
BRANCH  19  21
ATOM     20  C   UNL     1       7.751   6.158  18.733  0.00  0.00    +0.000 C 
ATOM     21  C   UNL     1       7.174   6.770  17.467  0.00  0.00    +0.000 C 
ENDBRANCH  19  21
ENDBRANCH  18  19
ENDBRANCH  17  18
ENDBRANCH  16  17
ENDBRANCH  15  16
ENDBRANCH  14  15
ENDBRANCH  10  14
ENDBRANCH   9  12
ENDBRANCH   1   9
BRANCH   4  22
ATOM     22  O   UNL     1       0.718  11.214  18.718  0.00  0.00    +0.000 OA
BRANCH  22  23
ATOM     23  C   UNL     1       0.375  12.372  19.484  0.00  0.00    +0.000 C 
BRANCH  23  24
ATOM     24  C   UNL     1      -0.919  12.987  18.930  0.00  0.00    +0.000 C 
BRANCH  24  25
ATOM     25  O   UNL     1      -0.963  12.809  17.510  0.00  0.00    +0.000 OA
ATOM     26  H   UNL     1      -0.062  12.992  17.182  0.00  0.00    +0.000 HD
ENDBRANCH  24  25
BRANCH  24  27
ATOM     27  C   UNL     1      -2.203  12.404  19.528  0.00  0.00    +0.000 C 
BRANCH  27  28
ATOM     28  C   UNL     1      -3.058  11.701  18.479  0.00  0.00    +0.000 C 
BRANCH  28  29
ATOM     29  N   UNL     1      -4.483  11.746  18.833  0.00  0.00    +0.000 N 
ATOM     30  C   UNL     1      -4.918  12.422  19.967  0.00  0.00    +0.000 C 
ATOM     31  C   UNL     1      -6.171  12.336  20.437  0.00  0.00    +0.000 C 
ATOM     32  C   UNL     1      -7.196  11.472  19.749  0.00  0.00    +0.000 C 
ATOM     33  C   UNL     1      -6.695  10.883  18.457  0.00  0.00    +0.000 C 
ATOM     34  C   UNL     1      -5.416  11.038  18.082  0.00  0.00    +0.000 C 
ENDBRANCH  28  29
ENDBRANCH  27  28
ENDBRANCH  24  27
ENDBRANCH  23  24
ENDBRANCH  22  23
ENDBRANCH   4  22
TORSDOF 17
ENDMDL
MODEL 9
REMARK VINA RESULT:      -6.4      3.223      5.465
REMARK  Name = 
REMARK  19 active torsions:
REMARK  status: ('A' for Active; 'I' for Inactive)
REMARK    1  A    between atoms: C_1  and  C_2
REMARK    2  A    between atoms: C_2  and  C_3
REMARK    3  A    between atoms: C_3  and  C_4
REMARK    4  A    between atoms: C_4  and  C_5
REMARK    5  A    between atoms: C_5  and  C_6
REMARK    6  A    between atoms: C_6  and  C_7
REMARK    7  A    between atoms: C_7  and  C_8
REMARK    8  A    between atoms: C_8  and  C_9
REMARK    9  A    between atoms: N_11  and  C_12
REMARK   10  A    between atoms: C_12  and  C_13
REMARK   11  A    between atoms: C_16  and  O_17
REMARK   12  A    between atoms: O_17  and  C_18
REMARK   13  A    between atoms: C_18  and  C_19
REMARK   14  A    between atoms: C_19  and  O_20
REMARK   15  A    between atoms: C_19  and  C_21
REMARK   16  A    between atoms: C_21  and  C_22
REMARK   17  A    between atoms: C_22  and  N_23
REMARK   18  A    between atoms: C_29  and  O_30
REMARK   19  A    between atoms: O_30  and  C_31
REMARK                            x       y       z     vdW  Elec       q    Type
REMARK                         _______ _______ _______ _____ _____    ______ ____
ROOT
ATOM      1  C   UNL     1       2.135   7.469  19.547  0.00  0.00    +0.000 A 
ATOM      2  C   UNL     1       2.189   8.419  18.526  0.00  0.00    +0.000 A 
ATOM      3  C   UNL     1       1.422   9.581  18.614  0.00  0.00    +0.000 A 
ATOM      4  C   UNL     1       0.603   9.831  19.725  0.00  0.00    +0.000 A 
ATOM      5  C   UNL     1       0.555   8.888  20.770  0.00  0.00    +0.000 A 
ATOM      6  C   UNL     1       1.322   7.717  20.665  0.00  0.00    +0.000 A 
ENDROOT
BRANCH   5   7
ATOM      7  O   UNL     1      -0.231   9.164  21.855  0.00  0.00    +0.000 OA
ATOM      8  C   UNL     1       0.380   9.590  23.062  0.00  0.00    +0.000 C 
ENDBRANCH   5   7
BRANCH   1   9
ATOM      9  C   UNL     1       2.980   6.229  19.488  0.00  0.00    +0.000 C 
BRANCH   9  12
ATOM     10  C   UNL     1       5.287   5.959  18.620  0.00  0.00    +0.000 C 
ATOM     11  O   UNL     1       5.738   5.468  19.649  0.00  0.00    +0.000 OA
ATOM     12  N   UNL     1       3.979   6.341  18.443  0.00  0.00    +0.000 N 
ATOM     13  H   UNL     1       3.667   6.633  17.526  0.00  0.00    +0.000 HD
BRANCH  10  14
ATOM     14  C   UNL     1       6.162   6.200  17.404  0.00  0.00    +0.000 C 
BRANCH  14  15
ATOM     15  C   UNL     1       5.314   6.274  16.138  0.00  0.00    +0.000 C 
BRANCH  15  16
ATOM     16  C   UNL     1       5.512   5.063  15.230  0.00  0.00    +0.000 C 
BRANCH  16  17
ATOM     17  C   UNL     1       5.364   3.774  16.040  0.00  0.00    +0.000 C 
BRANCH  17  18
ATOM     18  C   UNL     1       3.908   3.481  16.392  0.00  0.00    +0.000 C 
BRANCH  18  19
ATOM     19  C   UNL     1       3.813   2.740  17.727  0.00  0.00    +0.000 C 
BRANCH  19  21
ATOM     20  C   UNL     1       1.410   3.360  18.141  0.00  0.00    +0.000 C 
ATOM     21  C   UNL     1       2.401   2.219  17.982  0.00  0.00    +0.000 C 
ENDBRANCH  19  21
ENDBRANCH  18  19
ENDBRANCH  17  18
ENDBRANCH  16  17
ENDBRANCH  15  16
ENDBRANCH  14  15
ENDBRANCH  10  14
ENDBRANCH   9  12
ENDBRANCH   1   9
BRANCH   4  22
ATOM     22  O   UNL     1      -0.070  11.025  19.619  0.00  0.00    +0.000 OA
BRANCH  22  23
ATOM     23  C   UNL     1      -1.491  10.999  19.457  0.00  0.00    +0.000 C 
BRANCH  23  24
ATOM     24  C   UNL     1      -1.880  11.819  18.217  0.00  0.00    +0.000 C 
BRANCH  24  25
ATOM     25  O   UNL     1      -0.717  12.466  17.688  0.00  0.00    +0.000 OA
ATOM     26  H   UNL     1      -1.026  13.025  16.951  0.00  0.00    +0.000 HD
ENDBRANCH  24  25
BRANCH  24  27
ATOM     27  C   UNL     1      -2.527  11.000  17.096  0.00  0.00    +0.000 C 
BRANCH  27  28
ATOM     28  C   UNL     1      -3.665  10.123  17.608  0.00  0.00    +0.000 C 
BRANCH  28  29
ATOM     29  N   UNL     1      -4.928  10.870  17.677  0.00  0.00    +0.000 N 
ATOM     30  C   UNL     1      -5.146  11.983  16.874  0.00  0.00    +0.000 C 
ATOM     31  C   UNL     1      -6.193  12.806  17.029  0.00  0.00    +0.000 C 
ATOM     32  C   UNL     1      -7.207  12.568  18.118  0.00  0.00    +0.000 C 
ATOM     33  C   UNL     1      -6.984  11.274  18.855  0.00  0.00    +0.000 C 
ATOM     34  C   UNL     1      -5.898  10.524  18.612  0.00  0.00    +0.000 C 
ENDBRANCH  28  29
ENDBRANCH  27  28
ENDBRANCH  24  27
ENDBRANCH  23  24
ENDBRANCH  22  23
ENDBRANCH   4  22
TORSDOF 17
ENDMDL
