MODEL 1
REMARK VINA RESULT:      -6.4      0.000      0.000
REMARK  Name = 
REMARK  6 active torsions:
REMARK  status: ('A' for Active; 'I' for Inactive)
REMARK    1  A    between atoms: C_1  and  C_2
REMARK    2  A    between atoms: C_5  and  C_6
REMARK    3  A    between atoms: N_8  and  C_9
REMARK    4  A    between atoms: N_8  and  C_16
REMARK    5  A    between atoms: C_9  and  C_10
REMARK    6  A    between atoms: N_20  and  C_21
REMARK                            x       y       z     vdW  Elec       q    Type
REMARK                         _______ _______ _______ _____ _____    ______ ____
ROOT
ATOM      1  C   UNL     1       4.151   5.313  17.298  0.00  0.00    +0.000 C 
ATOM      2  O   UNL     1       3.635   4.274  16.860  0.00  0.00    +0.000 OA
ATOM      3  N   UNL     1       5.541   5.518  17.161  0.00  0.00    +0.000 N 
ENDROOT
BRANCH   1   8
ATOM      4  C   UNL     1       1.397   7.976  20.772  0.00  0.00    +0.000 C 
ATOM      5  C   UNL     1       2.091   7.437  19.569  0.00  0.00    +0.000 A 
ATOM      6  C   UNL     1       2.693   6.230  19.290  0.00  0.00    +0.000 A 
ATOM      7 BR   UNL     1       2.780   4.756  20.454  0.00  0.00    +0.000 Br
ATOM      8  C   UNL     1       3.267   6.322  17.982  0.00  0.00    +0.000 A 
ATOM      9  N   UNL     1       2.990   7.546  17.473  0.00  0.00    +0.000 NA
ATOM     10  N   UNL     1       2.326   8.193  18.451  0.00  0.00    +0.000 N 
ATOM     11  C   UNL     1       2.027   9.600  18.314  0.00  0.00    +0.000 C 
ENDBRANCH   1   8
BRANCH   3  12
ATOM     12  C   UNL     1       6.278   6.598  17.774  0.00  0.00    +0.000 C 
ATOM     13  C   UNL     1       7.558   6.310  18.534  0.00  0.00    +0.000 C 
ATOM     14  C   UNL     1       7.598   7.124  17.282  0.00  0.00    +0.000 C 
ENDBRANCH   3  12
BRANCH   3  15
ATOM     15  C   UNL     1       6.368   4.402  16.647  0.00  0.00    +0.000 C 
BRANCH  15  16
ATOM     16  C   UNL     1       6.536   4.403  15.140  0.00  0.00    +0.000 A 
ATOM     17  C   UNL     1       5.714   3.624  14.314  0.00  0.00    +0.000 A 
ATOM     18  C   UNL     1       5.975   3.576  12.950  0.00  0.00    +0.000 A 
ATOM     19  N   UNL     1       6.950   4.287  12.352  0.00  0.00    +0.000 NA
ATOM     20  C   UNL     1       7.691   5.084  13.151  0.00  0.00    +0.000 A 
ATOM     21  C   UNL     1       7.522   5.177  14.525  0.00  0.00    +0.000 A 
ENDBRANCH  15  16
ENDBRANCH   3  15
TORSDOF 4
ENDMDL
MODEL 2
REMARK VINA RESULT:      -6.2      0.154      1.034
REMARK  Name = 
REMARK  6 active torsions:
REMARK  status: ('A' for Active; 'I' for Inactive)
REMARK    1  A    between atoms: C_1  and  C_2
REMARK    2  A    between atoms: C_5  and  C_6
REMARK    3  A    between atoms: N_8  and  C_9
REMARK    4  A    between atoms: N_8  and  C_16
REMARK    5  A    between atoms: C_9  and  C_10
REMARK    6  A    between atoms: N_20  and  C_21
REMARK                            x       y       z     vdW  Elec       q    Type
REMARK                         _______ _______ _______ _____ _____    ______ ____
ROOT
ATOM      1  C   UNL     1       4.192   5.362  17.342  0.00  0.00    +0.000 C 
ATOM      2  O   UNL     1       3.675   4.334  16.880  0.00  0.00    +0.000 OA
ATOM      3  N   UNL     1       5.592   5.533  17.277  0.00  0.00    +0.000 N 
ENDROOT
BRANCH   1   8
ATOM      4  C   UNL     1       1.366   8.131  20.671  0.00  0.00    +0.000 C 
ATOM      5  C   UNL     1       2.089   7.558  19.502  0.00  0.00    +0.000 A 
ATOM      6  C   UNL     1       2.688   6.340  19.269  0.00  0.00    +0.000 A 
ATOM      7 BR   UNL     1       2.729   4.893  20.471  0.00  0.00    +0.000 Br
ATOM      8  C   UNL     1       3.299   6.395  17.976  0.00  0.00    +0.000 A 
ATOM      9  N   UNL     1       3.048   7.609  17.430  0.00  0.00    +0.000 NA
ATOM     10  N   UNL     1       2.362   8.284  18.373  0.00  0.00    +0.000 N 
ATOM     11  C   UNL     1       2.079   9.690  18.194  0.00  0.00    +0.000 C 
ENDBRANCH   1   8
BRANCH   3  12
ATOM     12  C   UNL     1       6.322   6.598  17.924  0.00  0.00    +0.000 C 
ATOM     13  C   UNL     1       7.673   6.320  18.555  0.00  0.00    +0.000 C 
ATOM     14  C   UNL     1       7.570   7.237  17.381  0.00  0.00    +0.000 C 
ENDBRANCH   3  12
BRANCH   3  15
ATOM     15  C   UNL     1       6.418   4.395  16.810  0.00  0.00    +0.000 C 
BRANCH  15  16
ATOM     16  C   UNL     1       6.629   4.364  15.309  0.00  0.00    +0.000 A 
ATOM     17  C   UNL     1       7.614   5.149  14.695  0.00  0.00    +0.000 A 
ATOM     18  C   UNL     1       7.699   5.167  13.308  0.00  0.00    +0.000 A 
ATOM     19  N   UNL     1       6.918   4.422  12.503  0.00  0.00    +0.000 NA
ATOM     20  C   UNL     1       6.018   3.619  13.112  0.00  0.00    +0.000 A 
ATOM     21  C   UNL     1       5.842   3.554  14.487  0.00  0.00    +0.000 A 
ENDBRANCH  15  16
ENDBRANCH   3  15
TORSDOF 4
ENDMDL
MODEL 3
REMARK VINA RESULT:      -6.2      3.016      4.868
REMARK  Name = 
REMARK  6 active torsions:
REMARK  status: ('A' for Active; 'I' for Inactive)
REMARK    1  A    between atoms: C_1  and  C_2
REMARK    2  A    between atoms: C_5  and  C_6
REMARK    3  A    between atoms: N_8  and  C_9
REMARK    4  A    between atoms: N_8  and  C_16
REMARK    5  A    between atoms: C_9  and  C_10
REMARK    6  A    between atoms: N_20  and  C_21
REMARK                            x       y       z     vdW  Elec       q    Type
REMARK                         _______ _______ _______ _____ _____    ______ ____
ROOT
ATOM      1  C   UNL     1       2.219   7.472  19.121  0.00  0.00    +0.000 C 
ATOM      2  O   UNL     1       2.693   7.905  18.061  0.00  0.00    +0.000 OA
ATOM      3  N   UNL     1       2.305   6.094  19.418  0.00  0.00    +0.000 N 
ENDROOT
BRANCH   1   8
ATOM      4  C   UNL     1      -0.845  11.089  21.186  0.00  0.00    +0.000 C 
ATOM      5  C   UNL     1       0.158  10.030  20.888  0.00  0.00    +0.000 A 
ATOM      6  C   UNL     1       0.651   9.502  19.715  0.00  0.00    +0.000 A 
ATOM      7 BR   UNL     1       0.178  10.057  17.982  0.00  0.00    +0.000 Br
ATOM      8  C   UNL     1       1.548   8.441  20.059  0.00  0.00    +0.000 A 
ATOM      9  N   UNL     1       1.616   8.351  21.408  0.00  0.00    +0.000 NA
ATOM     10  N   UNL     1       0.755   9.280  21.867  0.00  0.00    +0.000 N 
ATOM     11  C   UNL     1       0.441   9.342  23.277  0.00  0.00    +0.000 C 
ENDBRANCH   1   8
BRANCH   3  12
ATOM     12  C   UNL     1       1.649   5.449  20.531  0.00  0.00    +0.000 C 
ATOM     13  C   UNL     1       0.948   4.119  20.332  0.00  0.00    +0.000 C 
ATOM     14  C   UNL     1       2.147   4.207  21.219  0.00  0.00    +0.000 C 
ENDBRANCH   3  12
BRANCH   3  15
ATOM     15  C   UNL     1       2.811   5.180  18.367  0.00  0.00    +0.000 C 
BRANCH  15  16
ATOM     16  C   UNL     1       4.323   5.100  18.296  0.00  0.00    +0.000 A 
ATOM     17  C   UNL     1       4.976   4.656  17.138  0.00  0.00    +0.000 A 
ATOM     18  C   UNL     1       6.356   4.498  17.157  0.00  0.00    +0.000 A 
ATOM     19  N   UNL     1       7.128   4.803  18.219  0.00  0.00    +0.000 NA
ATOM     20  C   UNL     1       6.491   5.294  19.304  0.00  0.00    +0.000 A 
ATOM     21  C   UNL     1       5.116   5.460  19.387  0.00  0.00    +0.000 A 
ENDBRANCH  15  16
ENDBRANCH   3  15
TORSDOF 4
ENDMDL
MODEL 4
REMARK VINA RESULT:      -6.2      0.977      1.069
REMARK  Name = 
REMARK  6 active torsions:
REMARK  status: ('A' for Active; 'I' for Inactive)
REMARK    1  A    between atoms: C_1  and  C_2
REMARK    2  A    between atoms: C_5  and  C_6
REMARK    3  A    between atoms: N_8  and  C_9
REMARK    4  A    between atoms: N_8  and  C_16
REMARK    5  A    between atoms: C_9  and  C_10
REMARK    6  A    between atoms: N_20  and  C_21
REMARK                            x       y       z     vdW  Elec       q    Type
REMARK                         _______ _______ _______ _____ _____    ______ ____
ROOT
ATOM      1  C   UNL     1       4.737   4.600  17.183  0.00  0.00    +0.000 C 
ATOM      2  O   UNL     1       4.518   3.446  16.787  0.00  0.00    +0.000 OA
ATOM      3  N   UNL     1       5.962   5.229  16.870  0.00  0.00    +0.000 N 
ENDROOT
BRANCH   1   8
ATOM      4  C   UNL     1       1.451   5.968  20.934  0.00  0.00    +0.000 C 
ATOM      5  C   UNL     1       2.277   5.829  19.702  0.00  0.00    +0.000 A 
ATOM      6  C   UNL     1       3.062   4.814  19.204  0.00  0.00    +0.000 A 
ATOM      7 BR   UNL     1       3.306   3.128  19.999  0.00  0.00    +0.000 Br
ATOM      8  C   UNL     1       3.681   5.292  18.004  0.00  0.00    +0.000 A 
ATOM      9  N   UNL     1       3.255   6.556  17.770  0.00  0.00    +0.000 NA
ATOM     10  N   UNL     1       2.454   6.855  18.813  0.00  0.00    +0.000 N 
ATOM     11  C   UNL     1       1.959   8.203  18.979  0.00  0.00    +0.000 C 
ENDBRANCH   1   8
BRANCH   3  12
ATOM     12  C   UNL     1       6.399   6.495  17.411  0.00  0.00    +0.000 C 
ATOM     13  C   UNL     1       7.484   6.536  18.469  0.00  0.00    +0.000 C 
ATOM     14  C   UNL     1       7.728   7.138  17.124  0.00  0.00    +0.000 C 
ENDBRANCH   3  12
BRANCH   3  15
ATOM     15  C   UNL     1       7.020   4.421  16.221  0.00  0.00    +0.000 C 
BRANCH  15  16
ATOM     16  C   UNL     1       6.968   4.441  14.706  0.00  0.00    +0.000 A 
ATOM     17  C   UNL     1       6.115   3.586  13.994  0.00  0.00    +0.000 A 
ATOM     18  C   UNL     1       6.180   3.566  12.607  0.00  0.00    +0.000 A 
ATOM     19  N   UNL     1       6.985   4.370  11.885  0.00  0.00    +0.000 NA
ATOM     20  C   UNL     1       7.752   5.235  12.583  0.00  0.00    +0.000 A 
ATOM     21  C   UNL     1       7.775   5.309  13.968  0.00  0.00    +0.000 A 
ENDBRANCH  15  16
ENDBRANCH   3  15
TORSDOF 4
ENDMDL
MODEL 5
REMARK VINA RESULT:      -6.1      2.876      4.636
REMARK  Name = 
REMARK  6 active torsions:
REMARK  status: ('A' for Active; 'I' for Inactive)
REMARK    1  A    between atoms: C_1  and  C_2
REMARK    2  A    between atoms: C_5  and  C_6
REMARK    3  A    between atoms: N_8  and  C_9
REMARK    4  A    between atoms: N_8  and  C_16
REMARK    5  A    between atoms: C_9  and  C_10
REMARK    6  A    between atoms: N_20  and  C_21
REMARK                            x       y       z     vdW  Elec       q    Type
REMARK                         _______ _______ _______ _____ _____    ______ ____
ROOT
ATOM      1  C   UNL     1       2.519   6.987  18.973  0.00  0.00    +0.000 C 
ATOM      2  O   UNL     1       2.936   7.348  17.864  0.00  0.00    +0.000 OA
ATOM      3  N   UNL     1       2.742   5.663  19.410  0.00  0.00    +0.000 N 
ENDROOT
BRANCH   1   8
ATOM      4  C   UNL     1      -0.185  11.068  20.636  0.00  0.00    +0.000 C 
ATOM      5  C   UNL     1       0.574   9.799  20.463  0.00  0.00    +0.000 A 
ATOM      6  C   UNL     1       1.368   9.306  19.452  0.00  0.00    +0.000 A 
ATOM      7 BR   UNL     1       1.795  10.208  17.857  0.00  0.00    +0.000 Br
ATOM      8  C   UNL     1       1.769   7.982  19.819  0.00  0.00    +0.000 A 
ATOM      9  N   UNL     1       1.252   7.695  21.037  0.00  0.00    +0.000 NA
ATOM     10  N   UNL     1       0.521   8.777  21.373  0.00  0.00    +0.000 N 
ATOM     11  C   UNL     1      -0.322   8.743  22.547  0.00  0.00    +0.000 C 
ENDBRANCH   1   8
BRANCH   3  12
ATOM     12  C   UNL     1       2.164   5.080  20.599  0.00  0.00    +0.000 C 
ATOM     13  C   UNL     1       0.999   4.116  20.483  0.00  0.00    +0.000 C 
ATOM     14  C   UNL     1       2.314   3.641  21.009  0.00  0.00    +0.000 C 
ENDBRANCH   3  12
BRANCH   3  15
ATOM     15  C   UNL     1       3.321   4.695  18.450  0.00  0.00    +0.000 C 
BRANCH  15  16
ATOM     16  C   UNL     1       4.826   4.800  18.302  0.00  0.00    +0.000 A 
ATOM     17  C   UNL     1       5.628   5.289  19.342  0.00  0.00    +0.000 A 
ATOM     18  C   UNL     1       6.988   5.467  19.122  0.00  0.00    +0.000 A 
ATOM     19  N   UNL     1       7.607   5.142  17.970  0.00  0.00    +0.000 NA
ATOM     20  C   UNL     1       6.832   4.609  17.001  0.00  0.00    +0.000 A 
ATOM     21  C   UNL     1       5.463   4.419  17.119  0.00  0.00    +0.000 A 
ENDBRANCH  15  16
ENDBRANCH   3  15
TORSDOF 4
ENDMDL
MODEL 6
REMARK VINA RESULT:      -6.1      3.219      5.008
REMARK  Name = 
REMARK  6 active torsions:
REMARK  status: ('A' for Active; 'I' for Inactive)
REMARK    1  A    between atoms: C_1  and  C_2
REMARK    2  A    between atoms: C_5  and  C_6
REMARK    3  A    between atoms: N_8  and  C_9
REMARK    4  A    between atoms: N_8  and  C_16
REMARK    5  A    between atoms: C_9  and  C_10
REMARK    6  A    between atoms: N_20  and  C_21
REMARK                            x       y       z     vdW  Elec       q    Type
REMARK                         _______ _______ _______ _____ _____    ______ ____
ROOT
ATOM      1  C   UNL     1       2.121   7.947  19.189  0.00  0.00    +0.000 C 
ATOM      2  O   UNL     1       2.455   8.464  18.113  0.00  0.00    +0.000 OA
ATOM      3  N   UNL     1       2.437   6.596  19.446  0.00  0.00    +0.000 N 
ENDROOT
BRANCH   1   8
ATOM      4  C   UNL     1      -1.272  11.095  21.495  0.00  0.00    +0.000 C 
ATOM      5  C   UNL     1      -0.166  10.169  21.124  0.00  0.00    +0.000 A 
ATOM      6  C   UNL     1       0.356   9.761  19.917  0.00  0.00    +0.000 A 
ATOM      7 BR   UNL     1      -0.212  10.350  18.224  0.00  0.00    +0.000 Br
ATOM      8  C   UNL     1       1.370   8.787  20.188  0.00  0.00    +0.000 A 
ATOM      9  N   UNL     1       1.477   8.635  21.529  0.00  0.00    +0.000 NA
ATOM     10  N   UNL     1       0.529   9.439  22.051  0.00  0.00    +0.000 N 
ATOM     11  C   UNL     1       0.242   9.393  23.467  0.00  0.00    +0.000 C 
ENDBRANCH   1   8
BRANCH   3  12
ATOM     12  C   UNL     1       1.960   5.840  20.581  0.00  0.00    +0.000 C 
ATOM     13  C   UNL     1       0.935   4.741  20.385  0.00  0.00    +0.000 C 
ATOM     14  C   UNL     1       2.308   4.405  20.865  0.00  0.00    +0.000 C 
ENDBRANCH   3  12
BRANCH   3  15
ATOM     15  C   UNL     1       3.010   5.787  18.345  0.00  0.00    +0.000 C 
BRANCH  15  16
ATOM     16  C   UNL     1       4.520   5.870  18.241  0.00  0.00    +0.000 A 
ATOM     17  C   UNL     1       5.351   5.267  19.194  0.00  0.00    +0.000 A 
ATOM     18  C   UNL     1       6.725   5.461  19.115  0.00  0.00    +0.000 A 
ATOM     19  N   UNL     1       7.325   6.159  18.132  0.00  0.00    +0.000 NA
ATOM     20  C   UNL     1       6.516   6.678  17.183  0.00  0.00    +0.000 A 
ATOM     21  C   UNL     1       5.134   6.560  17.193  0.00  0.00    +0.000 A 
ENDBRANCH  15  16
ENDBRANCH   3  15
TORSDOF 4
ENDMDL
MODEL 7
REMARK VINA RESULT:      -6.0      4.067      7.777
REMARK  Name = 
REMARK  6 active torsions:
REMARK  status: ('A' for Active; 'I' for Inactive)
REMARK    1  A    between atoms: C_1  and  C_2
REMARK    2  A    between atoms: C_5  and  C_6
REMARK    3  A    between atoms: N_8  and  C_9
REMARK    4  A    between atoms: N_8  and  C_16
REMARK    5  A    between atoms: C_9  and  C_10
REMARK    6  A    between atoms: N_20  and  C_21
REMARK                            x       y       z     vdW  Elec       q    Type
REMARK                         _______ _______ _______ _____ _____    ______ ____
ROOT
ATOM      1  C   UNL     1       2.082   8.138  18.529  0.00  0.00    +0.000 C 
ATOM      2  O   UNL     1       2.331   8.600  17.406  0.00  0.00    +0.000 OA
ATOM      3  N   UNL     1       1.375   8.919  19.468  0.00  0.00    +0.000 N 
ENDROOT
BRANCH   1   8
ATOM      4  C   UNL     1       4.923   3.852  19.075  0.00  0.00    +0.000 C 
ATOM      5  C   UNL     1       3.880   4.914  19.067  0.00  0.00    +0.000 A 
ATOM      6  C   UNL     1       3.758   6.111  18.397  0.00  0.00    +0.000 A 
ATOM      7 BR   UNL     1       4.982   6.791  17.142  0.00  0.00    +0.000 Br
ATOM      8  C   UNL     1       2.563   6.749  18.858  0.00  0.00    +0.000 A 
ATOM      9  N   UNL     1       1.962   5.941  19.764  0.00  0.00    +0.000 NA
ATOM     10  N   UNL     1       2.786   4.881  19.891  0.00  0.00    +0.000 N 
ATOM     11  C   UNL     1       2.540   3.894  20.917  0.00  0.00    +0.000 C 
ENDBRANCH   1   8
BRANCH   3  12
ATOM     12  C   UNL     1       1.173   8.560  20.852  0.00  0.00    +0.000 C 
ATOM     13  C   UNL     1       0.960   9.640  21.894  0.00  0.00    +0.000 C 
ATOM     14  C   UNL     1      -0.134   8.672  21.587  0.00  0.00    +0.000 C 
ENDBRANCH   3  12
BRANCH   3  15
ATOM     15  C   UNL     1       1.100  10.337  19.137  0.00  0.00    +0.000 C 
BRANCH  15  16
ATOM     16  C   UNL     1      -0.334  10.606  18.725  0.00  0.00    +0.000 A 
ATOM     17  C   UNL     1      -0.935   9.901  17.673  0.00  0.00    +0.000 A 
ATOM     18  C   UNL     1      -2.213  10.256  17.263  0.00  0.00    +0.000 A 
ATOM     19  N   UNL     1      -2.948  11.217  17.857  0.00  0.00    +0.000 NA
ATOM     20  C   UNL     1      -2.381  11.842  18.911  0.00  0.00    +0.000 A 
ATOM     21  C   UNL     1      -1.101  11.574  19.375  0.00  0.00    +0.000 A 
ENDBRANCH  15  16
ENDBRANCH   3  15
TORSDOF 4
ENDMDL
MODEL 8
REMARK VINA RESULT:      -5.9      4.301      7.857
REMARK  Name = 
REMARK  6 active torsions:
REMARK  status: ('A' for Active; 'I' for Inactive)
REMARK    1  A    between atoms: C_1  and  C_2
REMARK    2  A    between atoms: C_5  and  C_6
REMARK    3  A    between atoms: N_8  and  C_9
REMARK    4  A    between atoms: N_8  and  C_16
REMARK    5  A    between atoms: C_9  and  C_10
REMARK    6  A    between atoms: N_20  and  C_21
REMARK                            x       y       z     vdW  Elec       q    Type
REMARK                         _______ _______ _______ _____ _____    ______ ____
ROOT
ATOM      1  C   UNL     1       2.066   8.062  18.983  0.00  0.00    +0.000 C 
ATOM      2  O   UNL     1       2.465   8.587  17.934  0.00  0.00    +0.000 OA
ATOM      3  N   UNL     1       1.270   8.805  19.882  0.00  0.00    +0.000 N 
ENDROOT
BRANCH   1   8
ATOM      4  C   UNL     1       4.612   3.574  19.321  0.00  0.00    +0.000 C 
ATOM      5  C   UNL     1       3.650   4.709  19.385  0.00  0.00    +0.000 A 
ATOM      6  C   UNL     1       3.578   5.921  18.734  0.00  0.00    +0.000 A 
ATOM      7 BR   UNL     1       4.774   6.528  17.416  0.00  0.00    +0.000 Br
ATOM      8  C   UNL     1       2.461   6.638  19.271  0.00  0.00    +0.000 A 
ATOM      9  N   UNL     1       1.857   5.863  20.203  0.00  0.00    +0.000 NA
ATOM     10  N   UNL     1       2.607   4.745  20.271  0.00  0.00    +0.000 N 
ATOM     11  C   UNL     1       2.349   3.763  21.300  0.00  0.00    +0.000 C 
ENDBRANCH   1   8
BRANCH   3  12
ATOM     12  C   UNL     1       0.888   8.363  21.202  0.00  0.00    +0.000 C 
ATOM     13  C   UNL     1       1.123   9.262  22.401  0.00  0.00    +0.000 C 
ATOM     14  C   UNL     1      -0.269   8.912  21.990  0.00  0.00    +0.000 C 
ENDBRANCH   3  12
BRANCH   3  15
ATOM     15  C   UNL     1       1.080  10.251  19.620  0.00  0.00    +0.000 C 
BRANCH  15  16
ATOM     16  C   UNL     1      -0.265  10.594  19.010  0.00  0.00    +0.000 A 
ATOM     17  C   UNL     1      -1.085  11.587  19.564  0.00  0.00    +0.000 A 
ATOM     18  C   UNL     1      -2.353  11.792  19.035  0.00  0.00    +0.000 A 
ATOM     19  N   UNL     1      -2.833  11.124  17.968  0.00  0.00    +0.000 NA
ATOM     20  C   UNL     1      -2.006  10.218  17.403  0.00  0.00    +0.000 A 
ATOM     21  C   UNL     1      -0.735   9.926  17.877  0.00  0.00    +0.000 A 
ENDBRANCH  15  16
ENDBRANCH   3  15
TORSDOF 4
ENDMDL
MODEL 9
REMARK VINA RESULT:      -5.9      2.862      6.495
REMARK  Name = 
REMARK  6 active torsions:
REMARK  status: ('A' for Active; 'I' for Inactive)
REMARK    1  A    between atoms: C_1  and  C_2
REMARK    2  A    between atoms: C_5  and  C_6
REMARK    3  A    between atoms: N_8  and  C_9
REMARK    4  A    between atoms: N_8  and  C_16
REMARK    5  A    between atoms: C_9  and  C_10
REMARK    6  A    between atoms: N_20  and  C_21
REMARK                            x       y       z     vdW  Elec       q    Type
REMARK                         _______ _______ _______ _____ _____    ______ ____
ROOT
ATOM      1  C   UNL     1       4.873   5.016  18.366  0.00  0.00    +0.000 C 
ATOM      2  O   UNL     1       5.372   4.242  19.196  0.00  0.00    +0.000 OA
ATOM      3  N   UNL     1       3.824   5.879  18.754  0.00  0.00    +0.000 N 
ENDROOT
BRANCH   1   8
ATOM      4  C   UNL     1       7.776   5.609  14.129  0.00  0.00    +0.000 C 
ATOM      5  C   UNL     1       6.739   5.289  15.149  0.00  0.00    +0.000 A 
ATOM      6  C   UNL     1       6.518   5.724  16.436  0.00  0.00    +0.000 A 
ATOM      7 BR   UNL     1       7.546   7.007  17.349  0.00  0.00    +0.000 Br
ATOM      8  C   UNL     1       5.400   4.997  16.956  0.00  0.00    +0.000 A 
ATOM      9  N   UNL     1       4.939   4.164  15.992  0.00  0.00    +0.000 NA
ATOM     10  N   UNL     1       5.776   4.336  14.949  0.00  0.00    +0.000 N 
ATOM     11  C   UNL     1       5.684   3.466  13.798  0.00  0.00    +0.000 C 
ENDBRANCH   1   8
BRANCH   3  12
ATOM     12  C   UNL     1       3.055   6.698  17.847  0.00  0.00    +0.000 C 
ATOM     13  C   UNL     1       2.271   7.884  18.374  0.00  0.00    +0.000 C 
ATOM     14  C   UNL     1       3.416   8.100  17.440  0.00  0.00    +0.000 C 
ENDBRANCH   3  12
BRANCH   3  15
ATOM     15  C   UNL     1       3.238   5.708  20.104  0.00  0.00    +0.000 C 
BRANCH  15  16
ATOM     16  C   UNL     1       2.350   4.487  20.239  0.00  0.00    +0.000 A 
ATOM     17  C   UNL     1       2.255   3.785  21.449  0.00  0.00    +0.000 A 
ATOM     18  C   UNL     1       1.512   2.612  21.495  0.00  0.00    +0.000 A 
ATOM     19  N   UNL     1       0.820   2.126  20.447  0.00  0.00    +0.000 NA
ATOM     20  C   UNL     1       0.866   2.848  19.307  0.00  0.00    +0.000 A 
ATOM     21  C   UNL     1       1.601   4.016  19.159  0.00  0.00    +0.000 A 
ENDBRANCH  15  16
ENDBRANCH   3  15
TORSDOF 4
ENDMDL
