MODEL 1
REMARK VINA RESULT:      -5.8      0.000      0.000
REMARK  Name = 
REMARK  25 active torsions:
REMARK  status: ('A' for Active; 'I' for Inactive)
REMARK    1  A    between atoms: C_1  and  C_2
REMARK    2  A    between atoms: C_2  and  C_3
REMARK    3  A    between atoms: C_3  and  C_4
REMARK    4  A    between atoms: C_4  and  C_5
REMARK    5  A    between atoms: C_5  and  C_6
REMARK    6  A    between atoms: C_6  and  C_7
REMARK    7  A    between atoms: C_7  and  C_8
REMARK    8  A    between atoms: C_8  and  C_9
REMARK    9  A    between atoms: C_9  and  C_10
REMARK   10  A    between atoms: C_10  and  C_11
REMARK   11  A    between atoms: C_11  and  C_12
REMARK   12  A    between atoms: C_12  and  C_13
REMARK   13  A    between atoms: C_13  and  C_14
REMARK   14  A    between atoms: C_14  and  C_15
REMARK   15  A    between atoms: C_15  and  C_16
REMARK   16  A    between atoms: C_16  and  S_17
REMARK   17  A    between atoms: S_17  and  N_20
REMARK   18  A    between atoms: N_20  and  C_21
REMARK   19  A    between atoms: N_20  and  C_22
REMARK   20  A    between atoms: C_22  and  C_23
REMARK   21  A    between atoms: C_23  and  C_24
REMARK   22  A    between atoms: C_24  and  N_25
REMARK   23  A    between atoms: N_25  and  C_26
REMARK   24  A    between atoms: N_25  and  C_27
REMARK   25  A    between atoms: N_25  and  C_28
REMARK                            x       y       z     vdW  Elec       q    Type
REMARK                         _______ _______ _______ _____ _____    ______ ____
ROOT
ATOM      1  C   UNL     1       8.224   8.099  18.592  0.00  0.00    +0.000 C 
ENDROOT
BRANCH   1   2
ATOM      2  C   UNL     1       8.493   9.474  18.034  0.00  0.00    +0.000 C 
BRANCH   2   3
ATOM      3  C   UNL     1       9.270  10.309  19.032  0.00  0.00    +0.000 C 
BRANCH   3   4
ATOM      4  S   UNL     1       9.731  11.799  18.198  0.00  0.00    +0.000 S 
ATOM      5  O   UNL     1      11.028  11.581  17.570  0.00  0.00    +0.000 OA
ATOM      6  O   UNL     1       8.589  12.235  17.435  0.00  0.00    +0.000 OA
BRANCH   4   7
ATOM      7  N   UNL     1      10.035  12.959  19.484  0.00  0.00    +0.000 NA
ATOM      8  C   UNL     1      10.466  14.318  19.001  0.00  0.00    +0.000 C 
BRANCH   7   9
ATOM      9  C   UNL     1       8.833  13.149  20.392  0.00  0.00    +0.000 C 
BRANCH   9  10
ATOM     10  C   UNL     1       9.173  12.785  21.818  0.00  0.00    +0.000 C 
BRANCH  10  11
ATOM     11  C   UNL     1       8.171  11.787  22.382  0.00  0.00    +0.000 C 
BRANCH  11  12
ATOM     12  N   UNL     1       7.479  12.367  23.603  0.00  0.00    +0.000 N 
ATOM     13  C   UNL     1       7.204  13.858  23.400  0.00  0.00    +0.000 C 
ATOM     14  C   UNL     1       6.184  11.644  23.944  0.00  0.00    +0.000 C 
ATOM     15  C   UNL     1       8.424  12.220  24.795  0.00  0.00    +0.000 C 
ENDBRANCH  11  12
ENDBRANCH  10  11
ENDBRANCH   9  10
ENDBRANCH   7   9
ENDBRANCH   4   7
ENDBRANCH   3   4
ENDBRANCH   2   3
ENDBRANCH   1   2
BRANCH   1  16
ATOM     16  C   UNL     1       7.473   7.274  17.563  0.00  0.00    +0.000 C 
BRANCH  16  17
ATOM     17  C   UNL     1       7.626   5.798  17.877  0.00  0.00    +0.000 C 
BRANCH  17  18
ATOM     18  C   UNL     1       7.016   4.966  16.766  0.00  0.00    +0.000 C 
BRANCH  18  19
ATOM     19  C   UNL     1       5.955   5.772  16.041  0.00  0.00    +0.000 C 
BRANCH  19  20
ATOM     20  C   UNL     1       4.589   5.154  16.273  0.00  0.00    +0.000 C 
BRANCH  20  21
ATOM     21  C   UNL     1       4.737   3.680  16.594  0.00  0.00    +0.000 C 
BRANCH  21  22
ATOM     22  C   UNL     1       3.833   3.312  17.756  0.00  0.00    +0.000 C 
BRANCH  22  23
ATOM     23  C   UNL     1       2.417   3.100  17.258  0.00  0.00    +0.000 C 
BRANCH  23  24
ATOM     24  C   UNL     1       1.460   3.991  18.027  0.00  0.00    +0.000 C 
BRANCH  24  25
ATOM     25  C   UNL     1       2.026   4.292  19.404  0.00  0.00    +0.000 C 
BRANCH  25  26
ATOM     26  C   UNL     1       0.959   4.075  20.462  0.00  0.00    +0.000 C 
BRANCH  26  28
ATOM     27  C   UNL     1       2.846   2.658  21.252  0.00  0.00    +0.000 C 
ATOM     28  C   UNL     1       1.366   2.948  21.397  0.00  0.00    +0.000 C 
ENDBRANCH  26  28
ENDBRANCH  25  26
ENDBRANCH  24  25
ENDBRANCH  23  24
ENDBRANCH  22  23
ENDBRANCH  21  22
ENDBRANCH  20  21
ENDBRANCH  19  20
ENDBRANCH  18  19
ENDBRANCH  17  18
ENDBRANCH  16  17
ENDBRANCH   1  16
TORSDOF 20
ENDMDL
MODEL 2
REMARK VINA RESULT:      -5.6      6.161      8.140
REMARK  Name = 
REMARK  25 active torsions:
REMARK  status: ('A' for Active; 'I' for Inactive)
REMARK    1  A    between atoms: C_1  and  C_2
REMARK    2  A    between atoms: C_2  and  C_3
REMARK    3  A    between atoms: C_3  and  C_4
REMARK    4  A    between atoms: C_4  and  C_5
REMARK    5  A    between atoms: C_5  and  C_6
REMARK    6  A    between atoms: C_6  and  C_7
REMARK    7  A    between atoms: C_7  and  C_8
REMARK    8  A    between atoms: C_8  and  C_9
REMARK    9  A    between atoms: C_9  and  C_10
REMARK   10  A    between atoms: C_10  and  C_11
REMARK   11  A    between atoms: C_11  and  C_12
REMARK   12  A    between atoms: C_12  and  C_13
REMARK   13  A    between atoms: C_13  and  C_14
REMARK   14  A    between atoms: C_14  and  C_15
REMARK   15  A    between atoms: C_15  and  C_16
REMARK   16  A    between atoms: C_16  and  S_17
REMARK   17  A    between atoms: S_17  and  N_20
REMARK   18  A    between atoms: N_20  and  C_21
REMARK   19  A    between atoms: N_20  and  C_22
REMARK   20  A    between atoms: C_22  and  C_23
REMARK   21  A    between atoms: C_23  and  C_24
REMARK   22  A    between atoms: C_24  and  N_25
REMARK   23  A    between atoms: N_25  and  C_26
REMARK   24  A    between atoms: N_25  and  C_27
REMARK   25  A    between atoms: N_25  and  C_28
REMARK                            x       y       z     vdW  Elec       q    Type
REMARK                         _______ _______ _______ _____ _____    ______ ____
ROOT
ATOM      1  C   UNL     1       2.300   7.275  18.194  0.00  0.00    +0.000 C 
ENDROOT
BRANCH   1   2
ATOM      2  C   UNL     1       2.385   8.740  17.848  0.00  0.00    +0.000 C 
BRANCH   2   3
ATOM      3  C   UNL     1       1.006   9.370  17.864  0.00  0.00    +0.000 C 
BRANCH   3   4
ATOM      4  S   UNL     1       1.124  10.829  18.857  0.00  0.00    +0.000 S 
ATOM      5  O   UNL     1       1.142  10.421  20.255  0.00  0.00    +0.000 OA
ATOM      6  O   UNL     1       2.173  11.645  18.297  0.00  0.00    +0.000 OA
BRANCH   4   7
ATOM      7  N   UNL     1      -0.416  11.649  18.639  0.00  0.00    +0.000 NA
ATOM      8  C   UNL     1      -1.618  10.762  18.819  0.00  0.00    +0.000 C 
BRANCH   7   9
ATOM      9  C   UNL     1      -0.575  12.841  19.565  0.00  0.00    +0.000 C 
BRANCH   9  10
ATOM     10  C   UNL     1      -1.997  12.949  20.062  0.00  0.00    +0.000 C 
BRANCH  10  11
ATOM     11  C   UNL     1      -2.059  13.694  21.389  0.00  0.00    +0.000 C 
BRANCH  11  12
ATOM     12  N   UNL     1      -3.313  13.308  22.153  0.00  0.00    +0.000 N 
ATOM     13  C   UNL     1      -4.384  12.792  21.191  0.00  0.00    +0.000 C 
ATOM     14  C   UNL     1      -3.047  12.271  23.235  0.00  0.00    +0.000 C 
ATOM     15  C   UNL     1      -3.855  14.564  22.833  0.00  0.00    +0.000 C 
ENDBRANCH  11  12
ENDBRANCH  10  11
ENDBRANCH   9  10
ENDBRANCH   7   9
ENDBRANCH   4   7
ENDBRANCH   3   4
ENDBRANCH   2   3
ENDBRANCH   1   2
BRANCH   1  16
ATOM     16  C   UNL     1       2.374   7.106  19.700  0.00  0.00    +0.000 C 
BRANCH  16  17
ATOM     17  C   UNL     1       2.502   5.635  20.046  0.00  0.00    +0.000 C 
BRANCH  17  18
ATOM     18  C   UNL     1       1.183   5.112  20.581  0.00  0.00    +0.000 C 
BRANCH  18  19
ATOM     19  C   UNL     1       0.921   3.721  20.037  0.00  0.00    +0.000 C 
BRANCH  19  20
ATOM     20  C   UNL     1       1.404   3.627  18.602  0.00  0.00    +0.000 C 
BRANCH  20  21
ATOM     21  C   UNL     1       1.815   2.202  18.288  0.00  0.00    +0.000 C 
BRANCH  21  22
ATOM     22  C   UNL     1       3.285   2.160  17.918  0.00  0.00    +0.000 C 
BRANCH  22  23
ATOM     23  C   UNL     1       3.745   3.536  17.478  0.00  0.00    +0.000 C 
BRANCH  23  24
ATOM     24  C   UNL     1       5.026   3.908  18.202  0.00  0.00    +0.000 C 
BRANCH  24  25
ATOM     25  C   UNL     1       5.933   4.698  17.275  0.00  0.00    +0.000 C 
BRANCH  25  26
ATOM     26  C   UNL     1       5.101   5.481  16.276  0.00  0.00    +0.000 C 
BRANCH  26  28
ATOM     27  C   UNL     1       6.163   3.971  14.607  0.00  0.00    +0.000 C 
ATOM     28  C   UNL     1       5.719   5.392  14.891  0.00  0.00    +0.000 C 
ENDBRANCH  26  28
ENDBRANCH  25  26
ENDBRANCH  24  25
ENDBRANCH  23  24
ENDBRANCH  22  23
ENDBRANCH  21  22
ENDBRANCH  20  21
ENDBRANCH  19  20
ENDBRANCH  18  19
ENDBRANCH  17  18
ENDBRANCH  16  17
ENDBRANCH   1  16
TORSDOF 20
ENDMDL
MODEL 3
REMARK VINA RESULT:      -5.5      2.460      3.390
REMARK  Name = 
REMARK  25 active torsions:
REMARK  status: ('A' for Active; 'I' for Inactive)
REMARK    1  A    between atoms: C_1  and  C_2
REMARK    2  A    between atoms: C_2  and  C_3
REMARK    3  A    between atoms: C_3  and  C_4
REMARK    4  A    between atoms: C_4  and  C_5
REMARK    5  A    between atoms: C_5  and  C_6
REMARK    6  A    between atoms: C_6  and  C_7
REMARK    7  A    between atoms: C_7  and  C_8
REMARK    8  A    between atoms: C_8  and  C_9
REMARK    9  A    between atoms: C_9  and  C_10
REMARK   10  A    between atoms: C_10  and  C_11
REMARK   11  A    between atoms: C_11  and  C_12
REMARK   12  A    between atoms: C_12  and  C_13
REMARK   13  A    between atoms: C_13  and  C_14
REMARK   14  A    between atoms: C_14  and  C_15
REMARK   15  A    between atoms: C_15  and  C_16
REMARK   16  A    between atoms: C_16  and  S_17
REMARK   17  A    between atoms: S_17  and  N_20
REMARK   18  A    between atoms: N_20  and  C_21
REMARK   19  A    between atoms: N_20  and  C_22
REMARK   20  A    between atoms: C_22  and  C_23
REMARK   21  A    between atoms: C_23  and  C_24
REMARK   22  A    between atoms: C_24  and  N_25
REMARK   23  A    between atoms: N_25  and  C_26
REMARK   24  A    between atoms: N_25  and  C_27
REMARK   25  A    between atoms: N_25  and  C_28
REMARK                            x       y       z     vdW  Elec       q    Type
REMARK                         _______ _______ _______ _____ _____    ______ ____
ROOT
ATOM      1  C   UNL     1       8.068   9.135  17.746  0.00  0.00    +0.000 C 
ENDROOT
BRANCH   1   2
ATOM      2  C   UNL     1       8.898   9.974  18.684  0.00  0.00    +0.000 C 
BRANCH   2   3
ATOM      3  C   UNL     1       9.048  11.383  18.144  0.00  0.00    +0.000 C 
BRANCH   3   4
ATOM      4  S   UNL     1      10.649  11.949  18.640  0.00  0.00    +0.000 S 
ATOM      5  O   UNL     1      11.142  11.052  19.677  0.00  0.00    +0.000 OA
ATOM      6  O   UNL     1      11.406  12.202  17.440  0.00  0.00    +0.000 OA
BRANCH   4   7
ATOM      7  N   UNL     1      10.352  13.476  19.460  0.00  0.00    +0.000 NA
ATOM      8  C   UNL     1      11.590  14.295  19.706  0.00  0.00    +0.000 C 
BRANCH   7   9
ATOM      9  C   UNL     1       9.357  14.350  18.717  0.00  0.00    +0.000 C 
BRANCH   9  10
ATOM     10  C   UNL     1       8.278  14.847  19.649  0.00  0.00    +0.000 C 
BRANCH  10  11
ATOM     11  C   UNL     1       7.454  15.948  18.995  0.00  0.00    +0.000 C 
BRANCH  11  12
ATOM     12  N   UNL     1       5.980  15.583  19.007  0.00  0.00    +0.000 N 
ATOM     13  C   UNL     1       5.667  14.600  17.877  0.00  0.00    +0.000 C 
ATOM     14  C   UNL     1       5.529  15.000  20.339  0.00  0.00    +0.000 C 
ATOM     15  C   UNL     1       5.176  16.859  18.759  0.00  0.00    +0.000 C 
ENDBRANCH  11  12
ENDBRANCH  10  11
ENDBRANCH   9  10
ENDBRANCH   7   9
ENDBRANCH   4   7
ENDBRANCH   3   4
ENDBRANCH   2   3
ENDBRANCH   1   2
BRANCH   1  16
ATOM     16  C   UNL     1       8.146   7.679  18.167  0.00  0.00    +0.000 C 
BRANCH  16  17
ATOM     17  C   UNL     1       7.309   6.828  17.231  0.00  0.00    +0.000 C 
BRANCH  17  18
ATOM     18  C   UNL     1       6.119   6.255  17.976  0.00  0.00    +0.000 C 
BRANCH  18  19
ATOM     19  C   UNL     1       4.923   6.168  17.047  0.00  0.00    +0.000 C 
BRANCH  19  20
ATOM     20  C   UNL     1       3.815   7.077  17.544  0.00  0.00    +0.000 C 
BRANCH  20  21
ATOM     21  C   UNL     1       2.739   6.254  18.226  0.00  0.00    +0.000 C 
BRANCH  21  22
ATOM     22  C   UNL     1       2.727   6.552  19.713  0.00  0.00    +0.000 C 
BRANCH  22  23
ATOM     23  C   UNL     1       1.690   5.688  20.403  0.00  0.00    +0.000 C 
BRANCH  23  24
ATOM     24  C   UNL     1       2.318   4.379  20.843  0.00  0.00    +0.000 C 
BRANCH  24  25
ATOM     25  C   UNL     1       1.255   3.299  20.936  0.00  0.00    +0.000 C 
BRANCH  25  26
ATOM     26  C   UNL     1       1.104   2.602  19.596  0.00  0.00    +0.000 C 
BRANCH  26  28
ATOM     27  C   UNL     1       2.520   2.580  17.550  0.00  0.00    +0.000 C 
ATOM     28  C   UNL     1       2.469   2.251  19.028  0.00  0.00    +0.000 C 
ENDBRANCH  26  28
ENDBRANCH  25  26
ENDBRANCH  24  25
ENDBRANCH  23  24
ENDBRANCH  22  23
ENDBRANCH  21  22
ENDBRANCH  20  21
ENDBRANCH  19  20
ENDBRANCH  18  19
ENDBRANCH  17  18
ENDBRANCH  16  17
ENDBRANCH   1  16
TORSDOF 20
ENDMDL
MODEL 4
REMARK VINA RESULT:      -5.5      6.306      9.435
REMARK  Name = 
REMARK  25 active torsions:
REMARK  status: ('A' for Active; 'I' for Inactive)
REMARK    1  A    between atoms: C_1  and  C_2
REMARK    2  A    between atoms: C_2  and  C_3
REMARK    3  A    between atoms: C_3  and  C_4
REMARK    4  A    between atoms: C_4  and  C_5
REMARK    5  A    between atoms: C_5  and  C_6
REMARK    6  A    between atoms: C_6  and  C_7
REMARK    7  A    between atoms: C_7  and  C_8
REMARK    8  A    between atoms: C_8  and  C_9
REMARK    9  A    between atoms: C_9  and  C_10
REMARK   10  A    between atoms: C_10  and  C_11
REMARK   11  A    between atoms: C_11  and  C_12
REMARK   12  A    between atoms: C_12  and  C_13
REMARK   13  A    between atoms: C_13  and  C_14
REMARK   14  A    between atoms: C_14  and  C_15
REMARK   15  A    between atoms: C_15  and  C_16
REMARK   16  A    between atoms: C_16  and  S_17
REMARK   17  A    between atoms: S_17  and  N_20
REMARK   18  A    between atoms: N_20  and  C_21
REMARK   19  A    between atoms: N_20  and  C_22
REMARK   20  A    between atoms: C_22  and  C_23
REMARK   21  A    between atoms: C_23  and  C_24
REMARK   22  A    between atoms: C_24  and  N_25
REMARK   23  A    between atoms: N_25  and  C_26
REMARK   24  A    between atoms: N_25  and  C_27
REMARK   25  A    between atoms: N_25  and  C_28
REMARK                            x       y       z     vdW  Elec       q    Type
REMARK                         _______ _______ _______ _____ _____    ______ ____
ROOT
ATOM      1  C   UNL     1       3.003   7.863  18.257  0.00  0.00    +0.000 C 
ENDROOT
BRANCH   1   2
ATOM      2  C   UNL     1       3.863   7.291  17.158  0.00  0.00    +0.000 C 
BRANCH   2   3
ATOM      3  C   UNL     1       5.310   7.210  17.603  0.00  0.00    +0.000 C 
BRANCH   3   4
ATOM      4  S   UNL     1       6.127   6.118  16.477  0.00  0.00    +0.000 S 
ATOM      5  O   UNL     1       5.331   6.049  15.259  0.00  0.00    +0.000 OA
ATOM      6  O   UNL     1       7.518   6.494  16.448  0.00  0.00    +0.000 OA
BRANCH   4   7
ATOM      7  N   UNL     1       5.982   4.526  17.209  0.00  0.00    +0.000 NA
ATOM      8  C   UNL     1       5.750   4.548  18.696  0.00  0.00    +0.000 C 
BRANCH   7   9
ATOM      9  C   UNL     1       4.877   3.696  16.580  0.00  0.00    +0.000 C 
BRANCH   9  10
ATOM     10  C   UNL     1       3.561   3.933  17.280  0.00  0.00    +0.000 C 
BRANCH  10  11
ATOM     11  C   UNL     1       3.027   2.647  17.896  0.00  0.00    +0.000 C 
BRANCH  11  12
ATOM     12  N   UNL     1       2.097   2.962  19.054  0.00  0.00    +0.000 N 
ATOM     13  C   UNL     1       0.752   2.258  18.862  0.00  0.00    +0.000 C 
ATOM     14  C   UNL     1       2.690   2.585  20.404  0.00  0.00    +0.000 C 
ATOM     15  C   UNL     1       1.844   4.469  19.059  0.00  0.00    +0.000 C 
ENDBRANCH  11  12
ENDBRANCH  10  11
ENDBRANCH   9  10
ENDBRANCH   7   9
ENDBRANCH   4   7
ENDBRANCH   3   4
ENDBRANCH   2   3
ENDBRANCH   1   2
BRANCH   1  16
ATOM     16  C   UNL     1       1.910   8.722  17.649  0.00  0.00    +0.000 C 
BRANCH  16  17
ATOM     17  C   UNL     1       1.546   9.842  18.604  0.00  0.00    +0.000 C 
BRANCH  17  18
ATOM     18  C   UNL     1       0.666   9.309  19.718  0.00  0.00    +0.000 C 
BRANCH  18  19
ATOM     19  C   UNL     1       0.952  10.059  21.005  0.00  0.00    +0.000 C 
BRANCH  19  20
ATOM     20  C   UNL     1      -0.264  10.870  21.412  0.00  0.00    +0.000 C 
BRANCH  20  21
ATOM     21  C   UNL     1      -0.603  11.871  20.325  0.00  0.00    +0.000 C 
BRANCH  21  22
ATOM     22  C   UNL     1      -2.081  12.208  20.378  0.00  0.00    +0.000 C 
BRANCH  22  23
ATOM     23  C   UNL     1      -2.724  11.919  19.036  0.00  0.00    +0.000 C 
BRANCH  23  24
ATOM     24  C   UNL     1      -1.652  11.669  17.993  0.00  0.00    +0.000 C 
BRANCH  24  25
ATOM     25  C   UNL     1      -1.926  10.363  17.269  0.00  0.00    +0.000 C 
BRANCH  25  26
ATOM     26  C   UNL     1      -3.420  10.191  17.056  0.00  0.00    +0.000 C 
BRANCH  26  28
ATOM     27  C   UNL     1      -2.996  10.079  14.606  0.00  0.00    +0.000 C 
ATOM     28  C   UNL     1      -3.823  10.733  15.694  0.00  0.00    +0.000 C 
ENDBRANCH  26  28
ENDBRANCH  25  26
ENDBRANCH  24  25
ENDBRANCH  23  24
ENDBRANCH  22  23
ENDBRANCH  21  22
ENDBRANCH  20  21
ENDBRANCH  19  20
ENDBRANCH  18  19
ENDBRANCH  17  18
ENDBRANCH  16  17
ENDBRANCH   1  16
TORSDOF 20
ENDMDL
MODEL 5
REMARK VINA RESULT:      -5.5      7.289     10.073
REMARK  Name = 
REMARK  25 active torsions:
REMARK  status: ('A' for Active; 'I' for Inactive)
REMARK    1  A    between atoms: C_1  and  C_2
REMARK    2  A    between atoms: C_2  and  C_3
REMARK    3  A    between atoms: C_3  and  C_4
REMARK    4  A    between atoms: C_4  and  C_5
REMARK    5  A    between atoms: C_5  and  C_6
REMARK    6  A    between atoms: C_6  and  C_7
REMARK    7  A    between atoms: C_7  and  C_8
REMARK    8  A    between atoms: C_8  and  C_9
REMARK    9  A    between atoms: C_9  and  C_10
REMARK   10  A    between atoms: C_10  and  C_11
REMARK   11  A    between atoms: C_11  and  C_12
REMARK   12  A    between atoms: C_12  and  C_13
REMARK   13  A    between atoms: C_13  and  C_14
REMARK   14  A    between atoms: C_14  and  C_15
REMARK   15  A    between atoms: C_15  and  C_16
REMARK   16  A    between atoms: C_16  and  S_17
REMARK   17  A    between atoms: S_17  and  N_20
REMARK   18  A    between atoms: N_20  and  C_21
REMARK   19  A    between atoms: N_20  and  C_22
REMARK   20  A    between atoms: C_22  and  C_23
REMARK   21  A    between atoms: C_23  and  C_24
REMARK   22  A    between atoms: C_24  and  N_25
REMARK   23  A    between atoms: N_25  and  C_26
REMARK   24  A    between atoms: N_25  and  C_27
REMARK   25  A    between atoms: N_25  and  C_28
REMARK                            x       y       z     vdW  Elec       q    Type
REMARK                         _______ _______ _______ _____ _____    ______ ____
ROOT
ATOM      1  C   UNL     1       2.317   6.868  19.941  0.00  0.00    +0.000 C 
ENDROOT
BRANCH   1   2
ATOM      2  C   UNL     1       1.567   5.687  20.505  0.00  0.00    +0.000 C 
BRANCH   2   3
ATOM      3  C   UNL     1       2.530   4.584  20.896  0.00  0.00    +0.000 C 
BRANCH   3   4
ATOM      4  S   UNL     1       1.937   3.099  20.140  0.00  0.00    +0.000 S 
ATOM      5  O   UNL     1       1.550   2.178  21.201  0.00  0.00    +0.000 OA
ATOM      6  O   UNL     1       1.014   3.485  19.103  0.00  0.00    +0.000 OA
BRANCH   4   7
ATOM      7  N   UNL     1       3.357   2.373  19.400  0.00  0.00    +0.000 NA
ATOM      8  C   UNL     1       3.170   1.982  17.959  0.00  0.00    +0.000 C 
BRANCH   7   9
ATOM      9  C   UNL     1       4.579   3.271  19.482  0.00  0.00    +0.000 C 
BRANCH   9  10
ATOM     10  C   UNL     1       4.782   4.022  18.187  0.00  0.00    +0.000 C 
BRANCH  10  11
ATOM     11  C   UNL     1       6.206   4.552  18.080  0.00  0.00    +0.000 C 
BRANCH  11  12
ATOM     12  N   UNL     1       6.355   5.415  16.840  0.00  0.00    +0.000 N 
ATOM     13  C   UNL     1       7.250   4.719  15.812  0.00  0.00    +0.000 C 
ATOM     14  C   UNL     1       5.018   5.769  16.205  0.00  0.00    +0.000 C 
ATOM     15  C   UNL     1       7.036   6.719  17.252  0.00  0.00    +0.000 C 
ENDBRANCH  11  12
ENDBRANCH  10  11
ENDBRANCH   9  10
ENDBRANCH   7   9
ENDBRANCH   4   7
ENDBRANCH   3   4
ENDBRANCH   2   3
ENDBRANCH   1   2
BRANCH   1  16
ATOM     16  C   UNL     1       2.461   6.706  18.440  0.00  0.00    +0.000 C 
BRANCH  16  17
ATOM     17  C   UNL     1       2.136   8.016  17.748  0.00  0.00    +0.000 C 
BRANCH  17  18
ATOM     18  C   UNL     1       1.906   9.104  18.778  0.00  0.00    +0.000 C 
BRANCH  18  19
ATOM     19  C   UNL     1       0.716   9.953  18.375  0.00  0.00    +0.000 C 
BRANCH  19  20
ATOM     20  C   UNL     1       0.301  10.843  19.532  0.00  0.00    +0.000 C 
BRANCH  20  21
ATOM     21  C   UNL     1      -1.162  11.219  19.393  0.00  0.00    +0.000 C 
BRANCH  21  22
ATOM     22  C   UNL     1      -1.351  12.117  18.185  0.00  0.00    +0.000 C 
BRANCH  22  23
ATOM     23  C   UNL     1      -2.303  11.464  17.203  0.00  0.00    +0.000 C 
BRANCH  23  24
ATOM     24  C   UNL     1      -3.017  10.303  17.869  0.00  0.00    +0.000 C 
BRANCH  24  25
ATOM     25  C   UNL     1      -4.501  10.357  17.553  0.00  0.00    +0.000 C 
BRANCH  25  26
ATOM     26  C   UNL     1      -4.844  11.684  16.899  0.00  0.00    +0.000 C 
BRANCH  26  28
ATOM     27  C   UNL     1      -6.882  11.375  18.294  0.00  0.00    +0.000 C 
ATOM     28  C   UNL     1      -5.938  12.390  17.684  0.00  0.00    +0.000 C 
ENDBRANCH  26  28
ENDBRANCH  25  26
ENDBRANCH  24  25
ENDBRANCH  23  24
ENDBRANCH  22  23
ENDBRANCH  21  22
ENDBRANCH  20  21
ENDBRANCH  19  20
ENDBRANCH  18  19
ENDBRANCH  17  18
ENDBRANCH  16  17
ENDBRANCH   1  16
TORSDOF 20
ENDMDL
MODEL 6
REMARK VINA RESULT:      -5.4      3.857     10.167
REMARK  Name = 
REMARK  25 active torsions:
REMARK  status: ('A' for Active; 'I' for Inactive)
REMARK    1  A    between atoms: C_1  and  C_2
REMARK    2  A    between atoms: C_2  and  C_3
REMARK    3  A    between atoms: C_3  and  C_4
REMARK    4  A    between atoms: C_4  and  C_5
REMARK    5  A    between atoms: C_5  and  C_6
REMARK    6  A    between atoms: C_6  and  C_7
REMARK    7  A    between atoms: C_7  and  C_8
REMARK    8  A    between atoms: C_8  and  C_9
REMARK    9  A    between atoms: C_9  and  C_10
REMARK   10  A    between atoms: C_10  and  C_11
REMARK   11  A    between atoms: C_11  and  C_12
REMARK   12  A    between atoms: C_12  and  C_13
REMARK   13  A    between atoms: C_13  and  C_14
REMARK   14  A    between atoms: C_14  and  C_15
REMARK   15  A    between atoms: C_15  and  C_16
REMARK   16  A    between atoms: C_16  and  S_17
REMARK   17  A    between atoms: S_17  and  N_20
REMARK   18  A    between atoms: N_20  and  C_21
REMARK   19  A    between atoms: N_20  and  C_22
REMARK   20  A    between atoms: C_22  and  C_23
REMARK   21  A    between atoms: C_23  and  C_24
REMARK   22  A    between atoms: C_24  and  N_25
REMARK   23  A    between atoms: N_25  and  C_26
REMARK   24  A    between atoms: N_25  and  C_27
REMARK   25  A    between atoms: N_25  and  C_28
REMARK                            x       y       z     vdW  Elec       q    Type
REMARK                         _______ _______ _______ _____ _____    ______ ____
ROOT
ATOM      1  C   UNL     1       8.165   9.307  17.654  0.00  0.00    +0.000 C 
ENDROOT
BRANCH   1   2
ATOM      2  C   UNL     1       7.570   7.927  17.522  0.00  0.00    +0.000 C 
BRANCH   2   3
ATOM      3  C   UNL     1       8.118   7.008  18.597  0.00  0.00    +0.000 C 
BRANCH   3   4
ATOM      4  S   UNL     1       7.228   5.485  18.466  0.00  0.00    +0.000 S 
ATOM      5  O   UNL     1       8.027   4.564  17.669  0.00  0.00    +0.000 OA
ATOM      6  O   UNL     1       6.774   5.138  19.789  0.00  0.00    +0.000 OA
BRANCH   4   7
ATOM      7  N   UNL     1       5.832   5.864  17.465  0.00  0.00    +0.000 NA
ATOM      8  C   UNL     1       5.558   4.857  16.381  0.00  0.00    +0.000 C 
BRANCH   7   9
ATOM      9  C   UNL     1       4.561   6.027  18.279  0.00  0.00    +0.000 C 
BRANCH   9  10
ATOM     10  C   UNL     1       3.597   4.899  18.003  0.00  0.00    +0.000 C 
BRANCH  10  11
ATOM     11  C   UNL     1       3.367   4.057  19.250  0.00  0.00    +0.000 C 
BRANCH  11  12
ATOM     12  N   UNL     1       1.955   3.499  19.258  0.00  0.00    +0.000 N 
ATOM     13  C   UNL     1       1.218   3.898  17.977  0.00  0.00    +0.000 C 
ATOM     14  C   UNL     1       1.921   1.986  19.424  0.00  0.00    +0.000 C 
ATOM     15  C   UNL     1       1.210   4.116  20.441  0.00  0.00    +0.000 C 
ENDBRANCH  11  12
ENDBRANCH  10  11
ENDBRANCH   9  10
ENDBRANCH   7   9
ENDBRANCH   4   7
ENDBRANCH   3   4
ENDBRANCH   2   3
ENDBRANCH   1   2
BRANCH   1  16
ATOM     16  C   UNL     1       8.897   9.417  18.978  0.00  0.00    +0.000 C 
BRANCH  16  17
ATOM     17  C   UNL     1       9.249  10.867  19.251  0.00  0.00    +0.000 C 
BRANCH  17  18
ATOM     18  C   UNL     1      10.754  11.049  19.226  0.00  0.00    +0.000 C 
BRANCH  18  19
ATOM     19  C   UNL     1      11.124  12.139  18.239  0.00  0.00    +0.000 C 
BRANCH  19  20
ATOM     20  C   UNL     1      10.607  13.478  18.730  0.00  0.00    +0.000 C 
BRANCH  20  21
ATOM     21  C   UNL     1      11.133  13.754  20.126  0.00  0.00    +0.000 C 
BRANCH  21  22
ATOM     22  C   UNL     1      11.480  15.224  20.264  0.00  0.00    +0.000 C 
BRANCH  22  23
ATOM     23  C   UNL     1      10.561  15.877  21.278  0.00  0.00    +0.000 C 
BRANCH  23  24
ATOM     24  C   UNL     1       9.443  14.922  21.651  0.00  0.00    +0.000 C 
BRANCH  24  25
ATOM     25  C   UNL     1       9.264  14.897  23.159  0.00  0.00    +0.000 C 
BRANCH  25  26
ATOM     26  C   UNL     1       8.034  14.086  23.523  0.00  0.00    +0.000 C 
BRANCH  26  28
ATOM     27  C   UNL     1       8.162  11.727  22.739  0.00  0.00    +0.000 C 
ATOM     28  C   UNL     1       8.431  12.667  23.897  0.00  0.00    +0.000 C 
ENDBRANCH  26  28
ENDBRANCH  25  26
ENDBRANCH  24  25
ENDBRANCH  23  24
ENDBRANCH  22  23
ENDBRANCH  21  22
ENDBRANCH  20  21
ENDBRANCH  19  20
ENDBRANCH  18  19
ENDBRANCH  17  18
ENDBRANCH  16  17
ENDBRANCH   1  16
TORSDOF 20
ENDMDL
MODEL 7
REMARK VINA RESULT:      -5.3      6.135      8.738
REMARK  Name = 
REMARK  25 active torsions:
REMARK  status: ('A' for Active; 'I' for Inactive)
REMARK    1  A    between atoms: C_1  and  C_2
REMARK    2  A    between atoms: C_2  and  C_3
REMARK    3  A    between atoms: C_3  and  C_4
REMARK    4  A    between atoms: C_4  and  C_5
REMARK    5  A    between atoms: C_5  and  C_6
REMARK    6  A    between atoms: C_6  and  C_7
REMARK    7  A    between atoms: C_7  and  C_8
REMARK    8  A    between atoms: C_8  and  C_9
REMARK    9  A    between atoms: C_9  and  C_10
REMARK   10  A    between atoms: C_10  and  C_11
REMARK   11  A    between atoms: C_11  and  C_12
REMARK   12  A    between atoms: C_12  and  C_13
REMARK   13  A    between atoms: C_13  and  C_14
REMARK   14  A    between atoms: C_14  and  C_15
REMARK   15  A    between atoms: C_15  and  C_16
REMARK   16  A    between atoms: C_16  and  S_17
REMARK   17  A    between atoms: S_17  and  N_20
REMARK   18  A    between atoms: N_20  and  C_21
REMARK   19  A    between atoms: N_20  and  C_22
REMARK   20  A    between atoms: C_22  and  C_23
REMARK   21  A    between atoms: C_23  and  C_24
REMARK   22  A    between atoms: C_24  and  N_25
REMARK   23  A    between atoms: N_25  and  C_26
REMARK   24  A    between atoms: N_25  and  C_27
REMARK   25  A    between atoms: N_25  and  C_28
REMARK                            x       y       z     vdW  Elec       q    Type
REMARK                         _______ _______ _______ _____ _____    ______ ____
ROOT
ATOM      1  C   UNL     1       1.175   7.861  21.100  0.00  0.00    +0.000 C 
ENDROOT
BRANCH   1   2
ATOM      2  C   UNL     1       1.009   9.179  20.387  0.00  0.00    +0.000 C 
BRANCH   2   3
ATOM      3  C   UNL     1       0.833  10.305  21.387  0.00  0.00    +0.000 C 
BRANCH   3   4
ATOM      4  S   UNL     1       0.982  11.817  20.481  0.00  0.00    +0.000 S 
ATOM      5  O   UNL     1       1.789  12.737  21.272  0.00  0.00    +0.000 OA
ATOM      6  O   UNL     1       1.342  11.473  19.128  0.00  0.00    +0.000 OA
BRANCH   4   7
ATOM      7  N   UNL     1      -0.635  12.506  20.485  0.00  0.00    +0.000 NA
ATOM      8  C   UNL     1      -0.783  13.731  21.346  0.00  0.00    +0.000 C 
BRANCH   7   9
ATOM      9  C   UNL     1      -1.119  12.860  19.090  0.00  0.00    +0.000 C 
BRANCH   9  10
ATOM     10  C   UNL     1      -2.199  11.906  18.637  0.00  0.00    +0.000 C 
BRANCH  10  11
ATOM     11  C   UNL     1      -2.046  11.566  17.161  0.00  0.00    +0.000 C 
BRANCH  11  12
ATOM     12  N   UNL     1      -3.183  10.669  16.705  0.00  0.00    +0.000 N 
ATOM     13  C   UNL     1      -4.499  11.449  16.684  0.00  0.00    +0.000 C 
ATOM     14  C   UNL     1      -2.930  10.045  15.340  0.00  0.00    +0.000 C 
ATOM     15  C   UNL     1      -3.324   9.534  17.719  0.00  0.00    +0.000 C 
ENDBRANCH  11  12
ENDBRANCH  10  11
ENDBRANCH   9  10
ENDBRANCH   7   9
ENDBRANCH   4   7
ENDBRANCH   3   4
ENDBRANCH   2   3
ENDBRANCH   1   2
BRANCH   1  16
ATOM     16  C   UNL     1       2.093   6.962  20.294  0.00  0.00    +0.000 C 
BRANCH  16  17
ATOM     17  C   UNL     1       2.439   7.630  18.977  0.00  0.00    +0.000 C 
BRANCH  17  18
ATOM     18  C   UNL     1       2.292   6.640  17.839  0.00  0.00    +0.000 C 
BRANCH  18  19
ATOM     19  C   UNL     1       1.832   5.299  18.378  0.00  0.00    +0.000 C 
BRANCH  19  20
ATOM     20  C   UNL     1       2.246   4.191  17.429  0.00  0.00    +0.000 C 
BRANCH  20  21
ATOM     21  C   UNL     1       3.759   4.101  17.369  0.00  0.00    +0.000 C 
BRANCH  21  22
ATOM     22  C   UNL     1       4.268   3.223  18.496  0.00  0.00    +0.000 C 
BRANCH  22  23
ATOM     23  C   UNL     1       5.126   4.042  19.440  0.00  0.00    +0.000 C 
BRANCH  23  24
ATOM     24  C   UNL     1       5.549   5.333  18.764  0.00  0.00    +0.000 C 
BRANCH  24  25
ATOM     25  C   UNL     1       7.010   5.250  18.357  0.00  0.00    +0.000 C 
BRANCH  25  26
ATOM     26  C   UNL     1       7.243   6.053  17.091  0.00  0.00    +0.000 C 
BRANCH  26  28
ATOM     27  C   UNL     1       8.107   8.213  17.974  0.00  0.00    +0.000 C 
ATOM     28  C   UNL     1       6.923   7.520  17.331  0.00  0.00    +0.000 C 
ENDBRANCH  26  28
ENDBRANCH  25  26
ENDBRANCH  24  25
ENDBRANCH  23  24
ENDBRANCH  22  23
ENDBRANCH  21  22
ENDBRANCH  20  21
ENDBRANCH  19  20
ENDBRANCH  18  19
ENDBRANCH  17  18
ENDBRANCH  16  17
ENDBRANCH   1  16
TORSDOF 20
ENDMDL
MODEL 8
REMARK VINA RESULT:      -5.3      7.325      9.981
REMARK  Name = 
REMARK  25 active torsions:
REMARK  status: ('A' for Active; 'I' for Inactive)
REMARK    1  A    between atoms: C_1  and  C_2
REMARK    2  A    between atoms: C_2  and  C_3
REMARK    3  A    between atoms: C_3  and  C_4
REMARK    4  A    between atoms: C_4  and  C_5
REMARK    5  A    between atoms: C_5  and  C_6
REMARK    6  A    between atoms: C_6  and  C_7
REMARK    7  A    between atoms: C_7  and  C_8
REMARK    8  A    between atoms: C_8  and  C_9
REMARK    9  A    between atoms: C_9  and  C_10
REMARK   10  A    between atoms: C_10  and  C_11
REMARK   11  A    between atoms: C_11  and  C_12
REMARK   12  A    between atoms: C_12  and  C_13
REMARK   13  A    between atoms: C_13  and  C_14
REMARK   14  A    between atoms: C_14  and  C_15
REMARK   15  A    between atoms: C_15  and  C_16
REMARK   16  A    between atoms: C_16  and  S_17
REMARK   17  A    between atoms: S_17  and  N_20
REMARK   18  A    between atoms: N_20  and  C_21
REMARK   19  A    between atoms: N_20  and  C_22
REMARK   20  A    between atoms: C_22  and  C_23
REMARK   21  A    between atoms: C_23  and  C_24
REMARK   22  A    between atoms: C_24  and  N_25
REMARK   23  A    between atoms: N_25  and  C_26
REMARK   24  A    between atoms: N_25  and  C_27
REMARK   25  A    between atoms: N_25  and  C_28
REMARK                            x       y       z     vdW  Elec       q    Type
REMARK                         _______ _______ _______ _____ _____    ______ ____
ROOT
ATOM      1  C   UNL     1       1.849   6.183  20.899  0.00  0.00    +0.000 C 
ENDROOT
BRANCH   1   2
ATOM      2  C   UNL     1       1.032   4.975  20.515  0.00  0.00    +0.000 C 
BRANCH   2   3
ATOM      3  C   UNL     1       1.609   4.316  19.277  0.00  0.00    +0.000 C 
BRANCH   3   4
ATOM      4  S   UNL     1       1.763   2.593  19.643  0.00  0.00    +0.000 S 
ATOM      5  O   UNL     1       1.661   2.429  21.087  0.00  0.00    +0.000 OA
ATOM      6  O   UNL     1       0.891   1.883  18.741  0.00  0.00    +0.000 OA
BRANCH   4   7
ATOM      7  N   UNL     1       3.431   2.196  19.254  0.00  0.00    +0.000 NA
ATOM      8  C   UNL     1       3.646   1.761  17.830  0.00  0.00    +0.000 C 
BRANCH   7   9
ATOM      9  C   UNL     1       4.382   3.346  19.536  0.00  0.00    +0.000 C 
BRANCH   9  10
ATOM     10  C   UNL     1       4.934   3.915  18.252  0.00  0.00    +0.000 C 
BRANCH  10  11
ATOM     11  C   UNL     1       5.288   5.387  18.411  0.00  0.00    +0.000 C 
BRANCH  11  12
ATOM     12  N   UNL     1       6.761   5.611  18.122  0.00  0.00    +0.000 N 
ATOM     13  C   UNL     1       7.553   5.695  19.428  0.00  0.00    +0.000 C 
ATOM     14  C   UNL     1       7.355   4.533  17.226  0.00  0.00    +0.000 C 
ATOM     15  C   UNL     1       6.901   6.950  17.398  0.00  0.00    +0.000 C 
ENDBRANCH  11  12
ENDBRANCH  10  11
ENDBRANCH   9  10
ENDBRANCH   7   9
ENDBRANCH   4   7
ENDBRANCH   3   4
ENDBRANCH   2   3
ENDBRANCH   1   2
BRANCH   1  16
ATOM     16  C   UNL     1       2.370   6.860  19.646  0.00  0.00    +0.000 C 
BRANCH  16  17
ATOM     17  C   UNL     1       1.783   8.255  19.533  0.00  0.00    +0.000 C 
BRANCH  17  18
ATOM     18  C   UNL     1       2.143   8.862  18.192  0.00  0.00    +0.000 C 
BRANCH  18  19
ATOM     19  C   UNL     1       1.059   9.829  17.756  0.00  0.00    +0.000 C 
BRANCH  19  20
ATOM     20  C   UNL     1      -0.017   9.913  18.822  0.00  0.00    +0.000 C 
BRANCH  20  21
ATOM     21  C   UNL     1      -1.204  10.696  18.295  0.00  0.00    +0.000 C 
BRANCH  21  22
ATOM     22  C   UNL     1      -1.938   9.877  17.250  0.00  0.00    +0.000 C 
BRANCH  22  23
ATOM     23  C   UNL     1      -2.984  10.735  16.565  0.00  0.00    +0.000 C 
BRANCH  23  24
ATOM     24  C   UNL     1      -4.261  10.745  17.385  0.00  0.00    +0.000 C 
BRANCH  24  25
ATOM     25  C   UNL     1      -5.096  11.962  17.028  0.00  0.00    +0.000 C 
BRANCH  25  26
ATOM     26  C   UNL     1      -5.767  12.514  18.273  0.00  0.00    +0.000 C 
BRANCH  26  28
ATOM     27  C   UNL     1      -4.394  13.074  20.272  0.00  0.00    +0.000 C 
ATOM     28  C   UNL     1      -5.098  11.962  19.521  0.00  0.00    +0.000 C 
ENDBRANCH  26  28
ENDBRANCH  25  26
ENDBRANCH  24  25
ENDBRANCH  23  24
ENDBRANCH  22  23
ENDBRANCH  21  22
ENDBRANCH  20  21
ENDBRANCH  19  20
ENDBRANCH  18  19
ENDBRANCH  17  18
ENDBRANCH  16  17
ENDBRANCH   1  16
TORSDOF 20
ENDMDL
MODEL 9
REMARK VINA RESULT:      -5.3      5.640      7.454
REMARK  Name = 
REMARK  25 active torsions:
REMARK  status: ('A' for Active; 'I' for Inactive)
REMARK    1  A    between atoms: C_1  and  C_2
REMARK    2  A    between atoms: C_2  and  C_3
REMARK    3  A    between atoms: C_3  and  C_4
REMARK    4  A    between atoms: C_4  and  C_5
REMARK    5  A    between atoms: C_5  and  C_6
REMARK    6  A    between atoms: C_6  and  C_7
REMARK    7  A    between atoms: C_7  and  C_8
REMARK    8  A    between atoms: C_8  and  C_9
REMARK    9  A    between atoms: C_9  and  C_10
REMARK   10  A    between atoms: C_10  and  C_11
REMARK   11  A    between atoms: C_11  and  C_12
REMARK   12  A    between atoms: C_12  and  C_13
REMARK   13  A    between atoms: C_13  and  C_14
REMARK   14  A    between atoms: C_14  and  C_15
REMARK   15  A    between atoms: C_15  and  C_16
REMARK   16  A    between atoms: C_16  and  S_17
REMARK   17  A    between atoms: S_17  and  N_20
REMARK   18  A    between atoms: N_20  and  C_21
REMARK   19  A    between atoms: N_20  and  C_22
REMARK   20  A    between atoms: C_22  and  C_23
REMARK   21  A    between atoms: C_23  and  C_24
REMARK   22  A    between atoms: C_24  and  N_25
REMARK   23  A    between atoms: N_25  and  C_26
REMARK   24  A    between atoms: N_25  and  C_27
REMARK   25  A    between atoms: N_25  and  C_28
REMARK                            x       y       z     vdW  Elec       q    Type
REMARK                         _______ _______ _______ _____ _____    ______ ____
ROOT
ATOM      1  C   UNL     1       2.964   7.085  18.793  0.00  0.00    +0.000 C 
ENDROOT
BRANCH   1   2
ATOM      2  C   UNL     1       2.279   8.321  18.266  0.00  0.00    +0.000 C 
BRANCH   2   3
ATOM      3  C   UNL     1       1.504   9.012  19.372  0.00  0.00    +0.000 C 
BRANCH   3   4
ATOM      4  S   UNL     1       0.904  10.533  18.698  0.00  0.00    +0.000 S 
ATOM      5  O   UNL     1       2.025  11.223  18.075  0.00  0.00    +0.000 OA
ATOM      6  O   UNL     1      -0.298  10.231  17.962  0.00  0.00    +0.000 OA
BRANCH   4   7
ATOM      7  N   UNL     1       0.485  11.511  20.098  0.00  0.00    +0.000 NA
ATOM      8  C   UNL     1       1.619  12.345  20.630  0.00  0.00    +0.000 C 
BRANCH   7   9
ATOM      9  C   UNL     1      -0.687  12.438  19.830  0.00  0.00    +0.000 C 
BRANCH   9  10
ATOM     10  C   UNL     1      -0.243  13.657  19.057  0.00  0.00    +0.000 C 
BRANCH  10  11
ATOM     11  C   UNL     1      -0.746  14.935  19.714  0.00  0.00    +0.000 C 
BRANCH  11  12
ATOM     12  N   UNL     1       0.135  16.110  19.327  0.00  0.00    +0.000 N 
ATOM     13  C   UNL     1      -0.481  16.871  18.151  0.00  0.00    +0.000 C 
ATOM     14  C   UNL     1       0.385  17.064  20.486  0.00  0.00    +0.000 C 
ATOM     15  C   UNL     1       1.486  15.557  18.875  0.00  0.00    +0.000 C 
ENDBRANCH  11  12
ENDBRANCH  10  11
ENDBRANCH   9  10
ENDBRANCH   7   9
ENDBRANCH   4   7
ENDBRANCH   3   4
ENDBRANCH   2   3
ENDBRANCH   1   2
BRANCH   1  16
ATOM     16  C   UNL     1       1.933   5.997  19.024  0.00  0.00    +0.000 C 
BRANCH  16  17
ATOM     17  C   UNL     1       1.819   5.704  20.508  0.00  0.00    +0.000 C 
BRANCH  17  18
ATOM     18  C   UNL     1       2.318   4.303  20.800  0.00  0.00    +0.000 C 
BRANCH  18  19
ATOM     19  C   UNL     1       1.229   3.292  20.496  0.00  0.00    +0.000 C 
BRANCH  19  20
ATOM     20  C   UNL     1       1.807   2.128  19.713  0.00  0.00    +0.000 C 
BRANCH  20  21
ATOM     21  C   UNL     1       1.949   2.509  18.253  0.00  0.00    +0.000 C 
BRANCH  21  22
ATOM     22  C   UNL     1       3.410   2.458  17.847  0.00  0.00    +0.000 C 
BRANCH  22  23
ATOM     23  C   UNL     1       3.722   3.603  16.903  0.00  0.00    +0.000 C 
BRANCH  23  24
ATOM     24  C   UNL     1       5.069   4.207  17.251  0.00  0.00    +0.000 C 
BRANCH  24  25
ATOM     25  C   UNL     1       5.265   4.201  18.757  0.00  0.00    +0.000 C 
BRANCH  25  26
ATOM     26  C   UNL     1       6.188   5.335  19.165  0.00  0.00    +0.000 C 
BRANCH  26  28
ATOM     27  C   UNL     1       7.910   6.933  18.344  0.00  0.00    +0.000 C 
ATOM     28  C   UNL     1       7.163   5.650  18.042  0.00  0.00    +0.000 C 
ENDBRANCH  26  28
ENDBRANCH  25  26
ENDBRANCH  24  25
ENDBRANCH  23  24
ENDBRANCH  22  23
ENDBRANCH  21  22
ENDBRANCH  20  21
ENDBRANCH  19  20
ENDBRANCH  18  19
ENDBRANCH  17  18
ENDBRANCH  16  17
ENDBRANCH   1  16
TORSDOF 20
ENDMDL
