MODEL 1
REMARK VINA RESULT:      -8.0      0.000      0.000
REMARK  Name = 
REMARK  7 active torsions:
REMARK  status: ('A' for Active; 'I' for Inactive)
REMARK    1  A    between atoms: C_1  and  O_2
REMARK    2  A    between atoms: O_2  and  C_3
REMARK    3  A    between atoms: C_10  and  N_12
REMARK    4  A    between atoms: N_12  and  S_13
REMARK    5  A    between atoms: S_13  and  O_16
REMARK    6  A    between atoms: O_16  and  C_17
REMARK    7  A    between atoms: C_22  and  N_23
REMARK                            x       y       z     vdW  Elec       q    Type
REMARK                         _______ _______ _______ _____ _____    ______ ____
ROOT
ATOM      1  N   UNL     1       3.856   4.468  19.719  0.00  0.00    +0.000 NA
ENDROOT
BRANCH   1   9
ATOM      2  C   UNL     1       5.791   6.070  16.551  0.00  0.00    +0.000 A 
ATOM      3  C   UNL     1       6.111   5.694  15.278  0.00  0.00    +0.000 A 
ATOM      4  C   UNL     1       5.837   4.381  15.007  0.00  0.00    +0.000 A 
ATOM      5 CL   UNL     1       6.242   3.704  13.478  0.00  0.00    +0.000 Cl
ATOM      6  N   UNL     1       5.300   3.497  15.865  0.00  0.00    +0.000 NA
ATOM      7  C   UNL     1       4.975   3.999  17.065  0.00  0.00    +0.000 A 
ATOM      8  N   UNL     1       4.478   3.083  17.971  0.00  0.00    +0.000 N 
ATOM      9  C   UNL     1       4.121   3.233  19.292  0.00  0.00    +0.000 C 
ATOM     10  O   UNL     1       4.016   2.158  19.900  0.00  0.00    +0.000 OA
ATOM     11  N   UNL     1       5.208   5.252  17.429  0.00  0.00    +0.000 NA
ATOM     12  H   UNL     1       4.483   2.133  17.657  0.00  0.00    +0.000 HD
BRANCH   2  14
ATOM     13  C   UNL     1       7.449   7.406  17.483  0.00  0.00    +0.000 C 
ATOM     14  O   UNL     1       6.117   7.346  16.953  0.00  0.00    +0.000 OA
ENDBRANCH   2  14
ENDBRANCH   1   9
BRANCH   1  15
ATOM     15  S   UNL     1       2.393   4.696  20.293  0.00  0.00    +0.000 S 
ATOM     16  O   UNL     1       1.313   4.588  19.311  0.00  0.00    +0.000 OA
ATOM     17  O   UNL     1       2.131   4.017  21.561  0.00  0.00    +0.000 OA
BRANCH  15  18
ATOM     18  O   UNL     1       2.419   6.306  20.693  0.00  0.00    +0.000 OA
BRANCH  18  19
ATOM     19  C   UNL     1       2.160   7.304  19.769  0.00  0.00    +0.000 A 
ATOM     20  C   UNL     1       2.677   7.292  18.467  0.00  0.00    +0.000 A 
ATOM     21  C   UNL     1       2.468   8.350  17.576  0.00  0.00    +0.000 A 
ATOM     22  C   UNL     1       1.686   9.438  17.944  0.00  0.00    +0.000 A 
ATOM     23  C   UNL     1       1.124   9.468  19.218  0.00  0.00    +0.000 A 
ATOM     24  C   UNL     1       1.374   8.412  20.120  0.00  0.00    +0.000 A 
BRANCH  24  25
ATOM     25  N   UNL     1       0.807   8.553  21.454  0.00  0.00    +0.000 N 
ATOM     26  O   UNL     1      -0.390   8.279  21.609  0.00  0.00    +0.000 OA
ATOM     27  O   UNL     1       1.538   9.040  22.326  0.00  0.00    +0.000 OA
ENDBRANCH  24  25
ENDBRANCH  18  19
ENDBRANCH  15  18
ENDBRANCH   1  15
TORSDOF 6
ENDMDL
MODEL 2
REMARK VINA RESULT:      -7.5      1.325      1.487
REMARK  Name = 
REMARK  7 active torsions:
REMARK  status: ('A' for Active; 'I' for Inactive)
REMARK    1  A    between atoms: C_1  and  O_2
REMARK    2  A    between atoms: O_2  and  C_3
REMARK    3  A    between atoms: C_10  and  N_12
REMARK    4  A    between atoms: N_12  and  S_13
REMARK    5  A    between atoms: S_13  and  O_16
REMARK    6  A    between atoms: O_16  and  C_17
REMARK    7  A    between atoms: C_22  and  N_23
REMARK                            x       y       z     vdW  Elec       q    Type
REMARK                         _______ _______ _______ _____ _____    ______ ____
ROOT
ATOM      1  N   UNL     1       3.023   4.267  19.284  0.00  0.00    +0.000 NA
ENDROOT
BRANCH   1   9
ATOM      2  C   UNL     1       6.605   4.506  17.424  0.00  0.00    +0.000 A 
ATOM      3  C   UNL     1       7.069   4.509  16.140  0.00  0.00    +0.000 A 
ATOM      4  C   UNL     1       6.108   4.226  15.207  0.00  0.00    +0.000 A 
ATOM      5 CL   UNL     1       6.519   4.111  13.541  0.00  0.00    +0.000 Cl
ATOM      6  N   UNL     1       4.815   3.965  15.465  0.00  0.00    +0.000 NA
ATOM      7  C   UNL     1       4.469   4.049  16.758  0.00  0.00    +0.000 A 
ATOM      8  N   UNL     1       3.155   3.725  17.037  0.00  0.00    +0.000 N 
ATOM      9  C   UNL     1       2.492   3.632  18.239  0.00  0.00    +0.000 C 
ATOM     10  O   UNL     1       1.418   3.017  18.164  0.00  0.00    +0.000 OA
ATOM     11  N   UNL     1       5.324   4.307  17.737  0.00  0.00    +0.000 NA
ATOM     12  H   UNL     1       2.627   3.394  16.255  0.00  0.00    +0.000 HD
BRANCH   2  14
ATOM     13  C   UNL     1       6.990   5.536  19.472  0.00  0.00    +0.000 C 
ATOM     14  O   UNL     1       7.513   4.684  18.443  0.00  0.00    +0.000 OA
ENDBRANCH   2  14
ENDBRANCH   1   9
BRANCH   1  15
ATOM     15  S   UNL     1       2.003   4.676  20.430  0.00  0.00    +0.000 S 
ATOM     16  O   UNL     1       0.597   4.724  20.026  0.00  0.00    +0.000 OA
ATOM     17  O   UNL     1       2.244   4.017  21.714  0.00  0.00    +0.000 OA
BRANCH  15  18
ATOM     18  O   UNL     1       2.401   6.262  20.707  0.00  0.00    +0.000 OA
BRANCH  18  19
ATOM     19  C   UNL     1       2.156   7.261  19.780  0.00  0.00    +0.000 A 
ATOM     20  C   UNL     1       2.680   7.244  18.482  0.00  0.00    +0.000 A 
ATOM     21  C   UNL     1       2.486   8.302  17.589  0.00  0.00    +0.000 A 
ATOM     22  C   UNL     1       1.709   9.396  17.951  0.00  0.00    +0.000 A 
ATOM     23  C   UNL     1       1.140   9.433  19.221  0.00  0.00    +0.000 A 
ATOM     24  C   UNL     1       1.376   8.376  20.126  0.00  0.00    +0.000 A 
BRANCH  24  25
ATOM     25  N   UNL     1       0.802   8.522  21.456  0.00  0.00    +0.000 N 
ATOM     26  O   UNL     1       1.510   9.011  22.345  0.00  0.00    +0.000 OA
ATOM     27  O   UNL     1      -0.329   8.049  21.634  0.00  0.00    +0.000 OA
ENDBRANCH  24  25
ENDBRANCH  18  19
ENDBRANCH  15  18
ENDBRANCH   1  15
TORSDOF 6
ENDMDL
MODEL 3
REMARK VINA RESULT:      -7.5      1.641      2.151
REMARK  Name = 
REMARK  7 active torsions:
REMARK  status: ('A' for Active; 'I' for Inactive)
REMARK    1  A    between atoms: C_1  and  O_2
REMARK    2  A    between atoms: O_2  and  C_3
REMARK    3  A    between atoms: C_10  and  N_12
REMARK    4  A    between atoms: N_12  and  S_13
REMARK    5  A    between atoms: S_13  and  O_16
REMARK    6  A    between atoms: O_16  and  C_17
REMARK    7  A    between atoms: C_22  and  N_23
REMARK                            x       y       z     vdW  Elec       q    Type
REMARK                         _______ _______ _______ _____ _____    ______ ____
ROOT
ATOM      1  N   UNL     1       4.102   4.827  19.639  0.00  0.00    +0.000 NA
ENDROOT
BRANCH   1   9
ATOM      2  C   UNL     1       6.033   6.080  16.314  0.00  0.00    +0.000 A 
ATOM      3  C   UNL     1       6.272   5.606  15.057  0.00  0.00    +0.000 A 
ATOM      4  C   UNL     1       5.884   4.306  14.875  0.00  0.00    +0.000 A 
ATOM      5 CL   UNL     1       6.173   3.512  13.377  0.00  0.00    +0.000 Cl
ATOM      6  N   UNL     1       5.312   3.520  15.803  0.00  0.00    +0.000 NA
ATOM      7  C   UNL     1       5.076   4.116  16.981  0.00  0.00    +0.000 A 
ATOM      8  N   UNL     1       4.543   3.297  17.958  0.00  0.00    +0.000 N 
ATOM      9  C   UNL     1       4.251   3.552  19.279  0.00  0.00    +0.000 C 
ATOM     10  O   UNL     1       4.084   2.526  19.954  0.00  0.00    +0.000 OA
ATOM     11  N   UNL     1       5.422   5.365  17.260  0.00  0.00    +0.000 NA
ATOM     12  H   UNL     1       4.460   2.334  17.702  0.00  0.00    +0.000 HD
BRANCH   2  14
ATOM     13  C   UNL     1       7.540   7.309  17.588  0.00  0.00    +0.000 C 
ATOM     14  O   UNL     1       6.475   7.345  16.627  0.00  0.00    +0.000 OA
ENDBRANCH   2  14
ENDBRANCH   1   9
BRANCH   1  15
ATOM     15  S   UNL     1       2.614   5.380  19.609  0.00  0.00    +0.000 S 
ATOM     16  O   UNL     1       1.885   5.140  18.363  0.00  0.00    +0.000 OA
ATOM     17  O   UNL     1       1.846   5.108  20.824  0.00  0.00    +0.000 OA
BRANCH  15  18
ATOM     18  O   UNL     1       2.848   7.021  19.636  0.00  0.00    +0.000 OA
BRANCH  18  19
ATOM     19  C   UNL     1       1.846   7.907  19.998  0.00  0.00    +0.000 A 
ATOM     20  C   UNL     1       1.117   7.790  21.188  0.00  0.00    +0.000 A 
ATOM     21  C   UNL     1       0.056   8.648  21.495  0.00  0.00    +0.000 A 
ATOM     22  C   UNL     1      -0.277   9.692  20.641  0.00  0.00    +0.000 A 
ATOM     23  C   UNL     1       0.450   9.863  19.465  0.00  0.00    +0.000 A 
ATOM     24  C   UNL     1       1.493   8.967  19.148  0.00  0.00    +0.000 A 
BRANCH  24  25
ATOM     25  N   UNL     1       2.157   9.174  17.869  0.00  0.00    +0.000 N 
ATOM     26  O   UNL     1       2.539   8.177  17.244  0.00  0.00    +0.000 OA
ATOM     27  O   UNL     1       2.390  10.345  17.541  0.00  0.00    +0.000 OA
ENDBRANCH  24  25
ENDBRANCH  18  19
ENDBRANCH  15  18
ENDBRANCH   1  15
TORSDOF 6
ENDMDL
MODEL 4
REMARK VINA RESULT:      -7.3      1.753      2.310
REMARK  Name = 
REMARK  7 active torsions:
REMARK  status: ('A' for Active; 'I' for Inactive)
REMARK    1  A    between atoms: C_1  and  O_2
REMARK    2  A    between atoms: O_2  and  C_3
REMARK    3  A    between atoms: C_10  and  N_12
REMARK    4  A    between atoms: N_12  and  S_13
REMARK    5  A    between atoms: S_13  and  O_16
REMARK    6  A    between atoms: O_16  and  C_17
REMARK    7  A    between atoms: C_22  and  N_23
REMARK                            x       y       z     vdW  Elec       q    Type
REMARK                         _______ _______ _______ _____ _____    ______ ____
ROOT
ATOM      1  N   UNL     1       3.402   3.828  19.480  0.00  0.00    +0.000 NA
ENDROOT
BRANCH   1   9
ATOM      2  C   UNL     1       6.350   5.636  17.383  0.00  0.00    +0.000 A 
ATOM      3  C   UNL     1       6.829   5.613  16.105  0.00  0.00    +0.000 A 
ATOM      4  C   UNL     1       6.276   4.631  15.327  0.00  0.00    +0.000 A 
ATOM      5 CL   UNL     1       6.809   4.398  13.708  0.00  0.00    +0.000 Cl
ATOM      6  N   UNL     1       5.343   3.748  15.723  0.00  0.00    +0.000 NA
ATOM      7  C   UNL     1       4.910   3.908  16.981  0.00  0.00    +0.000 A 
ATOM      8  N   UNL     1       3.995   2.967  17.414  0.00  0.00    +0.000 N 
ATOM      9  C   UNL     1       3.410   2.787  18.646  0.00  0.00    +0.000 C 
ATOM     10  O   UNL     1       2.885   1.673  18.785  0.00  0.00    +0.000 OA
ATOM     11  N   UNL     1       5.388   4.820  17.817  0.00  0.00    +0.000 NA
ATOM     12  H   UNL     1       3.812   2.229  16.765  0.00  0.00    +0.000 HD
BRANCH   2  14
ATOM     13  C   UNL     1       7.788   5.861  19.195  0.00  0.00    +0.000 C 
ATOM     14  O   UNL     1       6.913   6.524  18.272  0.00  0.00    +0.000 OA
ENDBRANCH   2  14
ENDBRANCH   1   9
BRANCH   1  15
ATOM     15  S   UNL     1       2.136   4.780  19.378  0.00  0.00    +0.000 S 
ATOM     16  O   UNL     1       1.636   5.010  18.021  0.00  0.00    +0.000 OA
ATOM     17  O   UNL     1       1.097   4.509  20.370  0.00  0.00    +0.000 OA
BRANCH  15  18
ATOM     18  O   UNL     1       2.761   6.247  19.835  0.00  0.00    +0.000 OA
BRANCH  18  19
ATOM     19  C   UNL     1       1.957   7.338  20.119  0.00  0.00    +0.000 A 
ATOM     20  C   UNL     1       1.200   7.445  21.293  0.00  0.00    +0.000 A 
ATOM     21  C   UNL     1       0.334   8.518  21.523  0.00  0.00    +0.000 A 
ATOM     22  C   UNL     1       0.237   9.555  20.603  0.00  0.00    +0.000 A 
ATOM     23  C   UNL     1       1.002   9.503  19.441  0.00  0.00    +0.000 A 
ATOM     24  C   UNL     1       1.843   8.396  19.203  0.00  0.00    +0.000 A 
BRANCH  24  25
ATOM     25  N   UNL     1       2.557   8.386  17.934  0.00  0.00    +0.000 N 
ATOM     26  O   UNL     1       3.573   7.686  17.844  0.00  0.00    +0.000 OA
ATOM     27  O   UNL     1       2.155   9.164  17.058  0.00  0.00    +0.000 OA
ENDBRANCH  24  25
ENDBRANCH  18  19
ENDBRANCH  15  18
ENDBRANCH   1  15
TORSDOF 6
ENDMDL
MODEL 5
REMARK VINA RESULT:      -7.2      3.461      7.360
REMARK  Name = 
REMARK  7 active torsions:
REMARK  status: ('A' for Active; 'I' for Inactive)
REMARK    1  A    between atoms: C_1  and  O_2
REMARK    2  A    between atoms: O_2  and  C_3
REMARK    3  A    between atoms: C_10  and  N_12
REMARK    4  A    between atoms: N_12  and  S_13
REMARK    5  A    between atoms: S_13  and  O_16
REMARK    6  A    between atoms: O_16  and  C_17
REMARK    7  A    between atoms: C_22  and  N_23
REMARK                            x       y       z     vdW  Elec       q    Type
REMARK                         _______ _______ _______ _____ _____    ______ ____
ROOT
ATOM      1  N   UNL     1       2.323   7.832  19.295  0.00  0.00    +0.000 NA
ENDROOT
BRANCH   1   9
ATOM      2  C   UNL     1       0.164  10.470  21.469  0.00  0.00    +0.000 A 
ATOM      3  C   UNL     1      -0.863  11.343  21.254  0.00  0.00    +0.000 A 
ATOM      4  C   UNL     1      -1.193  11.489  19.933  0.00  0.00    +0.000 A 
ATOM      5 CL   UNL     1      -2.415  12.603  19.458  0.00  0.00    +0.000 Cl
ATOM      6  N   UNL     1      -0.603  10.860  18.902  0.00  0.00    +0.000 NA
ATOM      7  C   UNL     1       0.353   9.986  19.245  0.00  0.00    +0.000 A 
ATOM      8  N   UNL     1       1.004   9.379  18.188  0.00  0.00    +0.000 N 
ATOM      9  C   UNL     1       2.066   8.505  18.172  0.00  0.00    +0.000 C 
ATOM     10  O   UNL     1       2.604   8.401  17.061  0.00  0.00    +0.000 OA
ATOM     11  N   UNL     1       0.752   9.779  20.492  0.00  0.00    +0.000 NA
ATOM     12  H   UNL     1       0.740   9.713  17.283  0.00  0.00    +0.000 HD
BRANCH   2  14
ATOM     13  C   UNL     1      -0.135   9.369  23.494  0.00  0.00    +0.000 C 
ATOM     14  O   UNL     1       0.635  10.327  22.755  0.00  0.00    +0.000 OA
ENDBRANCH   2  14
ENDBRANCH   1   9
BRANCH   1  15
ATOM     15  S   UNL     1       2.540   6.269  19.124  0.00  0.00    +0.000 S 
ATOM     16  O   UNL     1       2.356   5.476  20.340  0.00  0.00    +0.000 OA
ATOM     17  O   UNL     1       1.916   5.701  17.928  0.00  0.00    +0.000 OA
BRANCH  15  18
ATOM     18  O   UNL     1       4.167   6.171  18.817  0.00  0.00    +0.000 OA
BRANCH  18  19
ATOM     19  C   UNL     1       4.670   5.629  17.646  0.00  0.00    +0.000 A 
ATOM     20  C   UNL     1       5.009   6.404  16.529  0.00  0.00    +0.000 A 
ATOM     21  C   UNL     1       5.438   5.829  15.329  0.00  0.00    +0.000 A 
ATOM     22  C   UNL     1       5.595   4.452  15.224  0.00  0.00    +0.000 A 
ATOM     23  C   UNL     1       5.303   3.651  16.325  0.00  0.00    +0.000 A 
ATOM     24  C   UNL     1       4.834   4.241  17.517  0.00  0.00    +0.000 A 
BRANCH  24  25
ATOM     25  N   UNL     1       4.487   3.328  18.598  0.00  0.00    +0.000 N 
ATOM     26  O   UNL     1       3.401   2.739  18.535  0.00  0.00    +0.000 OA
ATOM     27  O   UNL     1       5.261   3.283  19.564  0.00  0.00    +0.000 OA
ENDBRANCH  24  25
ENDBRANCH  18  19
ENDBRANCH  15  18
ENDBRANCH   1  15
TORSDOF 6
ENDMDL
MODEL 6
REMARK VINA RESULT:      -7.2      3.397      6.728
REMARK  Name = 
REMARK  7 active torsions:
REMARK  status: ('A' for Active; 'I' for Inactive)
REMARK    1  A    between atoms: C_1  and  O_2
REMARK    2  A    between atoms: O_2  and  C_3
REMARK    3  A    between atoms: C_10  and  N_12
REMARK    4  A    between atoms: N_12  and  S_13
REMARK    5  A    between atoms: S_13  and  O_16
REMARK    6  A    between atoms: O_16  and  C_17
REMARK    7  A    between atoms: C_22  and  N_23
REMARK                            x       y       z     vdW  Elec       q    Type
REMARK                         _______ _______ _______ _____ _____    ______ ____
ROOT
ATOM      1  N   UNL     1       3.390   5.872  19.383  0.00  0.00    +0.000 NA
ENDROOT
BRANCH   1   9
ATOM      2  C   UNL     1       1.546   9.465  19.180  0.00  0.00    +0.000 A 
ATOM      3  C   UNL     1       0.764  10.237  19.990  0.00  0.00    +0.000 A 
ATOM      4  C   UNL     1       0.366   9.604  21.136  0.00  0.00    +0.000 A 
ATOM      5 CL   UNL     1      -0.687  10.391  22.246  0.00  0.00    +0.000 Cl
ATOM      6  N   UNL     1       0.684   8.346  21.490  0.00  0.00    +0.000 NA
ATOM      7  C   UNL     1       1.504   7.711  20.642  0.00  0.00    +0.000 A 
ATOM      8  N   UNL     1       1.788   6.398  20.969  0.00  0.00    +0.000 N 
ATOM      9  C   UNL     1       2.518   5.445  20.296  0.00  0.00    +0.000 C 
ATOM     10  O   UNL     1       2.314   4.292  20.701  0.00  0.00    +0.000 OA
ATOM     11  N   UNL     1       1.938   8.232  19.502  0.00  0.00    +0.000 NA
ATOM     12  H   UNL     1       1.293   6.046  21.763  0.00  0.00    +0.000 HD
BRANCH   2  14
ATOM     13  C   UNL     1       2.131  11.395  18.022  0.00  0.00    +0.000 C 
ATOM     14  O   UNL     1       1.919   9.977  17.957  0.00  0.00    +0.000 OA
ENDBRANCH   2  14
ENDBRANCH   1   9
BRANCH   1  15
ATOM     15  S   UNL     1       3.669   4.874  18.180  0.00  0.00    +0.000 S 
ATOM     16  O   UNL     1       4.677   3.846  18.443  0.00  0.00    +0.000 OA
ATOM     17  O   UNL     1       2.463   4.385  17.512  0.00  0.00    +0.000 OA
BRANCH  15  18
ATOM     18  O   UNL     1       4.381   5.865  17.057  0.00  0.00    +0.000 OA
BRANCH  18  19
ATOM     19  C   UNL     1       5.225   5.382  16.072  0.00  0.00    +0.000 A 
ATOM     20  C   UNL     1       4.777   4.612  14.991  0.00  0.00    +0.000 A 
ATOM     21  C   UNL     1       5.658   4.067  14.052  0.00  0.00    +0.000 A 
ATOM     22  C   UNL     1       7.021   4.322  14.133  0.00  0.00    +0.000 A 
ATOM     23  C   UNL     1       7.502   5.114  15.173  0.00  0.00    +0.000 A 
ATOM     24  C   UNL     1       6.607   5.626  16.136  0.00  0.00    +0.000 A 
BRANCH  24  25
ATOM     25  N   UNL     1       7.197   6.387  17.228  0.00  0.00    +0.000 N 
ATOM     26  O   UNL     1       7.463   7.579  17.028  0.00  0.00    +0.000 OA
ATOM     27  O   UNL     1       7.490   5.760  18.255  0.00  0.00    +0.000 OA
ENDBRANCH  24  25
ENDBRANCH  18  19
ENDBRANCH  15  18
ENDBRANCH   1  15
TORSDOF 6
ENDMDL
MODEL 7
REMARK VINA RESULT:      -7.2      3.054      5.961
REMARK  Name = 
REMARK  7 active torsions:
REMARK  status: ('A' for Active; 'I' for Inactive)
REMARK    1  A    between atoms: C_1  and  O_2
REMARK    2  A    between atoms: O_2  and  C_3
REMARK    3  A    between atoms: C_10  and  N_12
REMARK    4  A    between atoms: N_12  and  S_13
REMARK    5  A    between atoms: S_13  and  O_16
REMARK    6  A    between atoms: O_16  and  C_17
REMARK    7  A    between atoms: C_22  and  N_23
REMARK                            x       y       z     vdW  Elec       q    Type
REMARK                         _______ _______ _______ _____ _____    ______ ____
ROOT
ATOM      1  N   UNL     1       4.220   5.960  18.606  0.00  0.00    +0.000 NA
ENDROOT
BRANCH   1   9
ATOM      2  C   UNL     1       1.467   8.404  20.281  0.00  0.00    +0.000 A 
ATOM      3  C   UNL     1       0.581   9.352  19.859  0.00  0.00    +0.000 A 
ATOM      4  C   UNL     1       0.724   9.690  18.540  0.00  0.00    +0.000 A 
ATOM      5 CL   UNL     1      -0.255  10.923  17.845  0.00  0.00    +0.000 Cl
ATOM      6  N   UNL     1       1.626   9.172  17.689  0.00  0.00    +0.000 NA
ATOM      7  C   UNL     1       2.401   8.208  18.205  0.00  0.00    +0.000 A 
ATOM      8  N   UNL     1       3.369   7.711  17.353  0.00  0.00    +0.000 N 
ATOM      9  C   UNL     1       4.367   6.789  17.572  0.00  0.00    +0.000 C 
ATOM     10  O   UNL     1       5.251   6.803  16.704  0.00  0.00    +0.000 OA
ATOM     11  N   UNL     1       2.349   7.816  19.470  0.00  0.00    +0.000 NA
ATOM     12  H   UNL     1       3.432   8.176  16.470  0.00  0.00    +0.000 HD
BRANCH   2  14
ATOM     13  C   UNL     1       1.233   9.209  22.449  0.00  0.00    +0.000 C 
ATOM     14  O   UNL     1       1.470   8.065  21.615  0.00  0.00    +0.000 OA
ENDBRANCH   2  14
ENDBRANCH   1   9
BRANCH   1  15
ATOM     15  S   UNL     1       5.416   4.944  18.847  0.00  0.00    +0.000 S 
ATOM     16  O   UNL     1       5.931   4.289  17.644  0.00  0.00    +0.000 OA
ATOM     17  O   UNL     1       6.449   5.435  19.760  0.00  0.00    +0.000 OA
BRANCH  15  18
ATOM     18  O   UNL     1       4.677   3.723  19.691  0.00  0.00    +0.000 OA
BRANCH  18  19
ATOM     19  C   UNL     1       3.488   3.148  19.273  0.00  0.00    +0.000 A 
ATOM     20  C   UNL     1       3.337   2.523  18.029  0.00  0.00    +0.000 A 
ATOM     21  C   UNL     1       2.107   2.020  17.595  0.00  0.00    +0.000 A 
ATOM     22  C   UNL     1       0.991   2.078  18.421  0.00  0.00    +0.000 A 
ATOM     23  C   UNL     1       1.110   2.659  19.681  0.00  0.00    +0.000 A 
ATOM     24  C   UNL     1       2.348   3.197  20.092  0.00  0.00    +0.000 A 
BRANCH  24  25
ATOM     25  N   UNL     1       2.372   3.846  21.394  0.00  0.00    +0.000 N 
ATOM     26  O   UNL     1       2.387   3.128  22.402  0.00  0.00    +0.000 OA
ATOM     27  O   UNL     1       2.269   5.080  21.408  0.00  0.00    +0.000 OA
ENDBRANCH  24  25
ENDBRANCH  18  19
ENDBRANCH  15  18
ENDBRANCH   1  15
TORSDOF 6
ENDMDL
MODEL 8
REMARK VINA RESULT:      -7.2      1.930      2.537
REMARK  Name = 
REMARK  7 active torsions:
REMARK  status: ('A' for Active; 'I' for Inactive)
REMARK    1  A    between atoms: C_1  and  O_2
REMARK    2  A    between atoms: O_2  and  C_3
REMARK    3  A    between atoms: C_10  and  N_12
REMARK    4  A    between atoms: N_12  and  S_13
REMARK    5  A    between atoms: S_13  and  O_16
REMARK    6  A    between atoms: O_16  and  C_17
REMARK    7  A    between atoms: C_22  and  N_23
REMARK                            x       y       z     vdW  Elec       q    Type
REMARK                         _______ _______ _______ _____ _____    ______ ____
ROOT
ATOM      1  N   UNL     1       3.530   3.371  19.521  0.00  0.00    +0.000 NA
ENDROOT
BRANCH   1   9
ATOM      2  C   UNL     1       6.916   4.516  17.630  0.00  0.00    +0.000 A 
ATOM      3  C   UNL     1       7.321   4.732  16.344  0.00  0.00    +0.000 A 
ATOM      4  C   UNL     1       6.404   4.341  15.405  0.00  0.00    +0.000 A 
ATOM      5 CL   UNL     1       6.767   4.466  13.728  0.00  0.00    +0.000 Cl
ATOM      6  N   UNL     1       5.202   3.796  15.660  0.00  0.00    +0.000 NA
ATOM      7  C   UNL     1       4.895   3.688  16.960  0.00  0.00    +0.000 A 
ATOM      8  N   UNL     1       3.686   3.074  17.231  0.00  0.00    +0.000 N 
ATOM      9  C   UNL     1       3.102   2.736  18.430  0.00  0.00    +0.000 C 
ATOM     10  O   UNL     1       2.175   1.922  18.314  0.00  0.00    +0.000 OA
ATOM     11  N   UNL     1       5.715   4.027  17.945  0.00  0.00    +0.000 NA
ATOM     12  H   UNL     1       3.208   2.714  16.430  0.00  0.00    +0.000 HD
BRANCH   2  14
ATOM     13  C   UNL     1       7.268   5.731  19.580  0.00  0.00    +0.000 C 
ATOM     14  O   UNL     1       7.806   4.785  18.645  0.00  0.00    +0.000 OA
ENDBRANCH   2  14
ENDBRANCH   1   9
BRANCH   1  15
ATOM     15  S   UNL     1       2.450   4.267  20.263  0.00  0.00    +0.000 S 
ATOM     16  O   UNL     1       1.213   4.500  19.516  0.00  0.00    +0.000 OA
ATOM     17  O   UNL     1       2.254   3.932  21.673  0.00  0.00    +0.000 OA
BRANCH  15  18
ATOM     18  O   UNL     1       3.189   5.752  20.299  0.00  0.00    +0.000 OA
BRANCH  18  19
ATOM     19  C   UNL     1       2.515   6.923  19.994  0.00  0.00    +0.000 A 
ATOM     20  C   UNL     1       1.674   7.578  20.902  0.00  0.00    +0.000 A 
ATOM     21  C   UNL     1       0.941   8.715  20.547  0.00  0.00    +0.000 A 
ATOM     22  C   UNL     1       1.069   9.269  19.279  0.00  0.00    +0.000 A 
ATOM     23  C   UNL     1       1.924   8.666  18.360  0.00  0.00    +0.000 A 
ATOM     24  C   UNL     1       2.629   7.498  18.718  0.00  0.00    +0.000 A 
BRANCH  24  25
ATOM     25  N   UNL     1       3.449   6.892  17.679  0.00  0.00    +0.000 N 
ATOM     26  O   UNL     1       2.984   5.929  17.058  0.00  0.00    +0.000 OA
ATOM     27  O   UNL     1       4.605   7.320  17.557  0.00  0.00    +0.000 OA
ENDBRANCH  24  25
ENDBRANCH  18  19
ENDBRANCH  15  18
ENDBRANCH   1  15
TORSDOF 6
ENDMDL
MODEL 9
REMARK VINA RESULT:      -7.2      3.342      6.598
REMARK  Name = 
REMARK  7 active torsions:
REMARK  status: ('A' for Active; 'I' for Inactive)
REMARK    1  A    between atoms: C_1  and  O_2
REMARK    2  A    between atoms: O_2  and  C_3
REMARK    3  A    between atoms: C_10  and  N_12
REMARK    4  A    between atoms: N_12  and  S_13
REMARK    5  A    between atoms: S_13  and  O_16
REMARK    6  A    between atoms: O_16  and  C_17
REMARK    7  A    between atoms: C_22  and  N_23
REMARK                            x       y       z     vdW  Elec       q    Type
REMARK                         _______ _______ _______ _____ _____    ______ ____
ROOT
ATOM      1  N   UNL     1       6.577   6.245  18.294  0.00  0.00    +0.000 NA
ENDROOT
BRANCH   1   9
ATOM      2  C   UNL     1       2.610   5.592  18.731  0.00  0.00    +0.000 A 
ATOM      3  C   UNL     1       1.807   4.725  19.414  0.00  0.00    +0.000 A 
ATOM      4  C   UNL     1       2.489   3.705  20.021  0.00  0.00    +0.000 A 
ATOM      5 CL   UNL     1       1.640   2.470  20.867  0.00  0.00    +0.000 Cl
ATOM      6  N   UNL     1       3.821   3.522  19.990  0.00  0.00    +0.000 NA
ATOM      7  C   UNL     1       4.506   4.472  19.337  0.00  0.00    +0.000 A 
ATOM      8  N   UNL     1       5.869   4.259  19.251  0.00  0.00    +0.000 N 
ATOM      9  C   UNL     1       6.847   4.977  18.601  0.00  0.00    +0.000 C 
ATOM     10  O   UNL     1       7.906   4.348  18.458  0.00  0.00    +0.000 OA
ATOM     11  N   UNL     1       3.940   5.492  18.708  0.00  0.00    +0.000 NA
ATOM     12  H   UNL     1       6.184   3.385  19.621  0.00  0.00    +0.000 HD
BRANCH   2  14
ATOM     13  C   UNL     1       2.778   7.808  18.051  0.00  0.00    +0.000 C 
ATOM     14  O   UNL     1       2.011   6.597  18.005  0.00  0.00    +0.000 OA
ENDBRANCH   2  14
ENDBRANCH   1   9
BRANCH   1  15
ATOM     15  S   UNL     1       6.919   6.680  16.806  0.00  0.00    +0.000 S 
ATOM     16  O   UNL     1       5.764   7.019  15.973  0.00  0.00    +0.000 OA
ATOM     17  O   UNL     1       8.042   7.609  16.693  0.00  0.00    +0.000 OA
BRANCH  15  18
ATOM     18  O   UNL     1       7.493   5.269  16.150  0.00  0.00    +0.000 OA
BRANCH  18  19
ATOM     19  C   UNL     1       7.181   4.869  14.862  0.00  0.00    +0.000 A 
ATOM     20  C   UNL     1       7.928   5.252  13.741  0.00  0.00    +0.000 A 
ATOM     21  C   UNL     1       7.547   4.903  12.441  0.00  0.00    +0.000 A 
ATOM     22  C   UNL     1       6.429   4.107  12.223  0.00  0.00    +0.000 A 
ATOM     23  C   UNL     1       5.682   3.675  13.316  0.00  0.00    +0.000 A 
ATOM     24  C   UNL     1       6.054   4.067  14.619  0.00  0.00    +0.000 A 
BRANCH  24  25
ATOM     25  N   UNL     1       5.182   3.629  15.700  0.00  0.00    +0.000 N 
ATOM     26  O   UNL     1       4.122   4.242  15.876  0.00  0.00    +0.000 OA
ATOM     27  O   UNL     1       5.612   2.734  16.440  0.00  0.00    +0.000 OA
ENDBRANCH  24  25
ENDBRANCH  18  19
ENDBRANCH  15  18
ENDBRANCH   1  15
TORSDOF 6
ENDMDL
