MODEL 1
REMARK VINA RESULT:      -9.3      0.000      0.000
REMARK  Name = 
REMARK  5 active torsions:
REMARK  status: ('A' for Active; 'I' for Inactive)
REMARK    1  A    between atoms: C_1  and  O_2
REMARK    2  A    between atoms: O_2  and  C_3
REMARK    3  A    between atoms: C_8  and  C_9
REMARK    4  A    between atoms: C_11  and  C_12
REMARK    5  A    between atoms: C_20  and  C_21
REMARK                            x       y       z     vdW  Elec       q    Type
REMARK                         _______ _______ _______ _____ _____    ______ ____
ROOT
ATOM      1  C   UNL     1       3.132   6.418  18.011  0.00  0.00    +0.000 A 
ATOM      2  N   UNL     1       3.959   6.590  16.916  0.00  0.00    +0.000 NA
ATOM      3  C   UNL     1       4.514   5.417  16.679  0.00  0.00    +0.000 A 
ATOM      4  N   UNL     1       4.028   4.494  17.571  0.00  0.00    +0.000 N 
ATOM      5  C   UNL     1       3.127   5.092  18.426  0.00  0.00    +0.000 A 
ATOM      6  H   UNL     1       4.290   3.520  17.577  0.00  0.00    +0.000 HD
ENDROOT
BRANCH   1  12
ATOM      7  C   UNL     1      -0.059  10.713  21.716  0.00  0.00    +0.000 A 
ATOM      8  C   UNL     1       0.325   9.621  22.492  0.00  0.00    +0.000 A 
ATOM      9  C   UNL     1       1.042   8.567  21.918  0.00  0.00    +0.000 A 
ATOM     10  C   UNL     1       1.380   8.579  20.557  0.00  0.00    +0.000 A 
ATOM     11  C   UNL     1       2.081   7.514  19.960  0.00  0.00    +0.000 A 
ATOM     12  C   UNL     1       2.397   7.531  18.595  0.00  0.00    +0.000 A 
ATOM     13  C   UNL     1       1.978   8.619  17.821  0.00  0.00    +0.000 A 
ATOM     14  C   UNL     1       1.313   9.698  18.406  0.00  0.00    +0.000 A 
ATOM     15  C   UNL     1       0.999   9.686  19.771  0.00  0.00    +0.000 A 
ATOM     16  C   UNL     1       0.295  10.746  20.364  0.00  0.00    +0.000 A 
BRANCH   7  18
ATOM     17  C   UNL     1      -1.804  11.540  23.097  0.00  0.00    +0.000 C 
ATOM     18  O   UNL     1      -0.778  11.794  22.146  0.00  0.00    +0.000 OA
ENDBRANCH   7  18
ENDBRANCH   1  12
BRANCH   3  19
ATOM     19  C   UNL     1       5.504   5.100  15.645  0.00  0.00    +0.000 A 
ATOM     20  C   UNL     1       5.146   4.305  14.546  0.00  0.00    +0.000 A 
ATOM     21  C   UNL     1       6.074   4.004  13.543  0.00  0.00    +0.000 A 
ATOM     22  C   UNL     1       7.378   4.492  13.624  0.00  0.00    +0.000 A 
ATOM     23  C   UNL     1       7.754   5.282  14.707  0.00  0.00    +0.000 A 
ATOM     24  C   UNL     1       6.822   5.578  15.701  0.00  0.00    +0.000 A 
ATOM     25  F   UNL     1       7.223   6.345  16.729  0.00  0.00    +0.000 F 
ENDBRANCH   3  19
BRANCH   5  26
ATOM     26  C   UNL     1       2.412   4.340  19.461  0.00  0.00    +0.000 A 
ATOM     27  C   UNL     1       1.241   3.638  19.161  0.00  0.00    +0.000 A 
ATOM     28  C   UNL     1       0.626   2.907  20.166  0.00  0.00    +0.000 A 
ATOM     29  N   UNL     1       1.093   2.822  21.428  0.00  0.00    +0.000 NA
ATOM     30  C   UNL     1       2.217   3.513  21.702  0.00  0.00    +0.000 A 
ATOM     31  C   UNL     1       2.889   4.291  20.773  0.00  0.00    +0.000 A 
ENDBRANCH   5  26
TORSDOF 4
ENDMDL
MODEL 2
REMARK VINA RESULT:      -8.9      3.304      7.967
REMARK  Name = 
REMARK  5 active torsions:
REMARK  status: ('A' for Active; 'I' for Inactive)
REMARK    1  A    between atoms: C_1  and  O_2
REMARK    2  A    between atoms: O_2  and  C_3
REMARK    3  A    between atoms: C_8  and  C_9
REMARK    4  A    between atoms: C_11  and  C_12
REMARK    5  A    between atoms: C_20  and  C_21
REMARK                            x       y       z     vdW  Elec       q    Type
REMARK                         _______ _______ _______ _____ _____    ______ ____
ROOT
ATOM      1  C   UNL     1       2.275   7.096  19.471  0.00  0.00    +0.000 A 
ATOM      2  N   UNL     1       1.952   8.408  19.762  0.00  0.00    +0.000 NA
ATOM      3  C   UNL     1       1.097   8.369  20.765  0.00  0.00    +0.000 A 
ATOM      4  N   UNL     1       0.901   7.065  21.147  0.00  0.00    +0.000 N 
ATOM      5  C   UNL     1       1.652   6.223  20.356  0.00  0.00    +0.000 A 
ATOM      6  H   UNL     1       0.302   6.782  21.909  0.00  0.00    +0.000 HD
ENDROOT
BRANCH   1  12
ATOM      7  C   UNL     1       6.081   4.357  14.958  0.00  0.00    +0.000 A 
ATOM      8  C   UNL     1       5.591   3.373  15.815  0.00  0.00    +0.000 A 
ATOM      9  C   UNL     1       4.733   3.717  16.864  0.00  0.00    +0.000 A 
ATOM     10  C   UNL     1       4.357   5.051  17.082  0.00  0.00    +0.000 A 
ATOM     11  C   UNL     1       3.512   5.415  18.148  0.00  0.00    +0.000 A 
ATOM     12  C   UNL     1       3.158   6.754  18.365  0.00  0.00    +0.000 A 
ATOM     13  C   UNL     1       3.683   7.735  17.516  0.00  0.00    +0.000 A 
ATOM     14  C   UNL     1       4.493   7.384  16.434  0.00  0.00    +0.000 A 
ATOM     15  C   UNL     1       4.845   6.047  16.212  0.00  0.00    +0.000 A 
ATOM     16  C   UNL     1       5.692   5.685  15.152  0.00  0.00    +0.000 A 
BRANCH   7  18
ATOM     17  C   UNL     1       6.378   3.638  12.715  0.00  0.00    +0.000 C 
ATOM     18  O   UNL     1       6.940   4.160  13.912  0.00  0.00    +0.000 OA
ENDBRANCH   7  18
ENDBRANCH   1  12
BRANCH   3  19
ATOM     19  C   UNL     1       0.428   9.509  21.402  0.00  0.00    +0.000 A 
ATOM     20  C   UNL     1      -0.321   9.322  22.573  0.00  0.00    +0.000 A 
ATOM     21  C   UNL     1      -0.954  10.400  23.202  0.00  0.00    +0.000 A 
ATOM     22  C   UNL     1      -0.850  11.684  22.667  0.00  0.00    +0.000 A 
ATOM     23  C   UNL     1      -0.112  11.890  21.505  0.00  0.00    +0.000 A 
ATOM     24  C   UNL     1       0.516  10.810  20.886  0.00  0.00    +0.000 A 
ATOM     25  F   UNL     1       1.221  11.051  19.767  0.00  0.00    +0.000 F 
ENDBRANCH   3  19
BRANCH   5  26
ATOM     26  C   UNL     1       1.677   4.772  20.559  0.00  0.00    +0.000 A 
ATOM     27  C   UNL     1       0.891   3.923  19.774  0.00  0.00    +0.000 A 
ATOM     28  C   UNL     1       0.982   2.554  19.977  0.00  0.00    +0.000 A 
ATOM     29  N   UNL     1       1.796   1.981  20.886  0.00  0.00    +0.000 NA
ATOM     30  C   UNL     1       2.538   2.815  21.641  0.00  0.00    +0.000 A 
ATOM     31  C   UNL     1       2.498   4.196  21.531  0.00  0.00    +0.000 A 
ENDBRANCH   5  26
TORSDOF 4
ENDMDL
MODEL 3
REMARK VINA RESULT:      -8.8      0.742      1.745
REMARK  Name = 
REMARK  5 active torsions:
REMARK  status: ('A' for Active; 'I' for Inactive)
REMARK    1  A    between atoms: C_1  and  O_2
REMARK    2  A    between atoms: O_2  and  C_3
REMARK    3  A    between atoms: C_8  and  C_9
REMARK    4  A    between atoms: C_11  and  C_12
REMARK    5  A    between atoms: C_20  and  C_21
REMARK                            x       y       z     vdW  Elec       q    Type
REMARK                         _______ _______ _______ _____ _____    ______ ____
ROOT
ATOM      1  C   UNL     1       3.236   6.051  18.161  0.00  0.00    +0.000 A 
ATOM      2  N   UNL     1       3.992   6.300  17.031  0.00  0.00    +0.000 NA
ATOM      3  C   UNL     1       4.550   5.154  16.694  0.00  0.00    +0.000 A 
ATOM      4  N   UNL     1       4.133   4.172  17.558  0.00  0.00    +0.000 N 
ATOM      5  C   UNL     1       3.277   4.702  18.498  0.00  0.00    +0.000 A 
ATOM      6  H   UNL     1       4.411   3.204  17.490  0.00  0.00    +0.000 HD
ENDROOT
BRANCH   1  12
ATOM      7  C   UNL     1       0.076  11.397  20.105  0.00  0.00    +0.000 A 
ATOM      8  C   UNL     1       0.411  11.517  18.758  0.00  0.00    +0.000 A 
ATOM      9  C   UNL     1       1.087  10.482  18.106  0.00  0.00    +0.000 A 
ATOM     10  C   UNL     1       1.449   9.311  18.790  0.00  0.00    +0.000 A 
ATOM     11  C   UNL     1       2.150   8.270  18.152  0.00  0.00    +0.000 A 
ATOM     12  C   UNL     1       2.520   7.114  18.852  0.00  0.00    +0.000 A 
ATOM     13  C   UNL     1       2.204   7.020  20.212  0.00  0.00    +0.000 A 
ATOM     14  C   UNL     1       1.479   8.029  20.848  0.00  0.00    +0.000 A 
ATOM     15  C   UNL     1       1.104   9.184  20.151  0.00  0.00    +0.000 A 
ATOM     16  C   UNL     1       0.409  10.225  20.789  0.00  0.00    +0.000 A 
BRANCH   7  18
ATOM     17  C   UNL     1      -1.089  11.905  22.111  0.00  0.00    +0.000 C 
ATOM     18  O   UNL     1      -0.563  12.340  20.864  0.00  0.00    +0.000 OA
ENDBRANCH   7  18
ENDBRANCH   1  12
BRANCH   3  19
ATOM     19  C   UNL     1       5.481   4.916  15.585  0.00  0.00    +0.000 A 
ATOM     20  C   UNL     1       5.082   4.145  14.483  0.00  0.00    +0.000 A 
ATOM     21  C   UNL     1       5.952   3.919  13.411  0.00  0.00    +0.000 A 
ATOM     22  C   UNL     1       7.238   4.459  13.425  0.00  0.00    +0.000 A 
ATOM     23  C   UNL     1       7.654   5.225  14.510  0.00  0.00    +0.000 A 
ATOM     24  C   UNL     1       6.780   5.446  15.573  0.00  0.00    +0.000 A 
ATOM     25  F   UNL     1       7.218   6.194  16.601  0.00  0.00    +0.000 F 
ENDBRANCH   3  19
BRANCH   5  26
ATOM     26  C   UNL     1       2.638   3.879  19.528  0.00  0.00    +0.000 A 
ATOM     27  C   UNL     1       3.390   3.297  20.552  0.00  0.00    +0.000 A 
ATOM     28  C   UNL     1       2.732   2.562  21.527  0.00  0.00    +0.000 A 
ATOM     29  N   UNL     1       1.397   2.378  21.558  0.00  0.00    +0.000 NA
ATOM     30  C   UNL     1       0.689   2.938  20.557  0.00  0.00    +0.000 A 
ATOM     31  C   UNL     1       1.257   3.667  19.525  0.00  0.00    +0.000 A 
ENDBRANCH   5  26
TORSDOF 4
ENDMDL
MODEL 4
REMARK VINA RESULT:      -8.5      3.490      8.045
REMARK  Name = 
REMARK  5 active torsions:
REMARK  status: ('A' for Active; 'I' for Inactive)
REMARK    1  A    between atoms: C_1  and  O_2
REMARK    2  A    between atoms: O_2  and  C_3
REMARK    3  A    between atoms: C_8  and  C_9
REMARK    4  A    between atoms: C_11  and  C_12
REMARK    5  A    between atoms: C_20  and  C_21
REMARK                            x       y       z     vdW  Elec       q    Type
REMARK                         _______ _______ _______ _____ _____    ______ ____
ROOT
ATOM      1  C   UNL     1       2.294   7.220  19.426  0.00  0.00    +0.000 A 
ATOM      2  N   UNL     1       2.001   8.548  19.674  0.00  0.00    +0.000 NA
ATOM      3  C   UNL     1       1.148   8.561  20.680  0.00  0.00    +0.000 A 
ATOM      4  N   UNL     1       0.925   7.275  21.106  0.00  0.00    +0.000 N 
ATOM      5  C   UNL     1       1.655   6.391  20.342  0.00  0.00    +0.000 A 
ATOM      6  H   UNL     1       0.323   7.032  21.878  0.00  0.00    +0.000 HD
ENDROOT
BRANCH   1  12
ATOM      7  C   UNL     1       6.002   4.245  14.981  0.00  0.00    +0.000 A 
ATOM      8  C   UNL     1       5.471   3.298  15.855  0.00  0.00    +0.000 A 
ATOM      9  C   UNL     1       4.624   3.696  16.894  0.00  0.00    +0.000 A 
ATOM     10  C   UNL     1       4.300   5.048  17.086  0.00  0.00    +0.000 A 
ATOM     11  C   UNL     1       3.468   5.466  18.141  0.00  0.00    +0.000 A 
ATOM     12  C   UNL     1       3.166   6.821  18.331  0.00  0.00    +0.000 A 
ATOM     13  C   UNL     1       3.731   7.764  17.465  0.00  0.00    +0.000 A 
ATOM     14  C   UNL     1       4.530   7.361  16.393  0.00  0.00    +0.000 A 
ATOM     15  C   UNL     1       4.830   6.007  16.197  0.00  0.00    +0.000 A 
ATOM     16  C   UNL     1       5.665   5.591  15.148  0.00  0.00    +0.000 A 
BRANCH   7  18
ATOM     17  C   UNL     1       6.263   3.593  12.713  0.00  0.00    +0.000 C 
ATOM     18  O   UNL     1       6.855   3.994  13.942  0.00  0.00    +0.000 OA
ENDBRANCH   7  18
ENDBRANCH   1  12
BRANCH   3  19
ATOM     19  C   UNL     1       0.506   9.736  21.280  0.00  0.00    +0.000 A 
ATOM     20  C   UNL     1       0.759  11.017  20.766  0.00  0.00    +0.000 A 
ATOM     21  C   UNL     1       0.145  12.147  21.318  0.00  0.00    +0.000 A 
ATOM     22  C   UNL     1      -0.730  12.015  22.395  0.00  0.00    +0.000 A 
ATOM     23  C   UNL     1      -0.992  10.753  22.921  0.00  0.00    +0.000 A 
ATOM     24  C   UNL     1      -0.377   9.632  22.364  0.00  0.00    +0.000 A 
ATOM     25  F   UNL     1      -0.658   8.431  22.899  0.00  0.00    +0.000 F 
ENDBRANCH   3  19
BRANCH   5  26
ATOM     26  C   UNL     1       1.649   4.948  20.593  0.00  0.00    +0.000 A 
ATOM     27  C   UNL     1       0.801   4.097  19.879  0.00  0.00    +0.000 A 
ATOM     28  C   UNL     1       0.864   2.733  20.124  0.00  0.00    +0.000 A 
ATOM     29  N   UNL     1       1.706   2.167  21.012  0.00  0.00    +0.000 NA
ATOM     30  C   UNL     1       2.509   3.003  21.699  0.00  0.00    +0.000 A 
ATOM     31  C   UNL     1       2.502   4.380  21.543  0.00  0.00    +0.000 A 
ENDBRANCH   5  26
TORSDOF 4
ENDMDL
MODEL 5
REMARK VINA RESULT:      -8.5      4.656      8.380
REMARK  Name = 
REMARK  5 active torsions:
REMARK  status: ('A' for Active; 'I' for Inactive)
REMARK    1  A    between atoms: C_1  and  O_2
REMARK    2  A    between atoms: O_2  and  C_3
REMARK    3  A    between atoms: C_8  and  C_9
REMARK    4  A    between atoms: C_11  and  C_12
REMARK    5  A    between atoms: C_20  and  C_21
REMARK                            x       y       z     vdW  Elec       q    Type
REMARK                         _______ _______ _______ _____ _____    ______ ____
ROOT
ATOM      1  C   UNL     1       0.940  11.237  19.053  0.00  0.00    +0.000 A 
ATOM      2  N   UNL     1       1.919  12.207  19.158  0.00  0.00    +0.000 NA
ATOM      3  C   UNL     1       1.411  13.309  18.644  0.00  0.00    +0.000 A 
ATOM      4  N   UNL     1       0.115  13.075  18.253  0.00  0.00    +0.000 N 
ATOM      5  C   UNL     1      -0.228  11.767  18.517  0.00  0.00    +0.000 A 
ATOM      6  H   UNL     1      -0.489  13.775  17.848  0.00  0.00    +0.000 HD
ENDROOT
BRANCH   1  12
ATOM      7  C   UNL     1       2.537   4.967  19.753  0.00  0.00    +0.000 A 
ATOM      8  C   UNL     1       2.933   5.412  18.492  0.00  0.00    +0.000 A 
ATOM      9  C   UNL     1       2.709   6.738  18.112  0.00  0.00    +0.000 A 
ATOM     10  C   UNL     1       2.077   7.642  18.979  0.00  0.00    +0.000 A 
ATOM     11  C   UNL     1       1.825   8.974  18.601  0.00  0.00    +0.000 A 
ATOM     12  C   UNL     1       1.177   9.862  19.470  0.00  0.00    +0.000 A 
ATOM     13  C   UNL     1       0.758   9.394  20.721  0.00  0.00    +0.000 A 
ATOM     14  C   UNL     1       1.033   8.086  21.122  0.00  0.00    +0.000 A 
ATOM     15  C   UNL     1       1.683   7.196  20.258  0.00  0.00    +0.000 A 
ATOM     16  C   UNL     1       1.930   5.866  20.633  0.00  0.00    +0.000 A 
BRANCH   7  18
ATOM     17  C   UNL     1       2.058   3.420  21.489  0.00  0.00    +0.000 C 
ATOM     18  O   UNL     1       2.676   3.696  20.239  0.00  0.00    +0.000 OA
ENDBRANCH   7  18
ENDBRANCH   1  12
BRANCH   3  19
ATOM     19  C   UNL     1       2.083  14.603  18.486  0.00  0.00    +0.000 A 
ATOM     20  C   UNL     1       1.381  15.796  18.718  0.00  0.00    +0.000 A 
ATOM     21  C   UNL     1       2.010  17.038  18.585  0.00  0.00    +0.000 A 
ATOM     22  C   UNL     1       3.352  17.109  18.214  0.00  0.00    +0.000 A 
ATOM     23  C   UNL     1       4.066  15.938  17.977  0.00  0.00    +0.000 A 
ATOM     24  C   UNL     1       3.431  14.704  18.113  0.00  0.00    +0.000 A 
ATOM     25  F   UNL     1       4.156  13.596  17.878  0.00  0.00    +0.000 F 
ENDBRANCH   3  19
BRANCH   5  26
ATOM     26  C   UNL     1      -1.567  11.238  18.243  0.00  0.00    +0.000 A 
ATOM     27  C   UNL     1      -2.707  11.870  18.750  0.00  0.00    +0.000 A 
ATOM     28  C   UNL     1      -3.953  11.355  18.427  0.00  0.00    +0.000 A 
ATOM     29  N   UNL     1      -4.141  10.277  17.640  0.00  0.00    +0.000 NA
ATOM     30  C   UNL     1      -3.031   9.675  17.168  0.00  0.00    +0.000 A 
ATOM     31  C   UNL     1      -1.743  10.098  17.456  0.00  0.00    +0.000 A 
ENDBRANCH   5  26
TORSDOF 4
ENDMDL
MODEL 6
REMARK VINA RESULT:      -8.5      4.882      8.418
REMARK  Name = 
REMARK  5 active torsions:
REMARK  status: ('A' for Active; 'I' for Inactive)
REMARK    1  A    between atoms: C_1  and  O_2
REMARK    2  A    between atoms: O_2  and  C_3
REMARK    3  A    between atoms: C_8  and  C_9
REMARK    4  A    between atoms: C_11  and  C_12
REMARK    5  A    between atoms: C_20  and  C_21
REMARK                            x       y       z     vdW  Elec       q    Type
REMARK                         _______ _______ _______ _____ _____    ______ ____
ROOT
ATOM      1  C   UNL     1       1.046  11.125  19.022  0.00  0.00    +0.000 A 
ATOM      2  N   UNL     1       2.055  12.064  19.129  0.00  0.00    +0.000 NA
ATOM      3  C   UNL     1       1.584  13.180  18.608  0.00  0.00    +0.000 A 
ATOM      4  N   UNL     1       0.284  12.985  18.209  0.00  0.00    +0.000 N 
ATOM      5  C   UNL     1      -0.101  11.688  18.475  0.00  0.00    +0.000 A 
ATOM      6  H   UNL     1      -0.295  13.701  17.797  0.00  0.00    +0.000 HD
ENDROOT
BRANCH   1  12
ATOM      7  C   UNL     1       2.452   4.814  19.762  0.00  0.00    +0.000 A 
ATOM      8  C   UNL     1       2.878   5.243  18.506  0.00  0.00    +0.000 A 
ATOM      9  C   UNL     1       2.698   6.574  18.118  0.00  0.00    +0.000 A 
ATOM     10  C   UNL     1       2.081   7.499  18.974  0.00  0.00    +0.000 A 
ATOM     11  C   UNL     1       1.872   8.836  18.589  0.00  0.00    +0.000 A 
ATOM     12  C   UNL     1       1.238   9.745  19.447  0.00  0.00    +0.000 A 
ATOM     13  C   UNL     1       0.788   9.293  20.692  0.00  0.00    +0.000 A 
ATOM     14  C   UNL     1       1.020   7.979  21.101  0.00  0.00    +0.000 A 
ATOM     15  C   UNL     1       1.656   7.069  20.248  0.00  0.00    +0.000 A 
ATOM     16  C   UNL     1       1.859   5.733  20.631  0.00  0.00    +0.000 A 
BRANCH   7  18
ATOM     17  C   UNL     1       1.815   3.258  21.439  0.00  0.00    +0.000 C 
ATOM     18  O   UNL     1       2.548   3.541  20.253  0.00  0.00    +0.000 OA
ENDBRANCH   7  18
ENDBRANCH   1  12
BRANCH   3  19
ATOM     19  C   UNL     1       2.297  14.452  18.449  0.00  0.00    +0.000 A 
ATOM     20  C   UNL     1       3.647  14.461  18.068  0.00  0.00    +0.000 A 
ATOM     21  C   UNL     1       4.339  15.665  17.899  0.00  0.00    +0.000 A 
ATOM     22  C   UNL     1       3.691  16.882  18.111  0.00  0.00    +0.000 A 
ATOM     23  C   UNL     1       2.353  16.895  18.491  0.00  0.00    +0.000 A 
ATOM     24  C   UNL     1       1.671  15.690  18.656  0.00  0.00    +0.000 A 
ATOM     25  F   UNL     1       0.378  15.745  19.022  0.00  0.00    +0.000 F 
ENDBRANCH   3  19
BRANCH   5  26
ATOM     26  C   UNL     1      -1.454  11.201  18.195  0.00  0.00    +0.000 A 
ATOM     27  C   UNL     1      -1.659  10.057  17.418  0.00  0.00    +0.000 A 
ATOM     28  C   UNL     1      -2.957   9.612  17.217  0.00  0.00    +0.000 A 
ATOM     29  N   UNL     1      -4.047  10.212  17.736  0.00  0.00    +0.000 NA
ATOM     30  C   UNL     1      -3.831  11.319  18.474  0.00  0.00    +0.000 A 
ATOM     31  C   UNL     1      -2.575  11.855  18.709  0.00  0.00    +0.000 A 
ENDBRANCH   5  26
TORSDOF 4
ENDMDL
MODEL 7
REMARK VINA RESULT:      -8.3      0.854      1.494
REMARK  Name = 
REMARK  5 active torsions:
REMARK  status: ('A' for Active; 'I' for Inactive)
REMARK    1  A    between atoms: C_1  and  O_2
REMARK    2  A    between atoms: O_2  and  C_3
REMARK    3  A    between atoms: C_8  and  C_9
REMARK    4  A    between atoms: C_11  and  C_12
REMARK    5  A    between atoms: C_20  and  C_21
REMARK                            x       y       z     vdW  Elec       q    Type
REMARK                         _______ _______ _______ _____ _____    ______ ____
ROOT
ATOM      1  C   UNL     1       3.193   6.448  17.967  0.00  0.00    +0.000 A 
ATOM      2  N   UNL     1       4.039   6.656  16.893  0.00  0.00    +0.000 NA
ATOM      3  C   UNL     1       4.627   5.501  16.650  0.00  0.00    +0.000 A 
ATOM      4  N   UNL     1       4.143   4.552  17.517  0.00  0.00    +0.000 N 
ATOM      5  C   UNL     1       3.210   5.115  18.361  0.00  0.00    +0.000 A 
ATOM      6  H   UNL     1       4.428   3.584  17.513  0.00  0.00    +0.000 HD
ENDROOT
BRANCH   1  12
ATOM      7  C   UNL     1      -0.131  10.635  21.678  0.00  0.00    +0.000 A 
ATOM      8  C   UNL     1       0.303   9.563  22.457  0.00  0.00    +0.000 A 
ATOM      9  C   UNL     1       1.056   8.535  21.882  0.00  0.00    +0.000 A 
ATOM     10  C   UNL     1       1.381   8.553  20.517  0.00  0.00    +0.000 A 
ATOM     11  C   UNL     1       2.118   7.513  19.920  0.00  0.00    +0.000 A 
ATOM     12  C   UNL     1       2.420   7.535  18.552  0.00  0.00    +0.000 A 
ATOM     13  C   UNL     1       1.952   8.601  17.776  0.00  0.00    +0.000 A 
ATOM     14  C   UNL     1       1.249   9.656  18.361  0.00  0.00    +0.000 A 
ATOM     15  C   UNL     1       0.949   9.640  19.729  0.00  0.00    +0.000 A 
ATOM     16  C   UNL     1       0.209  10.674  20.324  0.00  0.00    +0.000 A 
BRANCH   7  18
ATOM     17  C   UNL     1      -1.792  11.431  23.176  0.00  0.00    +0.000 C 
ATOM     18  O   UNL     1      -0.888  11.689  22.109  0.00  0.00    +0.000 OA
ENDBRANCH   7  18
ENDBRANCH   1  12
BRANCH   3  19
ATOM     19  C   UNL     1       5.646   5.223  15.633  0.00  0.00    +0.000 A 
ATOM     20  C   UNL     1       6.924   5.791  15.741  0.00  0.00    +0.000 A 
ATOM     21  C   UNL     1       7.912   5.527  14.786  0.00  0.00    +0.000 A 
ATOM     22  C   UNL     1       7.637   4.690  13.705  0.00  0.00    +0.000 A 
ATOM     23  C   UNL     1       6.375   4.118  13.579  0.00  0.00    +0.000 A 
ATOM     24  C   UNL     1       5.396   4.386  14.535  0.00  0.00    +0.000 A 
ATOM     25  F   UNL     1       4.191   3.812  14.378  0.00  0.00    +0.000 F 
ENDBRANCH   3  19
BRANCH   5  26
ATOM     26  C   UNL     1       2.491   4.331  19.369  0.00  0.00    +0.000 A 
ATOM     27  C   UNL     1       2.924   4.299  20.698  0.00  0.00    +0.000 A 
ATOM     28  C   UNL     1       2.184   3.577  21.622  0.00  0.00    +0.000 A 
ATOM     29  N   UNL     1       1.056   2.902  21.321  0.00  0.00    +0.000 NA
ATOM     30  C   UNL     1       0.660   2.936  20.033  0.00  0.00    +0.000 A 
ATOM     31  C   UNL     1       1.345   3.607  19.033  0.00  0.00    +0.000 A 
ENDBRANCH   5  26
TORSDOF 4
ENDMDL
MODEL 8
REMARK VINA RESULT:      -8.2      4.781      9.452
REMARK  Name = 
REMARK  5 active torsions:
REMARK  status: ('A' for Active; 'I' for Inactive)
REMARK    1  A    between atoms: C_1  and  O_2
REMARK    2  A    between atoms: O_2  and  C_3
REMARK    3  A    between atoms: C_8  and  C_9
REMARK    4  A    between atoms: C_11  and  C_12
REMARK    5  A    between atoms: C_20  and  C_21
REMARK                            x       y       z     vdW  Elec       q    Type
REMARK                         _______ _______ _______ _____ _____    ______ ____
ROOT
ATOM      1  C   UNL     1      -0.159  10.488  19.014  0.00  0.00    +0.000 A 
ATOM      2  N   UNL     1      -1.500  10.293  18.741  0.00  0.00    +0.000 NA
ATOM      3  C   UNL     1      -2.052  11.490  18.702  0.00  0.00    +0.000 A 
ATOM      4  N   UNL     1      -1.086  12.445  18.902  0.00  0.00    +0.000 N 
ATOM      5  C   UNL     1       0.140  11.844  19.086  0.00  0.00    +0.000 A 
ATOM      6  H   UNL     1      -1.263  13.438  18.897  0.00  0.00    +0.000 HD
ENDROOT
BRANCH   1  12
ATOM      7  C   UNL     1       4.278   5.746  18.590  0.00  0.00    +0.000 A 
ATOM      8  C   UNL     1       4.222   6.443  17.384  0.00  0.00    +0.000 A 
ATOM      9  C   UNL     1       3.347   7.523  17.235  0.00  0.00    +0.000 A 
ATOM     10  C   UNL     1       2.505   7.922  18.284  0.00  0.00    +0.000 A 
ATOM     11  C   UNL     1       1.603   8.993  18.141  0.00  0.00    +0.000 A 
ATOM     12  C   UNL     1       0.755   9.369  19.191  0.00  0.00    +0.000 A 
ATOM     13  C   UNL     1       0.800   8.642  20.386  0.00  0.00    +0.000 A 
ATOM     14  C   UNL     1       1.714   7.600  20.554  0.00  0.00    +0.000 A 
ATOM     15  C   UNL     1       2.566   7.223  19.508  0.00  0.00    +0.000 A 
ATOM     16  C   UNL     1       3.462   6.151  19.649  0.00  0.00    +0.000 A 
BRANCH   7  18
ATOM     17  C   UNL     1       4.404   3.467  19.245  0.00  0.00    +0.000 C 
ATOM     18  O   UNL     1       5.069   4.664  18.859  0.00  0.00    +0.000 OA
ENDBRANCH   7  18
ENDBRANCH   1  12
BRANCH   3  19
ATOM     19  C   UNL     1      -3.469  11.804  18.489  0.00  0.00    +0.000 A 
ATOM     20  C   UNL     1      -4.239  12.334  19.535  0.00  0.00    +0.000 A 
ATOM     21  C   UNL     1      -5.588  12.651  19.346  0.00  0.00    +0.000 A 
ATOM     22  C   UNL     1      -6.191  12.442  18.106  0.00  0.00    +0.000 A 
ATOM     23  C   UNL     1      -5.445  11.915  17.056  0.00  0.00    +0.000 A 
ATOM     24  C   UNL     1      -4.101  11.602  17.253  0.00  0.00    +0.000 A 
ATOM     25  F   UNL     1      -3.415  11.098  16.213  0.00  0.00    +0.000 F 
ENDBRANCH   3  19
BRANCH   5  26
ATOM     26  C   UNL     1       1.370  12.617  19.282  0.00  0.00    +0.000 A 
ATOM     27  C   UNL     1       2.151  13.011  18.192  0.00  0.00    +0.000 A 
ATOM     28  C   UNL     1       3.283  13.778  18.427  0.00  0.00    +0.000 A 
ATOM     29  N   UNL     1       3.678  14.181  19.652  0.00  0.00    +0.000 NA
ATOM     30  C   UNL     1       2.918  13.782  20.691  0.00  0.00    +0.000 A 
ATOM     31  C   UNL     1       1.786  12.994  20.560  0.00  0.00    +0.000 A 
ENDBRANCH   5  26
TORSDOF 4
ENDMDL
MODEL 9
REMARK VINA RESULT:      -8.1      4.956      9.133
REMARK  Name = 
REMARK  5 active torsions:
REMARK  status: ('A' for Active; 'I' for Inactive)
REMARK    1  A    between atoms: C_1  and  O_2
REMARK    2  A    between atoms: O_2  and  C_3
REMARK    3  A    between atoms: C_8  and  C_9
REMARK    4  A    between atoms: C_11  and  C_12
REMARK    5  A    between atoms: C_20  and  C_21
REMARK                            x       y       z     vdW  Elec       q    Type
REMARK                         _______ _______ _______ _____ _____    ______ ____
ROOT
ATOM      1  C   UNL     1       0.391  11.762  19.147  0.00  0.00    +0.000 A 
ATOM      2  N   UNL     1       1.137  12.873  19.497  0.00  0.00    +0.000 NA
ATOM      3  C   UNL     1       0.452  13.925  19.094  0.00  0.00    +0.000 A 
ATOM      4  N   UNL     1      -0.733  13.513  18.535  0.00  0.00    +0.000 N 
ATOM      5  C   UNL     1      -0.817  12.137  18.569  0.00  0.00    +0.000 A 
ATOM      6  H   UNL     1      -1.435  14.139  18.171  0.00  0.00    +0.000 HD
ENDROOT
BRANCH   1  12
ATOM      7  C   UNL     1       3.053   5.825  19.032  0.00  0.00    +0.000 A 
ATOM      8  C   UNL     1       3.314   6.477  17.828  0.00  0.00    +0.000 A 
ATOM      9  C   UNL     1       2.853   7.780  17.619  0.00  0.00    +0.000 A 
ATOM     10  C   UNL     1       2.115   8.453  18.605  0.00  0.00    +0.000 A 
ATOM     11  C   UNL     1       1.625   9.757  18.400  0.00  0.00    +0.000 A 
ATOM     12  C   UNL     1       0.875  10.410  19.387  0.00  0.00    +0.000 A 
ATOM     13  C   UNL     1       0.594   9.732  20.578  0.00  0.00    +0.000 A 
ATOM     14  C   UNL     1       1.104   8.453  20.809  0.00  0.00    +0.000 A 
ATOM     15  C   UNL     1       1.857   7.798  19.827  0.00  0.00    +0.000 A 
ATOM     16  C   UNL     1       2.341   6.496  20.030  0.00  0.00    +0.000 A 
BRANCH   7  18
ATOM     17  C   UNL     1       4.800   4.225  19.186  0.00  0.00    +0.000 C 
ATOM     18  O   UNL     1       3.426   4.549  19.354  0.00  0.00    +0.000 OA
ENDBRANCH   7  18
ENDBRANCH   1  12
BRANCH   3  19
ATOM     19  C   UNL     1       0.851  15.333  19.197  0.00  0.00    +0.000 A 
ATOM     20  C   UNL     1       0.103  16.223  19.983  0.00  0.00    +0.000 A 
ATOM     21  C   UNL     1       0.477  17.565  20.103  0.00  0.00    +0.000 A 
ATOM     22  C   UNL     1       1.606  18.042  19.438  0.00  0.00    +0.000 A 
ATOM     23  C   UNL     1       2.361  17.176  18.652  0.00  0.00    +0.000 A 
ATOM     24  C   UNL     1       1.981  15.839  18.538  0.00  0.00    +0.000 A 
ATOM     25  F   UNL     1       2.738  15.034  17.772  0.00  0.00    +0.000 F 
ENDBRANCH   3  19
BRANCH   5  26
ATOM     26  C   UNL     1      -1.992  11.412  18.078  0.00  0.00    +0.000 A 
ATOM     27  C   UNL     1      -3.273  11.721  18.544  0.00  0.00    +0.000 A 
ATOM     28  C   UNL     1      -4.357  11.035  18.017  0.00  0.00    +0.000 A 
ATOM     29  N   UNL     1      -4.255  10.084  17.066  0.00  0.00    +0.000 NA
ATOM     30  C   UNL     1      -3.011   9.792  16.637  0.00  0.00    +0.000 A 
ATOM     31  C   UNL     1      -1.866  10.404  17.121  0.00  0.00    +0.000 A 
ENDBRANCH   5  26
TORSDOF 4
ENDMDL
