MODEL 1
REMARK VINA RESULT:      -6.6      0.000      0.000
REMARK  Name = 
REMARK  4 active torsions:
REMARK  status: ('A' for Active; 'I' for Inactive)
REMARK    1  A    between atoms: C_1  and  C_2
REMARK    2  A    between atoms: C_2  and  C_3
REMARK    3  A    between atoms: C_2  and  C_4
REMARK    4  A    between atoms: C_2  and  C_12
REMARK                            x       y       z     vdW  Elec       q    Type
REMARK                         _______ _______ _______ _____ _____    ______ ____
ROOT
ATOM      1  C   UNL     1       6.476   5.463  18.990  0.00  0.00    +0.000 C 
ATOM      2  C   UNL     1       5.151   5.065  18.293  0.00  0.00    +0.000 C 
ATOM      3  C   UNL     1       5.506   4.905  16.782  0.00  0.00    +0.000 C 
ENDROOT
BRANCH   2   4
ATOM      4  C   UNL     1       4.684   3.648  18.769  0.00  0.00    +0.000 C 
ATOM      5  O   UNL     1       5.356   3.045  19.624  0.00  0.00    +0.000 OA
ATOM      6  N   UNL     1       3.526   3.049  18.305  0.00  0.00    +0.000 N 
ATOM      7  C   UNL     1       2.636   3.469  17.215  0.00  0.00    +0.000 C 
ATOM      8  C   UNL     1       1.217   3.684  17.755  0.00  0.00    +0.000 C 
ATOM      9  O   UNL     1       0.729   2.504  18.415  0.00  0.00    +0.000 OA
ATOM     10  C   UNL     1       1.596   2.120  19.497  0.00  0.00    +0.000 C 
ATOM     11  C   UNL     1       3.018   1.852  18.993  0.00  0.00    +0.000 C 
ENDBRANCH   2   4
BRANCH   2  12
ATOM     12  C   UNL     1       4.108   6.196  18.427  0.00  0.00    +0.000 A 
ATOM     13  C   UNL     1       3.261   6.235  19.558  0.00  0.00    +0.000 A 
ATOM     14  C   UNL     1       2.248   7.188  19.688  0.00  0.00    +0.000 A 
ATOM     15  C   UNL     1       2.045   8.122  18.682  0.00  0.00    +0.000 A 
ATOM     16  C   UNL     1       2.887   8.133  17.575  0.00  0.00    +0.000 A 
ATOM     17  C   UNL     1       3.925   7.198  17.463  0.00  0.00    +0.000 A 
ENDBRANCH   2  12
TORSDOF 2
ENDMDL
MODEL 2
REMARK VINA RESULT:      -6.6      2.406      4.742
REMARK  Name = 
REMARK  4 active torsions:
REMARK  status: ('A' for Active; 'I' for Inactive)
REMARK    1  A    between atoms: C_1  and  C_2
REMARK    2  A    between atoms: C_2  and  C_3
REMARK    3  A    between atoms: C_2  and  C_4
REMARK    4  A    between atoms: C_2  and  C_12
REMARK                            x       y       z     vdW  Elec       q    Type
REMARK                         _______ _______ _______ _____ _____    ______ ____
ROOT
ATOM      1  C   UNL     1       5.196   5.420  19.347  0.00  0.00    +0.000 C 
ATOM      2  C   UNL     1       3.975   4.873  18.566  0.00  0.00    +0.000 C 
ATOM      3  C   UNL     1       3.216   6.131  18.042  0.00  0.00    +0.000 C 
ENDROOT
BRANCH   2   4
ATOM      4  C   UNL     1       4.443   4.098  17.288  0.00  0.00    +0.000 C 
ATOM      5  O   UNL     1       3.633   3.368  16.691  0.00  0.00    +0.000 OA
ATOM      6  N   UNL     1       5.720   4.222  16.767  0.00  0.00    +0.000 N 
ATOM      7  C   UNL     1       6.894   4.895  17.336  0.00  0.00    +0.000 C 
ATOM      8  C   UNL     1       7.387   5.984  16.376  0.00  0.00    +0.000 C 
ATOM      9  O   UNL     1       7.664   5.441  15.074  0.00  0.00    +0.000 OA
ATOM     10  C   UNL     1       6.497   4.809  14.517  0.00  0.00    +0.000 C 
ATOM     11  C   UNL     1       5.997   3.682  15.427  0.00  0.00    +0.000 C 
ENDBRANCH   2   4
BRANCH   2  12
ATOM     12  C   UNL     1       3.031   4.098  19.512  0.00  0.00    +0.000 A 
ATOM     13  C   UNL     1       1.650   4.395  19.519  0.00  0.00    +0.000 A 
ATOM     14  C   UNL     1       0.768   3.781  20.412  0.00  0.00    +0.000 A 
ATOM     15  C   UNL     1       1.247   2.860  21.332  0.00  0.00    +0.000 A 
ATOM     16  C   UNL     1       2.596   2.518  21.324  0.00  0.00    +0.000 A 
ATOM     17  C   UNL     1       3.472   3.110  20.405  0.00  0.00    +0.000 A 
ENDBRANCH   2  12
TORSDOF 2
ENDMDL
MODEL 3
REMARK VINA RESULT:      -6.5      0.491      1.261
REMARK  Name = 
REMARK  4 active torsions:
REMARK  status: ('A' for Active; 'I' for Inactive)
REMARK    1  A    between atoms: C_1  and  C_2
REMARK    2  A    between atoms: C_2  and  C_3
REMARK    3  A    between atoms: C_2  and  C_4
REMARK    4  A    between atoms: C_2  and  C_12
REMARK                            x       y       z     vdW  Elec       q    Type
REMARK                         _______ _______ _______ _____ _____    ______ ____
ROOT
ATOM      1  C   UNL     1       6.255   5.993  18.380  0.00  0.00    +0.000 C 
ATOM      2  C   UNL     1       4.867   5.425  17.992  0.00  0.00    +0.000 C 
ATOM      3  C   UNL     1       4.906   5.246  16.443  0.00  0.00    +0.000 C 
ENDROOT
BRANCH   2   4
ATOM      4  C   UNL     1       4.682   3.984  18.578  0.00  0.00    +0.000 C 
ATOM      5  O   UNL     1       5.545   3.528  19.347  0.00  0.00    +0.000 OA
ATOM      6  N   UNL     1       3.571   3.205  18.305  0.00  0.00    +0.000 N 
ATOM      7  C   UNL     1       2.488   3.438  17.341  0.00  0.00    +0.000 C 
ATOM      8  C   UNL     1       1.140   3.481  18.072  0.00  0.00    +0.000 C 
ATOM      9  O   UNL     1       0.925   2.282  18.835  0.00  0.00    +0.000 OA
ATOM     10  C   UNL     1       1.979   2.082  19.793  0.00  0.00    +0.000 C 
ATOM     11  C   UNL     1       3.342   1.988  19.099  0.00  0.00    +0.000 C 
ENDBRANCH   2   4
BRANCH   2  12
ATOM     12  C   UNL     1       3.753   6.437  18.335  0.00  0.00    +0.000 A 
ATOM     13  C   UNL     1       3.468   7.494  17.441  0.00  0.00    +0.000 A 
ATOM     14  C   UNL     1       2.527   8.482  17.741  0.00  0.00    +0.000 A 
ATOM     15  C   UNL     1       1.853   8.447  18.953  0.00  0.00    +0.000 A 
ATOM     16  C   UNL     1       2.083   7.398  19.838  0.00  0.00    +0.000 A 
ATOM     17  C   UNL     1       3.003   6.389  19.519  0.00  0.00    +0.000 A 
ENDBRANCH   2  12
TORSDOF 2
ENDMDL
MODEL 4
REMARK VINA RESULT:      -6.5      2.414      4.646
REMARK  Name = 
REMARK  4 active torsions:
REMARK  status: ('A' for Active; 'I' for Inactive)
REMARK    1  A    between atoms: C_1  and  C_2
REMARK    2  A    between atoms: C_2  and  C_3
REMARK    3  A    between atoms: C_2  and  C_4
REMARK    4  A    between atoms: C_2  and  C_12
REMARK                            x       y       z     vdW  Elec       q    Type
REMARK                         _______ _______ _______ _____ _____    ______ ____
ROOT
ATOM      1  C   UNL     1       5.335   5.382  19.403  0.00  0.00    +0.000 C 
ATOM      2  C   UNL     1       4.066   4.960  18.622  0.00  0.00    +0.000 C 
ATOM      3  C   UNL     1       3.434   6.289  18.102  0.00  0.00    +0.000 C 
ENDROOT
BRANCH   2   4
ATOM      4  C   UNL     1       4.454   4.148  17.340  0.00  0.00    +0.000 C 
ATOM      5  O   UNL     1       3.601   3.421  16.803  0.00  0.00    +0.000 OA
ATOM      6  N   UNL     1       5.705   4.234  16.754  0.00  0.00    +0.000 N 
ATOM      7  C   UNL     1       6.919   4.896  17.248  0.00  0.00    +0.000 C 
ATOM      8  C   UNL     1       7.383   5.952  16.238  0.00  0.00    +0.000 C 
ATOM      9  O   UNL     1       7.584   5.374  14.937  0.00  0.00    +0.000 OA
ATOM     10  C   UNL     1       6.379   4.753  14.455  0.00  0.00    +0.000 C 
ATOM     11  C   UNL     1       5.904   3.657  15.415  0.00  0.00    +0.000 C 
ENDBRANCH   2   4
BRANCH   2  12
ATOM     12  C   UNL     1       3.051   4.279  19.566  0.00  0.00    +0.000 A 
ATOM     13  C   UNL     1       3.486   3.262  20.445  0.00  0.00    +0.000 A 
ATOM     14  C   UNL     1       2.595   2.560  21.259  0.00  0.00    +0.000 A 
ATOM     15  C   UNL     1       1.238   2.847  21.207  0.00  0.00    +0.000 A 
ATOM     16  C   UNL     1       0.784   3.869  20.380  0.00  0.00    +0.000 A 
ATOM     17  C   UNL     1       1.684   4.595  19.589  0.00  0.00    +0.000 A 
ENDBRANCH   2  12
TORSDOF 2
ENDMDL
MODEL 5
REMARK VINA RESULT:      -6.5      3.235      5.446
REMARK  Name = 
REMARK  4 active torsions:
REMARK  status: ('A' for Active; 'I' for Inactive)
REMARK    1  A    between atoms: C_1  and  C_2
REMARK    2  A    between atoms: C_2  and  C_3
REMARK    3  A    between atoms: C_2  and  C_4
REMARK    4  A    between atoms: C_2  and  C_12
REMARK                            x       y       z     vdW  Elec       q    Type
REMARK                         _______ _______ _______ _____ _____    ______ ____
ROOT
ATOM      1  C   UNL     1       7.278   4.681  16.852  0.00  0.00    +0.000 C 
ATOM      2  C   UNL     1       6.009   4.785  15.970  0.00  0.00    +0.000 C 
ATOM      3  C   UNL     1       5.089   3.608  16.419  0.00  0.00    +0.000 C 
ENDROOT
BRANCH   2   4
ATOM      4  C   UNL     1       5.215   6.094  16.303  0.00  0.00    +0.000 C 
ATOM      5  O   UNL     1       4.982   6.909  15.394  0.00  0.00    +0.000 OA
ATOM      6  N   UNL     1       4.723   6.365  17.568  0.00  0.00    +0.000 N 
ATOM      7  C   UNL     1       4.965   5.656  18.831  0.00  0.00    +0.000 C 
ATOM      8  C   UNL     1       3.635   5.169  19.418  0.00  0.00    +0.000 C 
ATOM      9  O   UNL     1       2.713   6.259  19.588  0.00  0.00    +0.000 OA
ATOM     10  C   UNL     1       2.465   6.927  18.339  0.00  0.00    +0.000 C 
ATOM     11  C   UNL     1       3.766   7.470  17.738  0.00  0.00    +0.000 C 
ENDBRANCH   2   4
BRANCH   2  12
ATOM     12  C   UNL     1       6.366   4.579  14.481  0.00  0.00    +0.000 A 
ATOM     13  C   UNL     1       5.596   3.693  13.694  0.00  0.00    +0.000 A 
ATOM     14  C   UNL     1       5.927   3.409  12.366  0.00  0.00    +0.000 A 
ATOM     15  C   UNL     1       7.047   3.995  11.793  0.00  0.00    +0.000 A 
ATOM     16  C   UNL     1       7.802   4.900  12.531  0.00  0.00    +0.000 A 
ATOM     17  C   UNL     1       7.449   5.210  13.852  0.00  0.00    +0.000 A 
ENDBRANCH   2  12
TORSDOF 2
ENDMDL
MODEL 6
REMARK VINA RESULT:      -6.5      2.290      4.064
REMARK  Name = 
REMARK  4 active torsions:
REMARK  status: ('A' for Active; 'I' for Inactive)
REMARK    1  A    between atoms: C_1  and  C_2
REMARK    2  A    between atoms: C_2  and  C_3
REMARK    3  A    between atoms: C_2  and  C_4
REMARK    4  A    between atoms: C_2  and  C_12
REMARK                            x       y       z     vdW  Elec       q    Type
REMARK                         _______ _______ _______ _____ _____    ______ ____
ROOT
ATOM      1  C   UNL     1       2.769   4.678  17.621  0.00  0.00    +0.000 C 
ATOM      2  C   UNL     1       3.297   5.476  18.840  0.00  0.00    +0.000 C 
ATOM      3  C   UNL     1       2.973   4.597  20.088  0.00  0.00    +0.000 C 
ENDROOT
BRANCH   2   4
ATOM      4  C   UNL     1       4.859   5.581  18.792  0.00  0.00    +0.000 C 
ATOM      5  O   UNL     1       5.517   5.285  19.804  0.00  0.00    +0.000 OA
ATOM      6  N   UNL     1       5.546   5.957  17.651  0.00  0.00    +0.000 N 
ATOM      7  C   UNL     1       5.024   6.482  16.383  0.00  0.00    +0.000 C 
ATOM      8  C   UNL     1       5.444   5.566  15.227  0.00  0.00    +0.000 C 
ATOM      9  O   UNL     1       6.872   5.403  15.187  0.00  0.00    +0.000 OA
ATOM     10  C   UNL     1       7.366   4.862  16.425  0.00  0.00    +0.000 C 
ATOM     11  C   UNL     1       7.005   5.772  17.605  0.00  0.00    +0.000 C 
ENDBRANCH   2   4
BRANCH   2  12
ATOM     12  C   UNL     1       2.539   6.814  18.980  0.00  0.00    +0.000 A 
ATOM     13  C   UNL     1       2.372   7.646  17.850  0.00  0.00    +0.000 A 
ATOM     14  C   UNL     1       1.766   8.901  17.941  0.00  0.00    +0.000 A 
ATOM     15  C   UNL     1       1.320   9.366  19.171  0.00  0.00    +0.000 A 
ATOM     16  C   UNL     1       1.436   8.554  20.295  0.00  0.00    +0.000 A 
ATOM     17  C   UNL     1       2.013   7.281  20.195  0.00  0.00    +0.000 A 
ENDBRANCH   2  12
TORSDOF 2
ENDMDL
MODEL 7
REMARK VINA RESULT:      -6.5      3.231      5.490
REMARK  Name = 
REMARK  4 active torsions:
REMARK  status: ('A' for Active; 'I' for Inactive)
REMARK    1  A    between atoms: C_1  and  C_2
REMARK    2  A    between atoms: C_2  and  C_3
REMARK    3  A    between atoms: C_2  and  C_4
REMARK    4  A    between atoms: C_2  and  C_12
REMARK                            x       y       z     vdW  Elec       q    Type
REMARK                         _______ _______ _______ _____ _____    ______ ____
ROOT
ATOM      1  C   UNL     1       7.293   4.649  16.919  0.00  0.00    +0.000 C 
ATOM      2  C   UNL     1       6.045   4.737  16.005  0.00  0.00    +0.000 C 
ATOM      3  C   UNL     1       5.112   3.571  16.459  0.00  0.00    +0.000 C 
ENDROOT
BRANCH   2   4
ATOM      4  C   UNL     1       5.246   6.053  16.293  0.00  0.00    +0.000 C 
ATOM      5  O   UNL     1       5.019   6.840  15.357  0.00  0.00    +0.000 OA
ATOM      6  N   UNL     1       4.744   6.363  17.545  0.00  0.00    +0.000 N 
ATOM      7  C   UNL     1       4.977   5.693  18.831  0.00  0.00    +0.000 C 
ATOM      8  C   UNL     1       3.643   5.222  19.422  0.00  0.00    +0.000 C 
ATOM      9  O   UNL     1       2.719   6.315  19.552  0.00  0.00    +0.000 OA
ATOM     10  C   UNL     1       2.479   6.944  18.280  0.00  0.00    +0.000 C 
ATOM     11  C   UNL     1       3.784   7.470  17.673  0.00  0.00    +0.000 C 
ENDBRANCH   2   4
BRANCH   2  12
ATOM     12  C   UNL     1       6.435   4.497  14.531  0.00  0.00    +0.000 A 
ATOM     13  C   UNL     1       7.515   5.215  13.968  0.00  0.00    +0.000 A 
ATOM     14  C   UNL     1       7.856   5.095  12.618  0.00  0.00    +0.000 A 
ATOM     15  C   UNL     1       7.117   4.262  11.790  0.00  0.00    +0.000 A 
ATOM     16  C   UNL     1       6.072   3.514  12.324  0.00  0.00    +0.000 A 
ATOM     17  C   UNL     1       5.753   3.609  13.685  0.00  0.00    +0.000 A 
ENDBRANCH   2  12
TORSDOF 2
ENDMDL
MODEL 8
REMARK VINA RESULT:      -6.4      1.936      3.754
REMARK  Name = 
REMARK  4 active torsions:
REMARK  status: ('A' for Active; 'I' for Inactive)
REMARK    1  A    between atoms: C_1  and  C_2
REMARK    2  A    between atoms: C_2  and  C_3
REMARK    3  A    between atoms: C_2  and  C_4
REMARK    4  A    between atoms: C_2  and  C_12
REMARK                            x       y       z     vdW  Elec       q    Type
REMARK                         _______ _______ _______ _____ _____    ______ ____
ROOT
ATOM      1  C   UNL     1       2.538   4.332  17.445  0.00  0.00    +0.000 C 
ATOM      2  C   UNL     1       3.158   4.935  18.731  0.00  0.00    +0.000 C 
ATOM      3  C   UNL     1       2.674   4.019  19.898  0.00  0.00    +0.000 C 
ENDROOT
BRANCH   2   4
ATOM      4  C   UNL     1       4.719   4.796  18.704  0.00  0.00    +0.000 C 
ATOM      5  O   UNL     1       5.278   4.092  19.563  0.00  0.00    +0.000 OA
ATOM      6  N   UNL     1       5.504   5.396  17.736  0.00  0.00    +0.000 N 
ATOM      7  C   UNL     1       5.126   6.373  16.707  0.00  0.00    +0.000 C 
ATOM      8  C   UNL     1       5.447   5.814  15.315  0.00  0.00    +0.000 C 
ATOM      9  O   UNL     1       6.832   5.442  15.213  0.00  0.00    +0.000 OA
ATOM     10  C   UNL     1       7.181   4.465  16.209  0.00  0.00    +0.000 C 
ATOM     11  C   UNL     1       6.917   5.002  17.620  0.00  0.00    +0.000 C 
ENDBRANCH   2   4
BRANCH   2  12
ATOM     12  C   UNL     1       2.616   6.360  18.977  0.00  0.00    +0.000 A 
ATOM     13  C   UNL     1       2.167   6.724  20.266  0.00  0.00    +0.000 A 
ATOM     14  C   UNL     1       1.593   7.972  20.522  0.00  0.00    +0.000 A 
ATOM     15  C   UNL     1       1.441   8.887  19.490  0.00  0.00    +0.000 A 
ATOM     16  C   UNL     1       1.908   8.572  18.218  0.00  0.00    +0.000 A 
ATOM     17  C   UNL     1       2.515   7.333  17.971  0.00  0.00    +0.000 A 
ENDBRANCH   2  12
TORSDOF 2
ENDMDL
MODEL 9
REMARK VINA RESULT:      -6.4      2.490      4.951
REMARK  Name = 
REMARK  4 active torsions:
REMARK  status: ('A' for Active; 'I' for Inactive)
REMARK    1  A    between atoms: C_1  and  C_2
REMARK    2  A    between atoms: C_2  and  C_3
REMARK    3  A    between atoms: C_2  and  C_4
REMARK    4  A    between atoms: C_2  and  C_12
REMARK                            x       y       z     vdW  Elec       q    Type
REMARK                         _______ _______ _______ _____ _____    ______ ____
ROOT
ATOM      1  C   UNL     1       2.609   3.586  16.768  0.00  0.00    +0.000 C 
ATOM      2  C   UNL     1       3.487   3.850  18.017  0.00  0.00    +0.000 C 
ATOM      3  C   UNL     1       4.689   2.862  17.900  0.00  0.00    +0.000 C 
ENDROOT
BRANCH   2   4
ATOM      4  C   UNL     1       4.112   5.285  17.955  0.00  0.00    +0.000 C 
ATOM      5  O   UNL     1       3.836   6.105  18.848  0.00  0.00    +0.000 OA
ATOM      6  N   UNL     1       4.995   5.671  16.962  0.00  0.00    +0.000 N 
ATOM      7  C   UNL     1       5.380   4.963  15.734  0.00  0.00    +0.000 C 
ATOM      8  C   UNL     1       6.895   4.731  15.720  0.00  0.00    +0.000 C 
ATOM      9  O   UNL     1       7.611   5.969  15.866  0.00  0.00    +0.000 OA
ATOM     10  C   UNL     1       7.245   6.638  17.086  0.00  0.00    +0.000 C 
ATOM     11  C   UNL     1       5.740   6.930  17.122  0.00  0.00    +0.000 C 
ENDBRANCH   2   4
BRANCH   2  12
ATOM     12  C   UNL     1       2.707   3.513  19.307  0.00  0.00    +0.000 A 
ATOM     13  C   UNL     1       3.388   2.944  20.407  0.00  0.00    +0.000 A 
ATOM     14  C   UNL     1       2.715   2.546  21.565  0.00  0.00    +0.000 A 
ATOM     15  C   UNL     1       1.338   2.696  21.650  0.00  0.00    +0.000 A 
ATOM     16  C   UNL     1       0.645   3.288  20.598  0.00  0.00    +0.000 A 
ATOM     17  C   UNL     1       1.327   3.718  19.452  0.00  0.00    +0.000 A 
ENDBRANCH   2  12
TORSDOF 2
ENDMDL
