MODEL 1
REMARK VINA RESULT:      -7.5      0.000      0.000
REMARK  Name = 
REMARK  2 active torsions:
REMARK  status: ('A' for Active; 'I' for Inactive)
REMARK    1  A    between atoms: C_1  and  O_2
REMARK    2  A    between atoms: O_2  and  C_3
REMARK                            x       y       z     vdW  Elec       q    Type
REMARK                         _______ _______ _______ _____ _____    ______ ____
ROOT
ATOM      1  C   UNL     1       6.423   5.856  16.664  0.00  0.00    +0.000 A 
ATOM      2  C   UNL     1       6.293   4.607  16.058  0.00  0.00    +0.000 A 
ATOM      3  C   UNL     1       5.245   3.746  16.381  0.00  0.00    +0.000 A 
ATOM      4  C   UNL     1       4.328   4.167  17.347  0.00  0.00    +0.000 A 
ATOM      5  C   UNL     1       4.421   5.421  17.975  0.00  0.00    +0.000 A 
ATOM      6  C   UNL     1       5.485   6.275  17.621  0.00  0.00    +0.000 A 
ATOM      7  C   UNL     1       3.332   5.528  18.903  0.00  0.00    +0.000 A 
ATOM      8  C   UNL     1       2.861   6.481  19.816  0.00  0.00    +0.000 A 
ATOM      9  C   UNL     1       1.717   6.135  20.534  0.00  0.00    +0.000 A 
ATOM     10  N   UNL     1       1.037   4.964  20.423  0.00  0.00    +0.000 NA
ATOM     11  C   UNL     1       1.500   4.037  19.550  0.00  0.00    +0.000 A 
ATOM     12  C   UNL     1       2.625   4.349  18.809  0.00  0.00    +0.000 A 
ATOM     13  N   UNL     1       3.230   3.544  17.880  0.00  0.00    +0.000 N 
ATOM     14  C   UNL     1       2.670   2.232  17.590  0.00  0.00    +0.000 C 
ATOM     15  C   UNL     1       1.840   1.692  18.780  0.00  0.00    +0.000 C 
ATOM     16  C   UNL     1       0.819   2.719  19.323  0.00  0.00    +0.000 C 
ENDROOT
BRANCH   1  18
ATOM     17  C   UNL     1       7.685   7.699  17.433  0.00  0.00    +0.000 C 
ATOM     18  O   UNL     1       7.436   6.743  16.408  0.00  0.00    +0.000 OA
ENDBRANCH   1  18
TORSDOF 1
ENDMDL
MODEL 2
REMARK VINA RESULT:      -7.5      1.467      3.185
REMARK  Name = 
REMARK  2 active torsions:
REMARK  status: ('A' for Active; 'I' for Inactive)
REMARK    1  A    between atoms: C_1  and  O_2
REMARK    2  A    between atoms: O_2  and  C_3
REMARK                            x       y       z     vdW  Elec       q    Type
REMARK                         _______ _______ _______ _____ _____    ______ ____
ROOT
ATOM      1  C   UNL     1       5.787   5.411  15.438  0.00  0.00    +0.000 A 
ATOM      2  C   UNL     1       5.589   6.646  16.055  0.00  0.00    +0.000 A 
ATOM      3  C   UNL     1       4.794   6.770  17.194  0.00  0.00    +0.000 A 
ATOM      4  C   UNL     1       4.184   5.618  17.695  0.00  0.00    +0.000 A 
ATOM      5  C   UNL     1       4.366   4.356  17.105  0.00  0.00    +0.000 A 
ATOM      6  C   UNL     1       5.184   4.257  15.961  0.00  0.00    +0.000 A 
ATOM      7  C   UNL     1       3.606   3.403  17.863  0.00  0.00    +0.000 A 
ATOM      8  C   UNL     1       3.358   2.025  17.813  0.00  0.00    +0.000 A 
ATOM      9  C   UNL     1       2.516   1.514  18.801  0.00  0.00    +0.000 A 
ATOM     10  N   UNL     1       1.926   2.235  19.789  0.00  0.00    +0.000 NA
ATOM     11  C   UNL     1       2.155   3.570  19.829  0.00  0.00    +0.000 A 
ATOM     12  C   UNL     1       2.995   4.113  18.874  0.00  0.00    +0.000 A 
ATOM     13  N   UNL     1       3.346   5.432  18.762  0.00  0.00    +0.000 N 
ATOM     14  C   UNL     1       2.830   6.398  19.721  0.00  0.00    +0.000 C 
ATOM     15  C   UNL     1       1.505   5.916  20.358  0.00  0.00    +0.000 C 
ATOM     16  C   UNL     1       1.579   4.464  20.887  0.00  0.00    +0.000 C 
ENDROOT
BRANCH   1  18
ATOM     17  C   UNL     1       6.312   3.992  13.623  0.00  0.00    +0.000 C 
ATOM     18  O   UNL     1       6.541   5.220  14.308  0.00  0.00    +0.000 OA
ENDBRANCH   1  18
TORSDOF 1
ENDMDL
MODEL 3
REMARK VINA RESULT:      -7.2      2.749      5.403
REMARK  Name = 
REMARK  2 active torsions:
REMARK  status: ('A' for Active; 'I' for Inactive)
REMARK    1  A    between atoms: C_1  and  O_2
REMARK    2  A    between atoms: O_2  and  C_3
REMARK                            x       y       z     vdW  Elec       q    Type
REMARK                         _______ _______ _______ _____ _____    ______ ____
ROOT
ATOM      1  C   UNL     1       1.912   3.709  19.603  0.00  0.00    +0.000 A 
ATOM      2  C   UNL     1       1.543   3.269  18.332  0.00  0.00    +0.000 A 
ATOM      3  C   UNL     1       2.418   3.357  17.249  0.00  0.00    +0.000 A 
ATOM      4  C   UNL     1       3.678   3.917  17.470  0.00  0.00    +0.000 A 
ATOM      5  C   UNL     1       4.088   4.365  18.738  0.00  0.00    +0.000 A 
ATOM      6  C   UNL     1       3.188   4.253  19.817  0.00  0.00    +0.000 A 
ATOM      7  C   UNL     1       5.422   4.878  18.611  0.00  0.00    +0.000 A 
ATOM      8  C   UNL     1       6.377   5.456  19.458  0.00  0.00    +0.000 A 
ATOM      9  C   UNL     1       7.589   5.816  18.867  0.00  0.00    +0.000 A 
ATOM     10  N   UNL     1       7.909   5.655  17.557  0.00  0.00    +0.000 NA
ATOM     11  C   UNL     1       6.981   5.109  16.735  0.00  0.00    +0.000 A 
ATOM     12  C   UNL     1       5.771   4.726  17.286  0.00  0.00    +0.000 A 
ATOM     13  N   UNL     1       4.722   4.155  16.616  0.00  0.00    +0.000 N 
ATOM     14  C   UNL     1       4.840   3.884  15.191  0.00  0.00    +0.000 C 
ATOM     15  C   UNL     1       5.881   4.812  14.519  0.00  0.00    +0.000 C 
ATOM     16  C   UNL     1       7.229   4.860  15.276  0.00  0.00    +0.000 C 
ENDROOT
BRANCH   1  18
ATOM     17  C   UNL     1       1.443   2.689  21.682  0.00  0.00    +0.000 C 
ATOM     18  O   UNL     1       1.099   3.667  20.706  0.00  0.00    +0.000 OA
ENDBRANCH   1  18
TORSDOF 1
ENDMDL
MODEL 4
REMARK VINA RESULT:      -7.0      1.517      1.759
REMARK  Name = 
REMARK  2 active torsions:
REMARK  status: ('A' for Active; 'I' for Inactive)
REMARK    1  A    between atoms: C_1  and  O_2
REMARK    2  A    between atoms: O_2  and  C_3
REMARK                            x       y       z     vdW  Elec       q    Type
REMARK                         _______ _______ _______ _____ _____    ______ ____
ROOT
ATOM      1  C   UNL     1       5.625   5.203  15.661  0.00  0.00    +0.000 A 
ATOM      2  C   UNL     1       5.588   3.824  15.868  0.00  0.00    +0.000 A 
ATOM      3  C   UNL     1       4.814   3.261  16.881  0.00  0.00    +0.000 A 
ATOM      4  C   UNL     1       4.081   4.124  17.701  0.00  0.00    +0.000 A 
ATOM      5  C   UNL     1       4.087   5.517  17.519  0.00  0.00    +0.000 A 
ATOM      6  C   UNL     1       4.871   6.058  16.479  0.00  0.00    +0.000 A 
ATOM      7  C   UNL     1       3.239   6.094  18.522  0.00  0.00    +0.000 A 
ATOM      8  C   UNL     1       2.825   7.381  18.889  0.00  0.00    +0.000 A 
ATOM      9  C   UNL     1       1.957   7.463  19.978  0.00  0.00    +0.000 A 
ATOM     10  N   UNL     1       1.492   6.410  20.700  0.00  0.00    +0.000 NA
ATOM     11  C   UNL     1       1.903   5.166  20.353  0.00  0.00    +0.000 A 
ATOM     12  C   UNL     1       2.754   5.043  19.269  0.00  0.00    +0.000 A 
ATOM     13  N   UNL     1       3.265   3.874  18.772  0.00  0.00    +0.000 N 
ATOM     14  C   UNL     1       2.900   2.608  19.390  0.00  0.00    +0.000 C 
ATOM     15  C   UNL     1       2.476   2.797  20.867  0.00  0.00    +0.000 C 
ATOM     16  C   UNL     1       1.438   3.927  21.059  0.00  0.00    +0.000 C 
ENDROOT
BRANCH   1  18
ATOM     17  C   UNL     1       7.206   4.964  13.921  0.00  0.00    +0.000 C 
ATOM     18  O   UNL     1       6.376   5.824  14.696  0.00  0.00    +0.000 OA
ENDBRANCH   1  18
TORSDOF 1
ENDMDL
MODEL 5
REMARK VINA RESULT:      -6.8      2.647      4.656
REMARK  Name = 
REMARK  2 active torsions:
REMARK  status: ('A' for Active; 'I' for Inactive)
REMARK    1  A    between atoms: C_1  and  O_2
REMARK    2  A    between atoms: O_2  and  C_3
REMARK                            x       y       z     vdW  Elec       q    Type
REMARK                         _______ _______ _______ _____ _____    ______ ____
ROOT
ATOM      1  C   UNL     1       1.824   9.129  18.716  0.00  0.00    +0.000 A 
ATOM      2  C   UNL     1       1.298   8.822  19.971  0.00  0.00    +0.000 A 
ATOM      3  C   UNL     1       1.487   7.569  20.553  0.00  0.00    +0.000 A 
ATOM      4  C   UNL     1       2.211   6.616  19.833  0.00  0.00    +0.000 A 
ATOM      5  C   UNL     1       2.763   6.890  18.570  0.00  0.00    +0.000 A 
ATOM      6  C   UNL     1       2.565   8.169  18.010  0.00  0.00    +0.000 A 
ATOM      7  C   UNL     1       3.433   5.705  18.118  0.00  0.00    +0.000 A 
ATOM      8  C   UNL     1       4.160   5.313  16.986  0.00  0.00    +0.000 A 
ATOM      9  C   UNL     1       4.643   4.005  16.985  0.00  0.00    +0.000 A 
ATOM     10  N   UNL     1       4.466   3.095  17.977  0.00  0.00    +0.000 NA
ATOM     11  C   UNL     1       3.752   3.469  19.066  0.00  0.00    +0.000 A 
ATOM     12  C   UNL     1       3.267   4.764  19.111  0.00  0.00    +0.000 A 
ATOM     13  N   UNL     1       2.535   5.318  20.127  0.00  0.00    +0.000 N 
ATOM     14  C   UNL     1       2.221   4.523  21.305  0.00  0.00    +0.000 C 
ATOM     15  C   UNL     1       2.239   3.008  20.991  0.00  0.00    +0.000 C 
ATOM     16  C   UNL     1       3.512   2.560  20.236  0.00  0.00    +0.000 C 
ENDROOT
BRANCH   1  18
ATOM     17  C   UNL     1       1.088  11.369  18.869  0.00  0.00    +0.000 C 
ATOM     18  O   UNL     1       1.662  10.332  18.079  0.00  0.00    +0.000 OA
ENDBRANCH   1  18
TORSDOF 1
ENDMDL
MODEL 6
REMARK VINA RESULT:      -6.8      1.798      2.501
REMARK  Name = 
REMARK  2 active torsions:
REMARK  status: ('A' for Active; 'I' for Inactive)
REMARK    1  A    between atoms: C_1  and  O_2
REMARK    2  A    between atoms: O_2  and  C_3
REMARK                            x       y       z     vdW  Elec       q    Type
REMARK                         _______ _______ _______ _____ _____    ______ ____
ROOT
ATOM      1  C   UNL     1       5.982   4.986  15.366  0.00  0.00    +0.000 A 
ATOM      2  C   UNL     1       5.884   3.729  15.963  0.00  0.00    +0.000 A 
ATOM      3  C   UNL     1       5.058   3.508  17.064  0.00  0.00    +0.000 A 
ATOM      4  C   UNL     1       4.336   4.592  17.567  0.00  0.00    +0.000 A 
ATOM      5  C   UNL     1       4.402   5.871  16.989  0.00  0.00    +0.000 A 
ATOM      6  C   UNL     1       5.237   6.063  15.869  0.00  0.00    +0.000 A 
ATOM      7  C   UNL     1       3.546   6.739  17.746  0.00  0.00    +0.000 A 
ATOM      8  C   UNL     1       3.171   8.089  17.707  0.00  0.00    +0.000 A 
ATOM      9  C   UNL     1       2.274   8.509  18.689  0.00  0.00    +0.000 A 
ATOM     10  N   UNL     1       1.746   7.726  19.666  0.00  0.00    +0.000 NA
ATOM     11  C   UNL     1       2.119   6.424  19.712  0.00  0.00    +0.000 A 
ATOM     12  C   UNL     1       2.997   5.967  18.746  0.00  0.00    +0.000 A 
ATOM     13  N   UNL     1       3.478   4.689  18.631  0.00  0.00    +0.000 N 
ATOM     14  C   UNL     1       3.045   3.669  19.575  0.00  0.00    +0.000 C 
ATOM     15  C   UNL     1       2.583   4.292  20.914  0.00  0.00    +0.000 C 
ATOM     16  C   UNL     1       1.585   5.459  20.728  0.00  0.00    +0.000 C 
ENDROOT
BRANCH   1  18
ATOM     17  C   UNL     1       6.743   4.335  13.226  0.00  0.00    +0.000 C 
ATOM     18  O   UNL     1       6.785   5.277  14.294  0.00  0.00    +0.000 OA
ENDBRANCH   1  18
TORSDOF 1
ENDMDL
MODEL 7
REMARK VINA RESULT:      -6.7      2.847      4.858
REMARK  Name = 
REMARK  2 active torsions:
REMARK  status: ('A' for Active; 'I' for Inactive)
REMARK    1  A    between atoms: C_1  and  O_2
REMARK    2  A    between atoms: O_2  and  C_3
REMARK                            x       y       z     vdW  Elec       q    Type
REMARK                         _______ _______ _______ _____ _____    ______ ____
ROOT
ATOM      1  C   UNL     1       1.245   8.750  20.208  0.00  0.00    +0.000 A 
ATOM      2  C   UNL     1       1.797   9.012  18.954  0.00  0.00    +0.000 A 
ATOM      3  C   UNL     1       2.468   8.025  18.233  0.00  0.00    +0.000 A 
ATOM      4  C   UNL     1       2.586   6.759  18.812  0.00  0.00    +0.000 A 
ATOM      5  C   UNL     1       2.037   6.455  20.070  0.00  0.00    +0.000 A 
ATOM      6  C   UNL     1       1.355   7.470  20.771  0.00  0.00    +0.000 A 
ATOM      7  C   UNL     1       2.340   5.083  20.360  0.00  0.00    +0.000 A 
ATOM      8  C   UNL     1       2.098   4.185  21.408  0.00  0.00    +0.000 A 
ATOM      9  C   UNL     1       2.606   2.896  21.247  0.00  0.00    +0.000 A 
ATOM     10  N   UNL     1       3.308   2.451  20.172  0.00  0.00    +0.000 NA
ATOM     11  C   UNL     1       3.554   3.323  19.165  0.00  0.00    +0.000 A 
ATOM     12  C   UNL     1       3.054   4.607  19.282  0.00  0.00    +0.000 A 
ATOM     13  N   UNL     1       3.197   5.617  18.367  0.00  0.00    +0.000 N 
ATOM     14  C   UNL     1       3.917   5.368  17.127  0.00  0.00    +0.000 C 
ATOM     15  C   UNL     1       4.922   4.200  17.276  0.00  0.00    +0.000 C 
ATOM     16  C   UNL     1       4.296   2.940  17.918  0.00  0.00    +0.000 C 
ENDROOT
BRANCH   1  18
ATOM     17  C   UNL     1       0.064   9.187  22.207  0.00  0.00    +0.000 C 
ATOM     18  O   UNL     1       0.589   9.676  20.977  0.00  0.00    +0.000 OA
ENDBRANCH   1  18
TORSDOF 1
ENDMDL
MODEL 8
REMARK VINA RESULT:      -6.7      2.930      5.446
REMARK  Name = 
REMARK  2 active torsions:
REMARK  status: ('A' for Active; 'I' for Inactive)
REMARK    1  A    between atoms: C_1  and  O_2
REMARK    2  A    between atoms: O_2  and  C_3
REMARK                            x       y       z     vdW  Elec       q    Type
REMARK                         _______ _______ _______ _____ _____    ______ ____
ROOT
ATOM      1  C   UNL     1       3.300   2.841  20.122  0.00  0.00    +0.000 A 
ATOM      2  C   UNL     1       2.912   2.097  19.008  0.00  0.00    +0.000 A 
ATOM      3  C   UNL     1       3.489   2.306  17.757  0.00  0.00    +0.000 A 
ATOM      4  C   UNL     1       4.465   3.298  17.644  0.00  0.00    +0.000 A 
ATOM      5  C   UNL     1       4.888   4.063  18.744  0.00  0.00    +0.000 A 
ATOM      6  C   UNL     1       4.295   3.823  20.001  0.00  0.00    +0.000 A 
ATOM      7  C   UNL     1       5.889   4.981  18.282  0.00  0.00    +0.000 A 
ATOM      8  C   UNL     1       6.688   5.987  18.842  0.00  0.00    +0.000 A 
ATOM      9  C   UNL     1       7.555   6.644  17.970  0.00  0.00    +0.000 A 
ATOM     10  N   UNL     1       7.683   6.392  16.641  0.00  0.00    +0.000 NA
ATOM     11  C   UNL     1       6.901   5.429  16.096  0.00  0.00    +0.000 A 
ATOM     12  C   UNL     1       6.037   4.745  16.932  0.00  0.00    +0.000 A 
ATOM     13  N   UNL     1       5.181   3.741  16.563  0.00  0.00    +0.000 N 
ATOM     14  C   UNL     1       5.146   3.298  15.177  0.00  0.00    +0.000 C 
ATOM     15  C   UNL     1       5.631   4.407  14.213  0.00  0.00    +0.000 C 
ATOM     16  C   UNL     1       6.971   5.046  14.647  0.00  0.00    +0.000 C 
ENDROOT
BRANCH   1  18
ATOM     17  C   UNL     1       1.341   2.743  21.439  0.00  0.00    +0.000 C 
ATOM     18  O   UNL     1       2.764   2.700  21.376  0.00  0.00    +0.000 OA
ENDBRANCH   1  18
TORSDOF 1
ENDMDL
MODEL 9
REMARK VINA RESULT:      -6.7      1.892      3.480
REMARK  Name = 
REMARK  2 active torsions:
REMARK  status: ('A' for Active; 'I' for Inactive)
REMARK    1  A    between atoms: C_1  and  O_2
REMARK    2  A    between atoms: O_2  and  C_3
REMARK                            x       y       z     vdW  Elec       q    Type
REMARK                         _______ _______ _______ _____ _____    ______ ____
ROOT
ATOM      1  C   UNL     1       5.667   4.418  15.396  0.00  0.00    +0.000 A 
ATOM      2  C   UNL     1       5.600   5.780  15.100  0.00  0.00    +0.000 A 
ATOM      3  C   UNL     1       4.900   6.668  15.915  0.00  0.00    +0.000 A 
ATOM      4  C   UNL     1       4.249   6.152  17.038  0.00  0.00    +0.000 A 
ATOM      5  C   UNL     1       4.299   4.788  17.373  0.00  0.00    +0.000 A 
ATOM      6  C   UNL     1       5.024   3.914  16.537  0.00  0.00    +0.000 A 
ATOM      7  C   UNL     1       3.530   4.602  18.570  0.00  0.00    +0.000 A 
ATOM      8  C   UNL     1       3.183   3.530  19.402  0.00  0.00    +0.000 A 
ATOM      9  C   UNL     1       2.381   3.836  20.502  0.00  0.00    +0.000 A 
ATOM     10  N   UNL     1       1.915   5.071  20.821  0.00  0.00    +0.000 NA
ATOM     11  C   UNL     1       2.239   6.106  20.009  0.00  0.00    +0.000 A 
ATOM     12  C   UNL     1       3.045   5.844  18.915  0.00  0.00    +0.000 A 
ATOM     13  N   UNL     1       3.478   6.760  17.992  0.00  0.00    +0.000 N 
ATOM     14  C   UNL     1       3.101   8.158  18.135  0.00  0.00    +0.000 C 
ATOM     15  C   UNL     1       1.794   8.316  18.948  0.00  0.00    +0.000 C 
ATOM     16  C   UNL     1       1.804   7.517  20.273  0.00  0.00    +0.000 C 
ENDROOT
BRANCH   1  18
ATOM     17  C   UNL     1       6.187   3.651  13.223  0.00  0.00    +0.000 C 
ATOM     18  O   UNL     1       6.322   3.488  14.631  0.00  0.00    +0.000 OA
ENDBRANCH   1  18
TORSDOF 1
ENDMDL
