MODEL 1
REMARK VINA RESULT:      -7.3      0.000      0.000
REMARK  Name = 
REMARK  7 active torsions:
REMARK  status: ('A' for Active; 'I' for Inactive)
REMARK    1  A    between atoms: C_1  and  S_2
REMARK    2  A    between atoms: S_2  and  C_3
REMARK    3  A    between atoms: C_3  and  C_4
REMARK    4  A    between atoms: C_4  and  C_5
REMARK    5  A    between atoms: C_5  and  N_6
REMARK    6  A    between atoms: C_5  and  C_15
REMARK    7  A    between atoms: C_7  and  C_9
REMARK                            x       y       z     vdW  Elec       q    Type
REMARK                         _______ _______ _______ _____ _____    ______ ____
ROOT
ATOM      1  C   UNL     1       2.825   6.284  17.974  0.00  0.00    +0.000 C 
ENDROOT
BRANCH   1   2
ATOM      2  C   UNL     1       2.142   4.972  18.194  0.00  0.00    +0.000 A 
ATOM      3  N   UNL     1       1.596   4.209  17.262  0.00  0.00    +0.000 NA
ATOM      4  N   UNL     1       1.159   3.047  17.853  0.00  0.00    +0.000 NA
ATOM      5  C   UNL     1       1.445   3.113  19.134  0.00  0.00    +0.000 A 
ATOM      6  C   UNL     1       1.265   2.200  20.210  0.00  0.00    +0.000 A 
ATOM      7  C   UNL     1       1.661   2.547  21.451  0.00  0.00    +0.000 A 
ATOM      8  C   UNL     1       2.257   3.846  21.720  0.00  0.00    +0.000 A 
ATOM      9  C   UNL     1       2.439   4.706  20.702  0.00  0.00    +0.000 A 
ATOM     10  N   UNL     1       2.045   4.334  19.417  0.00  0.00    +0.000 N 
ENDBRANCH   1   2
BRANCH   1  11
ATOM     11  N   UNL     1       2.178   7.270  18.830  0.00  0.00    +0.000 N 
ATOM     12  C   UNL     1       1.930   8.548  18.381  0.00  0.00    +0.000 C 
ATOM     13  O   UNL     1       2.246   8.910  17.250  0.00  0.00    +0.000 OA
ATOM     14  H   UNL     1       1.948   7.027  19.790  0.00  0.00    +0.000 HD
BRANCH  12  15
ATOM     15  C   UNL     1       1.271   9.424  19.321  0.00  0.00    +0.000 A 
ATOM     16  C   UNL     1       0.876  10.743  19.183  0.00  0.00    +0.000 A 
ATOM     17  C   UNL     1       0.251  11.112  20.398  0.00  0.00    +0.000 A 
ATOM     18  C   UNL     1       0.310  10.003  21.207  0.00  0.00    +0.000 A 
ATOM     19 BR   UNL     1      -0.370   9.910  22.942  0.00  0.00    +0.000 Br
ATOM     20  O   UNL     1       0.927   8.971  20.567  0.00  0.00    +0.000 OA
ENDBRANCH  12  15
ENDBRANCH   1  11
BRANCH   1  21
ATOM     21  C   UNL     1       4.335   6.216  18.264  0.00  0.00    +0.000 C 
BRANCH  21  22
ATOM     22  C   UNL     1       5.244   6.630  17.103  0.00  0.00    +0.000 C 
BRANCH  22  24
ATOM     23  C   UNL     1       7.677   7.914  17.602  0.00  0.00    +0.000 C 
ATOM     24  S   UNL     1       7.020   6.249  17.310  0.00  0.00    +0.000 S 
ENDBRANCH  22  24
ENDBRANCH  21  22
ENDBRANCH   1  21
TORSDOF 6
ENDMDL
MODEL 2
REMARK VINA RESULT:      -7.3      4.448      6.470
REMARK  Name = 
REMARK  7 active torsions:
REMARK  status: ('A' for Active; 'I' for Inactive)
REMARK    1  A    between atoms: C_1  and  S_2
REMARK    2  A    between atoms: S_2  and  C_3
REMARK    3  A    between atoms: C_3  and  C_4
REMARK    4  A    between atoms: C_4  and  C_5
REMARK    5  A    between atoms: C_5  and  N_6
REMARK    6  A    between atoms: C_5  and  C_15
REMARK    7  A    between atoms: C_7  and  C_9
REMARK                            x       y       z     vdW  Elec       q    Type
REMARK                         _______ _______ _______ _____ _____    ______ ____
ROOT
ATOM      1  C   UNL     1       4.423   4.676  17.747  0.00  0.00    +0.000 C 
ENDROOT
BRANCH   1   2
ATOM      2  C   UNL     1       3.055   4.152  18.051  0.00  0.00    +0.000 A 
ATOM      3  N   UNL     1       2.093   3.925  17.173  0.00  0.00    +0.000 NA
ATOM      4  N   UNL     1       1.028   3.358  17.834  0.00  0.00    +0.000 NA
ATOM      5  C   UNL     1       1.354   3.243  19.102  0.00  0.00    +0.000 A 
ATOM      6  C   UNL     1       0.672   2.701  20.227  0.00  0.00    +0.000 A 
ATOM      7  C   UNL     1       1.265   2.723  21.438  0.00  0.00    +0.000 A 
ATOM      8  C   UNL     1       2.584   3.304  21.625  0.00  0.00    +0.000 A 
ATOM      9  C   UNL     1       3.235   3.806  20.561  0.00  0.00    +0.000 A 
ATOM     10  N   UNL     1       2.626   3.764  19.307  0.00  0.00    +0.000 N 
ENDBRANCH   1   2
BRANCH   1  11
ATOM     11  N   UNL     1       4.653   4.508  16.318  0.00  0.00    +0.000 N 
ATOM     12  C   UNL     1       5.921   4.294  15.822  0.00  0.00    +0.000 C 
ATOM     13  O   UNL     1       6.903   4.242  16.559  0.00  0.00    +0.000 OA
ATOM     14  H   UNL     1       3.875   4.596  15.670  0.00  0.00    +0.000 HD
BRANCH  12  15
ATOM     15  C   UNL     1       6.013   4.130  14.391  0.00  0.00    +0.000 A 
ATOM     16  C   UNL     1       7.100   4.275  13.547  0.00  0.00    +0.000 A 
ATOM     17  C   UNL     1       6.646   3.969  12.241  0.00  0.00    +0.000 A 
ATOM     18  C   UNL     1       5.312   3.665  12.365  0.00  0.00    +0.000 A 
ATOM     19 BR   UNL     1       4.193   3.178  10.952  0.00  0.00    +0.000 Br
ATOM     20  O   UNL     1       4.914   3.760  13.663  0.00  0.00    +0.000 OA
ENDBRANCH  12  15
ENDBRANCH   1  11
BRANCH   1  21
ATOM     21  C   UNL     1       4.592   6.150  18.157  0.00  0.00    +0.000 C 
BRANCH  21  22
ATOM     22  C   UNL     1       3.941   7.169  17.219  0.00  0.00    +0.000 C 
BRANCH  22  24
ATOM     23  C   UNL     1       2.385   7.318  19.538  0.00  0.00    +0.000 C 
ATOM     24  S   UNL     1       2.566   8.141  17.932  0.00  0.00    +0.000 S 
ENDBRANCH  22  24
ENDBRANCH  21  22
ENDBRANCH   1  21
TORSDOF 6
ENDMDL
MODEL 3
REMARK VINA RESULT:      -7.3      2.679      4.490
REMARK  Name = 
REMARK  7 active torsions:
REMARK  status: ('A' for Active; 'I' for Inactive)
REMARK    1  A    between atoms: C_1  and  S_2
REMARK    2  A    between atoms: S_2  and  C_3
REMARK    3  A    between atoms: C_3  and  C_4
REMARK    4  A    between atoms: C_4  and  C_5
REMARK    5  A    between atoms: C_5  and  N_6
REMARK    6  A    between atoms: C_5  and  C_15
REMARK    7  A    between atoms: C_7  and  C_9
REMARK                            x       y       z     vdW  Elec       q    Type
REMARK                         _______ _______ _______ _____ _____    ______ ____
ROOT
ATOM      1  C   UNL     1       2.762   4.567  18.381  0.00  0.00    +0.000 C 
ENDROOT
BRANCH   1   2
ATOM      2  C   UNL     1       4.036   4.326  17.637  0.00  0.00    +0.000 A 
ATOM      3  N   UNL     1       4.147   3.804  16.426  0.00  0.00    +0.000 NA
ATOM      4  N   UNL     1       5.472   3.838  16.060  0.00  0.00    +0.000 NA
ATOM      5  C   UNL     1       6.151   4.381  17.046  0.00  0.00    +0.000 A 
ATOM      6  C   UNL     1       7.528   4.702  17.206  0.00  0.00    +0.000 A 
ATOM      7  C   UNL     1       7.950   5.265  18.356  0.00  0.00    +0.000 A 
ATOM      8  C   UNL     1       7.030   5.540  19.447  0.00  0.00    +0.000 A 
ATOM      9  C   UNL     1       5.726   5.249  19.293  0.00  0.00    +0.000 A 
ATOM     10  N   UNL     1       5.291   4.685  18.094  0.00  0.00    +0.000 N 
ENDBRANCH   1   2
BRANCH   1  11
ATOM     11  N   UNL     1       2.398   5.966  18.195  0.00  0.00    +0.000 N 
ATOM     12  C   UNL     1       2.296   6.823  19.268  0.00  0.00    +0.000 C 
ATOM     13  O   UNL     1       2.499   6.445  20.420  0.00  0.00    +0.000 OA
ATOM     14  H   UNL     1       2.171   6.306  17.265  0.00  0.00    +0.000 HD
BRANCH  12  15
ATOM     15  C   UNL     1       1.942   8.186  18.949  0.00  0.00    +0.000 A 
ATOM     16  C   UNL     1       2.197   8.928  17.809  0.00  0.00    +0.000 A 
ATOM     17  C   UNL     1       1.604  10.198  18.008  0.00  0.00    +0.000 A 
ATOM     18  C   UNL     1       1.032  10.159  19.256  0.00  0.00    +0.000 A 
ATOM     19 BR   UNL     1       0.100  11.569  20.048  0.00  0.00    +0.000 Br
ATOM     20  O   UNL     1       1.230   8.945  19.840  0.00  0.00    +0.000 OA
ENDBRANCH  12  15
ENDBRANCH   1  11
BRANCH   1  21
ATOM     21  C   UNL     1       1.624   3.642  17.913  0.00  0.00    +0.000 C 
BRANCH  21  22
ATOM     22  C   UNL     1       1.154   2.611  18.944  0.00  0.00    +0.000 C 
BRANCH  22  24
ATOM     23  C   UNL     1       2.577   2.629  21.352  0.00  0.00    +0.000 C 
ATOM     24  S   UNL     1       1.005   3.217  20.663  0.00  0.00    +0.000 S 
ENDBRANCH  22  24
ENDBRANCH  21  22
ENDBRANCH   1  21
TORSDOF 6
ENDMDL
MODEL 4
REMARK VINA RESULT:      -7.2      4.086      6.151
REMARK  Name = 
REMARK  7 active torsions:
REMARK  status: ('A' for Active; 'I' for Inactive)
REMARK    1  A    between atoms: C_1  and  S_2
REMARK    2  A    between atoms: S_2  and  C_3
REMARK    3  A    between atoms: C_3  and  C_4
REMARK    4  A    between atoms: C_4  and  C_5
REMARK    5  A    between atoms: C_5  and  N_6
REMARK    6  A    between atoms: C_5  and  C_15
REMARK    7  A    between atoms: C_7  and  C_9
REMARK                            x       y       z     vdW  Elec       q    Type
REMARK                         _______ _______ _______ _____ _____    ______ ____
ROOT
ATOM      1  C   UNL     1       3.247   6.281  18.147  0.00  0.00    +0.000 C 
ENDROOT
BRANCH   1   2
ATOM      2  C   UNL     1       2.291   5.146  18.331  0.00  0.00    +0.000 A 
ATOM      3  N   UNL     1       1.547   4.591  17.388  0.00  0.00    +0.000 NA
ATOM      4  N   UNL     1       0.880   3.521  17.936  0.00  0.00    +0.000 NA
ATOM      5  C   UNL     1       1.226   3.434  19.201  0.00  0.00    +0.000 A 
ATOM      6  C   UNL     1       0.886   2.514  20.232  0.00  0.00    +0.000 A 
ATOM      7  C   UNL     1       1.402   2.678  21.467  0.00  0.00    +0.000 A 
ATOM      8  C   UNL     1       2.291   3.786  21.775  0.00  0.00    +0.000 A 
ATOM      9  C   UNL     1       2.622   4.650  20.799  0.00  0.00    +0.000 A 
ATOM     10  N   UNL     1       2.101   4.465  19.519  0.00  0.00    +0.000 N 
ENDBRANCH   1   2
BRANCH   1  11
ATOM     11  N   UNL     1       4.077   5.979  16.989  0.00  0.00    +0.000 N 
ATOM     12  C   UNL     1       5.094   5.053  17.064  0.00  0.00    +0.000 C 
ATOM     13  O   UNL     1       5.347   4.453  18.106  0.00  0.00    +0.000 OA
ATOM     14  H   UNL     1       3.935   6.491  16.122  0.00  0.00    +0.000 HD
BRANCH  12  15
ATOM     15  C   UNL     1       5.833   4.835  15.844  0.00  0.00    +0.000 A 
ATOM     16  C   UNL     1       7.122   5.205  15.504  0.00  0.00    +0.000 A 
ATOM     17  C   UNL     1       7.358   4.716  14.197  0.00  0.00    +0.000 A 
ATOM     18  C   UNL     1       6.199   4.085  13.814  0.00  0.00    +0.000 A 
ATOM     19 BR   UNL     1       5.936   3.243  12.169  0.00  0.00    +0.000 Br
ATOM     20  O   UNL     1       5.264   4.150  14.802  0.00  0.00    +0.000 OA
ENDBRANCH  12  15
ENDBRANCH   1  11
BRANCH   1  21
ATOM     21  C   UNL     1       2.529   7.631  17.966  0.00  0.00    +0.000 C 
BRANCH  21  22
ATOM     22  C   UNL     1       1.812   8.163  19.210  0.00  0.00    +0.000 C 
BRANCH  22  24
ATOM     23  C   UNL     1      -0.181   9.760  18.073  0.00  0.00    +0.000 C 
ATOM     24  S   UNL     1       1.281   9.911  19.135  0.00  0.00    +0.000 S 
ENDBRANCH  22  24
ENDBRANCH  21  22
ENDBRANCH   1  21
TORSDOF 6
ENDMDL
MODEL 5
REMARK VINA RESULT:      -7.2      2.806      5.029
REMARK  Name = 
REMARK  7 active torsions:
REMARK  status: ('A' for Active; 'I' for Inactive)
REMARK    1  A    between atoms: C_1  and  S_2
REMARK    2  A    between atoms: S_2  and  C_3
REMARK    3  A    between atoms: C_3  and  C_4
REMARK    4  A    between atoms: C_4  and  C_5
REMARK    5  A    between atoms: C_5  and  N_6
REMARK    6  A    between atoms: C_5  and  C_15
REMARK    7  A    between atoms: C_7  and  C_9
REMARK                            x       y       z     vdW  Elec       q    Type
REMARK                         _______ _______ _______ _____ _____    ______ ____
ROOT
ATOM      1  C   UNL     1       3.711   4.847  18.925  0.00  0.00    +0.000 C 
ENDROOT
BRANCH   1   2
ATOM      2  C   UNL     1       5.144   4.814  18.496  0.00  0.00    +0.000 A 
ATOM      3  N   UNL     1       6.192   4.652  19.286  0.00  0.00    +0.000 NA
ATOM      4  N   UNL     1       7.319   4.584  18.502  0.00  0.00    +0.000 NA
ATOM      5  C   UNL     1       6.947   4.702  17.247  0.00  0.00    +0.000 A 
ATOM      6  C   UNL     1       7.667   4.666  16.021  0.00  0.00    +0.000 A 
ATOM      7  C   UNL     1       7.006   4.822  14.856  0.00  0.00    +0.000 A 
ATOM      8  C   UNL     1       5.569   5.043  14.825  0.00  0.00    +0.000 A 
ATOM      9  C   UNL     1       4.885   5.065  15.982  0.00  0.00    +0.000 A 
ATOM     10  N   UNL     1       5.570   4.884  17.183  0.00  0.00    +0.000 N 
ENDBRANCH   1   2
BRANCH   1  11
ATOM     11  N   UNL     1       3.199   6.185  18.661  0.00  0.00    +0.000 N 
ATOM     12  C   UNL     1       2.325   6.797  19.532  0.00  0.00    +0.000 C 
ATOM     13  O   UNL     1       1.938   6.241  20.557  0.00  0.00    +0.000 OA
ATOM     14  H   UNL     1       3.454   6.659  17.799  0.00  0.00    +0.000 HD
BRANCH  12  15
ATOM     15  C   UNL     1       1.904   8.127  19.164  0.00  0.00    +0.000 A 
ATOM     16  C   UNL     1       2.080   8.821  17.980  0.00  0.00    +0.000 A 
ATOM     17  C   UNL     1       1.446  10.077  18.143  0.00  0.00    +0.000 A 
ATOM     18  C   UNL     1       0.928  10.077  19.416  0.00  0.00    +0.000 A 
ATOM     19 BR   UNL     1      -0.026  11.487  20.180  0.00  0.00    +0.000 Br
ATOM     20  O   UNL     1       1.200   8.901  20.048  0.00  0.00    +0.000 OA
ENDBRANCH  12  15
ENDBRANCH   1  11
BRANCH   1  21
ATOM     21  C   UNL     1       2.858   3.786  18.205  0.00  0.00    +0.000 C 
BRANCH  21  22
ATOM     22  C   UNL     1       2.269   2.699  19.108  0.00  0.00    +0.000 C 
BRANCH  22  24
ATOM     23  C   UNL     1       1.356   2.692  21.752  0.00  0.00    +0.000 C 
ATOM     24  S   UNL     1       2.911   2.651  20.819  0.00  0.00    +0.000 S 
ENDBRANCH  22  24
ENDBRANCH  21  22
ENDBRANCH   1  21
TORSDOF 6
ENDMDL
MODEL 6
REMARK VINA RESULT:      -7.1      4.814      6.597
REMARK  Name = 
REMARK  7 active torsions:
REMARK  status: ('A' for Active; 'I' for Inactive)
REMARK    1  A    between atoms: C_1  and  S_2
REMARK    2  A    between atoms: S_2  and  C_3
REMARK    3  A    between atoms: C_3  and  C_4
REMARK    4  A    between atoms: C_4  and  C_5
REMARK    5  A    between atoms: C_5  and  N_6
REMARK    6  A    between atoms: C_5  and  C_15
REMARK    7  A    between atoms: C_7  and  C_9
REMARK                            x       y       z     vdW  Elec       q    Type
REMARK                         _______ _______ _______ _____ _____    ______ ____
ROOT
ATOM      1  C   UNL     1       5.082   4.477  17.405  0.00  0.00    +0.000 C 
ENDROOT
BRANCH   1   2
ATOM      2  C   UNL     1       4.110   3.521  18.022  0.00  0.00    +0.000 A 
ATOM      3  N   UNL     1       3.938   2.255  17.681  0.00  0.00    +0.000 NA
ATOM      4  N   UNL     1       3.025   1.695  18.544  0.00  0.00    +0.000 NA
ATOM      5  C   UNL     1       2.656   2.622  19.400  0.00  0.00    +0.000 A 
ATOM      6  C   UNL     1       1.779   2.605  20.521  0.00  0.00    +0.000 A 
ATOM      7  C   UNL     1       1.585   3.735  21.230  0.00  0.00    +0.000 A 
ATOM      8  C   UNL     1       2.241   4.980  20.866  0.00  0.00    +0.000 A 
ATOM      9  C   UNL     1       3.079   4.995  19.815  0.00  0.00    +0.000 A 
ATOM     10  N   UNL     1       3.293   3.819  19.096  0.00  0.00    +0.000 N 
ENDBRANCH   1   2
BRANCH   1  11
ATOM     11  N   UNL     1       5.066   4.258  15.965  0.00  0.00    +0.000 N 
ATOM     12  C   UNL     1       6.237   4.133  15.251  0.00  0.00    +0.000 C 
ATOM     13  O   UNL     1       7.337   4.206  15.794  0.00  0.00    +0.000 OA
ATOM     14  H   UNL     1       4.179   4.243  15.470  0.00  0.00    +0.000 HD
BRANCH  12  15
ATOM     15  C   UNL     1       6.085   3.906  13.834  0.00  0.00    +0.000 A 
ATOM     16  C   UNL     1       7.043   3.785  12.843  0.00  0.00    +0.000 A 
ATOM     17  C   UNL     1       6.351   3.541  11.632  0.00  0.00    +0.000 A 
ATOM     18  C   UNL     1       5.015   3.535  11.954  0.00  0.00    +0.000 A 
ATOM     19 BR   UNL     1       3.627   3.254  10.739  0.00  0.00    +0.000 Br
ATOM     20  O   UNL     1       4.838   3.757  13.286  0.00  0.00    +0.000 OA
ENDBRANCH  12  15
ENDBRANCH   1  11
BRANCH   1  21
ATOM     21  C   UNL     1       4.755   5.944  17.738  0.00  0.00    +0.000 C 
BRANCH  21  22
ATOM     22  C   UNL     1       5.735   6.976  17.173  0.00  0.00    +0.000 C 
BRANCH  22  24
ATOM     23  C   UNL     1       7.877   8.679  17.752  0.00  0.00    +0.000 C 
ATOM     24  S   UNL     1       7.428   6.925  17.861  0.00  0.00    +0.000 S 
ENDBRANCH  22  24
ENDBRANCH  21  22
ENDBRANCH   1  21
TORSDOF 6
ENDMDL
MODEL 7
REMARK VINA RESULT:      -7.1      4.415      6.505
REMARK  Name = 
REMARK  7 active torsions:
REMARK  status: ('A' for Active; 'I' for Inactive)
REMARK    1  A    between atoms: C_1  and  S_2
REMARK    2  A    between atoms: S_2  and  C_3
REMARK    3  A    between atoms: C_3  and  C_4
REMARK    4  A    between atoms: C_4  and  C_5
REMARK    5  A    between atoms: C_5  and  N_6
REMARK    6  A    between atoms: C_5  and  C_15
REMARK    7  A    between atoms: C_7  and  C_9
REMARK                            x       y       z     vdW  Elec       q    Type
REMARK                         _______ _______ _______ _____ _____    ______ ____
ROOT
ATOM      1  C   UNL     1       4.399   5.396  17.952  0.00  0.00    +0.000 C 
ENDROOT
BRANCH   1   2
ATOM      2  C   UNL     1       4.288   4.247  18.904  0.00  0.00    +0.000 A 
ATOM      3  N   UNL     1       5.261   3.418  19.243  0.00  0.00    +0.000 NA
ATOM      4  N   UNL     1       4.785   2.564  20.210  0.00  0.00    +0.000 NA
ATOM      5  C   UNL     1       3.533   2.883  20.450  0.00  0.00    +0.000 A 
ATOM      6  C   UNL     1       2.568   2.376  21.365  0.00  0.00    +0.000 A 
ATOM      7  C   UNL     1       1.329   2.909  21.388  0.00  0.00    +0.000 A 
ATOM      8  C   UNL     1       0.951   3.984  20.486  0.00  0.00    +0.000 A 
ATOM      9  C   UNL     1       1.865   4.472  19.629  0.00  0.00    +0.000 A 
ATOM     10  N   UNL     1       3.151   3.932  19.622  0.00  0.00    +0.000 N 
ENDBRANCH   1   2
BRANCH   1  11
ATOM     11  N   UNL     1       4.884   4.874  16.682  0.00  0.00    +0.000 N 
ATOM     12  C   UNL     1       5.699   5.629  15.867  0.00  0.00    +0.000 C 
ATOM     13  O   UNL     1       6.043   6.768  16.173  0.00  0.00    +0.000 OA
ATOM     14  H   UNL     1       4.582   3.956  16.367  0.00  0.00    +0.000 HD
BRANCH  12  15
ATOM     15  C   UNL     1       6.123   4.992  14.643  0.00  0.00    +0.000 A 
ATOM     16  C   UNL     1       7.341   5.043  13.988  0.00  0.00    +0.000 A 
ATOM     17  C   UNL     1       7.227   4.212  12.848  0.00  0.00    +0.000 A 
ATOM     18  C   UNL     1       5.948   3.711  12.869  0.00  0.00    +0.000 A 
ATOM     19 BR   UNL     1       5.237   2.545  11.598  0.00  0.00    +0.000 Br
ATOM     20  O   UNL     1       5.266   4.177  13.952  0.00  0.00    +0.000 OA
ENDBRANCH  12  15
ENDBRANCH   1  11
BRANCH   1  21
ATOM     21  C   UNL     1       3.061   6.133  17.763  0.00  0.00    +0.000 C 
BRANCH  21  22
ATOM     22  C   UNL     1       3.124   7.655  17.920  0.00  0.00    +0.000 C 
BRANCH  22  24
ATOM     23  C   UNL     1       1.502   9.919  18.166  0.00  0.00    +0.000 C 
ATOM     24  S   UNL     1       1.894   8.389  19.056  0.00  0.00    +0.000 S 
ENDBRANCH  22  24
ENDBRANCH  21  22
ENDBRANCH   1  21
TORSDOF 6
ENDMDL
MODEL 8
REMARK VINA RESULT:      -7.1      5.021      6.894
REMARK  Name = 
REMARK  7 active torsions:
REMARK  status: ('A' for Active; 'I' for Inactive)
REMARK    1  A    between atoms: C_1  and  S_2
REMARK    2  A    between atoms: S_2  and  C_3
REMARK    3  A    between atoms: C_3  and  C_4
REMARK    4  A    between atoms: C_4  and  C_5
REMARK    5  A    between atoms: C_5  and  N_6
REMARK    6  A    between atoms: C_5  and  C_15
REMARK    7  A    between atoms: C_7  and  C_9
REMARK                            x       y       z     vdW  Elec       q    Type
REMARK                         _______ _______ _______ _____ _____    ______ ____
ROOT
ATOM      1  C   UNL     1       5.609   5.171  17.019  0.00  0.00    +0.000 C 
ENDROOT
BRANCH   1   2
ATOM      2  C   UNL     1       5.082   4.226  18.051  0.00  0.00    +0.000 A 
ATOM      3  N   UNL     1       5.789   3.624  18.993  0.00  0.00    +0.000 NA
ATOM      4  N   UNL     1       4.926   2.916  19.796  0.00  0.00    +0.000 NA
ATOM      5  C   UNL     1       3.707   3.096  19.339  0.00  0.00    +0.000 A 
ATOM      6  C   UNL     1       2.434   2.646  19.786  0.00  0.00    +0.000 A 
ATOM      7  C   UNL     1       1.327   2.993  19.099  0.00  0.00    +0.000 A 
ATOM      8  C   UNL     1       1.406   3.808  17.898  0.00  0.00    +0.000 A 
ATOM      9  C   UNL     1       2.607   4.244  17.481  0.00  0.00    +0.000 A 
ATOM     10  N   UNL     1       3.747   3.899  18.206  0.00  0.00    +0.000 N 
ENDBRANCH   1   2
BRANCH   1  11
ATOM     11  N   UNL     1       5.413   4.557  15.713  0.00  0.00    +0.000 N 
ATOM     12  C   UNL     1       6.378   4.644  14.734  0.00  0.00    +0.000 C 
ATOM     13  O   UNL     1       7.434   5.245  14.917  0.00  0.00    +0.000 OA
ATOM     14  H   UNL     1       4.533   4.095  15.503  0.00  0.00    +0.000 HD
BRANCH  12  15
ATOM     15  C   UNL     1       6.069   3.980  13.490  0.00  0.00    +0.000 A 
ATOM     16  C   UNL     1       6.866   3.194  12.678  0.00  0.00    +0.000 A 
ATOM     17  C   UNL     1       6.057   2.771  11.595  0.00  0.00    +0.000 A 
ATOM     18  C   UNL     1       4.820   3.330  11.806  0.00  0.00    +0.000 A 
ATOM     19 BR   UNL     1       3.343   3.106  10.688  0.00  0.00    +0.000 Br
ATOM     20  O   UNL     1       4.812   4.067  12.951  0.00  0.00    +0.000 OA
ENDBRANCH  12  15
ENDBRANCH   1  11
BRANCH   1  21
ATOM     21  C   UNL     1       4.926   6.549  17.081  0.00  0.00    +0.000 C 
BRANCH  21  22
ATOM     22  C   UNL     1       5.818   7.702  17.550  0.00  0.00    +0.000 C 
BRANCH  22  24
ATOM     23  C   UNL     1       8.262   8.972  18.035  0.00  0.00    +0.000 C 
ATOM     24  S   UNL     1       7.600   7.317  17.699  0.00  0.00    +0.000 S 
ENDBRANCH  22  24
ENDBRANCH  21  22
ENDBRANCH   1  21
TORSDOF 6
ENDMDL
MODEL 9
REMARK VINA RESULT:      -7.1      4.966      6.828
REMARK  Name = 
REMARK  7 active torsions:
REMARK  status: ('A' for Active; 'I' for Inactive)
REMARK    1  A    between atoms: C_1  and  S_2
REMARK    2  A    between atoms: S_2  and  C_3
REMARK    3  A    between atoms: C_3  and  C_4
REMARK    4  A    between atoms: C_4  and  C_5
REMARK    5  A    between atoms: C_5  and  N_6
REMARK    6  A    between atoms: C_5  and  C_15
REMARK    7  A    between atoms: C_7  and  C_9
REMARK                            x       y       z     vdW  Elec       q    Type
REMARK                         _______ _______ _______ _____ _____    ______ ____
ROOT
ATOM      1  C   UNL     1       5.584   5.806  17.182  0.00  0.00    +0.000 C 
ENDROOT
BRANCH   1   2
ATOM      2  C   UNL     1       4.232   5.628  17.798  0.00  0.00    +0.000 A 
ATOM      3  N   UNL     1       3.435   6.593  18.225  0.00  0.00    +0.000 NA
ATOM      4  N   UNL     1       2.250   6.027  18.632  0.00  0.00    +0.000 NA
ATOM      5  C   UNL     1       2.336   4.729  18.446  0.00  0.00    +0.000 A 
ATOM      6  C   UNL     1       1.416   3.663  18.648  0.00  0.00    +0.000 A 
ATOM      7  C   UNL     1       1.790   2.398  18.366  0.00  0.00    +0.000 A 
ATOM      8  C   UNL     1       3.123   2.096  17.872  0.00  0.00    +0.000 A 
ATOM      9  C   UNL     1       3.990   3.103  17.670  0.00  0.00    +0.000 A 
ATOM     10  N   UNL     1       3.592   4.411  17.944  0.00  0.00    +0.000 N 
ENDBRANCH   1   2
BRANCH   1  11
ATOM     11  N   UNL     1       5.519   5.302  15.817  0.00  0.00    +0.000 N 
ATOM     12  C   UNL     1       6.590   4.649  15.248  0.00  0.00    +0.000 C 
ATOM     13  O   UNL     1       7.639   4.471  15.861  0.00  0.00    +0.000 OA
ATOM     14  H   UNL     1       4.688   5.474  15.257  0.00  0.00    +0.000 HD
BRANCH  12  15
ATOM     15  C   UNL     1       6.393   4.186  13.895  0.00  0.00    +0.000 A 
ATOM     16  C   UNL     1       7.321   3.867  12.919  0.00  0.00    +0.000 A 
ATOM     17  C   UNL     1       6.591   3.440  11.784  0.00  0.00    +0.000 A 
ATOM     18  C   UNL     1       5.264   3.530  12.131  0.00  0.00    +0.000 A 
ATOM     19 BR   UNL     1       3.837   3.087  11.013  0.00  0.00    +0.000 Br
ATOM     20  O   UNL     1       5.129   3.983  13.408  0.00  0.00    +0.000 OA
ENDBRANCH  12  15
ENDBRANCH   1  11
BRANCH   1  21
ATOM     21  C   UNL     1       6.048   7.274  17.199  0.00  0.00    +0.000 C 
BRANCH  21  22
ATOM     22  C   UNL     1       7.476   7.502  17.703  0.00  0.00    +0.000 C 
BRANCH  22  24
ATOM     23  C   UNL     1       9.009   9.333  19.158  0.00  0.00    +0.000 C 
ATOM     24  S   UNL     1       8.090   9.221  17.598  0.00  0.00    +0.000 S 
ENDBRANCH  22  24
ENDBRANCH  21  22
ENDBRANCH   1  21
TORSDOF 6
ENDMDL
