MODEL 1
REMARK VINA RESULT:      -7.9      0.000      0.000
REMARK  Name = 
REMARK  5 active torsions:
REMARK  status: ('A' for Active; 'I' for Inactive)
REMARK    1  A    between atoms: C_2  and  C_4
REMARK    2  A    between atoms: C_9  and  C_10
REMARK    3  A    between atoms: C_15  and  C_16
REMARK    4  A    between atoms: C_23  and  C_24
REMARK    5  A    between atoms: C_24  and  N_25
REMARK                            x       y       z     vdW  Elec       q    Type
REMARK                         _______ _______ _______ _____ _____    ______ ____
ROOT
ATOM      1  C   UNL     1      -3.140  13.153  21.920  0.00  0.00    +0.000 A 
ATOM      2  C   UNL     1      -2.518  12.634  23.138  0.00  0.00    +0.000 A 
ATOM      3  C   UNL     1      -1.507  11.739  23.094  0.00  0.00    +0.000 A 
ATOM      4  C   UNL     1      -1.026  11.276  21.831  0.00  0.00    +0.000 A 
ATOM      5  N   UNL     1      -0.055  10.435  21.548  0.00  0.00    +0.000 NA
ATOM      6  C   UNL     1      -0.041  10.309  20.174  0.00  0.00    +0.000 A 
ATOM      7  C   UNL     1      -1.034  11.107  19.595  0.00  0.00    +0.000 A 
ATOM      8  N   UNL     1      -1.645  11.753  20.674  0.00  0.00    +0.000 N 
ATOM      9  C   UNL     1      -2.682  12.695  20.733  0.00  0.00    +0.000 A 
ENDROOT
BRANCH   6  10
ATOM     10  C   UNL     1       0.898   9.372  19.535  0.00  0.00    +0.000 A 
ATOM     11  C   UNL     1       1.375   8.262  20.254  0.00  0.00    +0.000 A 
ATOM     12  C   UNL     1       2.299   7.368  19.688  0.00  0.00    +0.000 A 
ATOM     13  C   UNL     1       2.750   7.564  18.387  0.00  0.00    +0.000 A 
ATOM     14 CL   UNL     1       3.902   6.496  17.688  0.00  0.00    +0.000 Cl
ATOM     15  C   UNL     1       2.282   8.638  17.650  0.00  0.00    +0.000 A 
ATOM     16  C   UNL     1       1.378   9.531  18.232  0.00  0.00    +0.000 A 
ENDBRANCH   6  10
BRANCH   1  22
ATOM     17  C   UNL     1      -5.573  13.980  22.084  0.00  0.00    +0.000 A 
ATOM     18  C   UNL     1      -6.482  15.051  21.942  0.00  0.00    +0.000 A 
ATOM     19  C   UNL     1      -6.030  16.346  21.699  0.00  0.00    +0.000 A 
ATOM     20  C   UNL     1      -4.667  16.590  21.604  0.00  0.00    +0.000 A 
ATOM     21  C   UNL     1      -3.758  15.532  21.707  0.00  0.00    +0.000 A 
ATOM     22  C   UNL     1      -4.190  14.207  21.916  0.00  0.00    +0.000 A 
BRANCH  17  24
ATOM     23  N   UNL     1      -6.410  11.829  21.313  0.00  0.00    +0.000 N 
ATOM     24  C   UNL     1      -6.132  12.632  22.390  0.00  0.00    +0.000 C 
ATOM     25  O   UNL     1      -6.340  12.239  23.528  0.00  0.00    +0.000 OA
ATOM     26  H   UNL     1      -6.836  10.932  21.500  0.00  0.00    +0.000 HD
ATOM     27  H   UNL     1      -6.385  12.150  20.355  0.00  0.00    +0.000 HD
ENDBRANCH  17  24
ENDBRANCH   1  22
BRANCH   7  28
ATOM     28  C   UNL     1      -1.571  11.174  18.189  0.00  0.00    +0.000 C 
BRANCH  28  29
ATOM     29  N   UNL     1      -2.477  10.065  17.804  0.00  0.00    +0.000 NA
ATOM     30  C   UNL     1      -2.392   9.695  16.377  0.00  0.00    +0.000 C 
ATOM     31  C   UNL     1      -2.921  10.792  15.431  0.00  0.00    +0.000 C 
ATOM     32  O   UNL     1      -4.260  11.193  15.751  0.00  0.00    +0.000 OA
ATOM     33  C   UNL     1      -4.414  11.540  17.132  0.00  0.00    +0.000 C 
ATOM     34  C   UNL     1      -3.904  10.418  18.047  0.00  0.00    +0.000 C 
ENDBRANCH  28  29
ENDBRANCH   7  28
TORSDOF 5
ENDMDL
MODEL 2
REMARK VINA RESULT:      -7.8      0.596      1.035
REMARK  Name = 
REMARK  5 active torsions:
REMARK  status: ('A' for Active; 'I' for Inactive)
REMARK    1  A    between atoms: C_2  and  C_4
REMARK    2  A    between atoms: C_9  and  C_10
REMARK    3  A    between atoms: C_15  and  C_16
REMARK    4  A    between atoms: C_23  and  C_24
REMARK    5  A    between atoms: C_24  and  N_25
REMARK                            x       y       z     vdW  Elec       q    Type
REMARK                         _______ _______ _______ _____ _____    ______ ____
ROOT
ATOM      1  C   UNL     1      -2.982  13.140  21.866  0.00  0.00    +0.000 A 
ATOM      2  C   UNL     1      -2.393  12.623  23.101  0.00  0.00    +0.000 A 
ATOM      3  C   UNL     1      -1.398  11.708  23.084  0.00  0.00    +0.000 A 
ATOM      4  C   UNL     1      -0.904  11.223  21.834  0.00  0.00    +0.000 A 
ATOM      5  N   UNL     1       0.057  10.361  21.577  0.00  0.00    +0.000 NA
ATOM      6  C   UNL     1       0.092  10.220  20.206  0.00  0.00    +0.000 A 
ATOM      7  C   UNL     1      -0.875  11.031  19.600  0.00  0.00    +0.000 A 
ATOM      8  N   UNL     1      -1.493  11.699  20.662  0.00  0.00    +0.000 N 
ATOM      9  C   UNL     1      -2.513  12.661  20.692  0.00  0.00    +0.000 A 
ENDROOT
BRANCH   6  10
ATOM     10  C   UNL     1       1.025   9.259  19.592  0.00  0.00    +0.000 A 
ATOM     11  C   UNL     1       1.490   9.476  18.284  0.00  0.00    +0.000 A 
ATOM     12  C   UNL     1       2.351   8.562  17.655  0.00  0.00    +0.000 A 
ATOM     13  C   UNL     1       2.772   7.422  18.332  0.00  0.00    +0.000 A 
ATOM     14 CL   UNL     1       3.803   6.279  17.568  0.00  0.00    +0.000 Cl
ATOM     15  C   UNL     1       2.344   7.194  19.629  0.00  0.00    +0.000 A 
ATOM     16  C   UNL     1       1.471   8.102  20.235  0.00  0.00    +0.000 A 
ENDBRANCH   6  10
BRANCH   1  22
ATOM     17  C   UNL     1      -5.394  14.024  22.052  0.00  0.00    +0.000 A 
ATOM     18  C   UNL     1      -6.286  15.104  21.876  0.00  0.00    +0.000 A 
ATOM     19  C   UNL     1      -5.818  16.374  21.549  0.00  0.00    +0.000 A 
ATOM     20  C   UNL     1      -4.454  16.584  21.402  0.00  0.00    +0.000 A 
ATOM     21  C   UNL     1      -3.562  15.515  21.539  0.00  0.00    +0.000 A 
ATOM     22  C   UNL     1      -4.013  14.213  21.833  0.00  0.00    +0.000 A 
BRANCH  17  24
ATOM     23  N   UNL     1      -6.022  12.444  23.792  0.00  0.00    +0.000 N 
ATOM     24  C   UNL     1      -5.969  12.706  22.447  0.00  0.00    +0.000 C 
ATOM     25  O   UNL     1      -6.378  11.887  21.638  0.00  0.00    +0.000 OA
ATOM     26  H   UNL     1      -6.361  11.534  24.076  0.00  0.00    +0.000 HD
ATOM     27  H   UNL     1      -5.578  13.021  24.493  0.00  0.00    +0.000 HD
ENDBRANCH  17  24
ENDBRANCH   1  22
BRANCH   7  28
ATOM     28  C   UNL     1      -1.387  11.092  18.184  0.00  0.00    +0.000 C 
BRANCH  28  29
ATOM     29  N   UNL     1      -2.315  10.002  17.799  0.00  0.00    +0.000 NA
ATOM     30  C   UNL     1      -2.275   9.668  16.361  0.00  0.00    +0.000 C 
ATOM     31  C   UNL     1      -2.820  10.794  15.459  0.00  0.00    +0.000 C 
ATOM     32  O   UNL     1      -4.145  11.200  15.828  0.00  0.00    +0.000 OA
ATOM     33  C   UNL     1      -4.255  11.513  17.221  0.00  0.00    +0.000 C 
ATOM     34  C   UNL     1      -3.730  10.363  18.092  0.00  0.00    +0.000 C 
ENDBRANCH  28  29
ENDBRANCH   7  28
TORSDOF 5
ENDMDL
MODEL 3
REMARK VINA RESULT:      -7.5      4.407      9.531
REMARK  Name = 
REMARK  5 active torsions:
REMARK  status: ('A' for Active; 'I' for Inactive)
REMARK    1  A    between atoms: C_2  and  C_4
REMARK    2  A    between atoms: C_9  and  C_10
REMARK    3  A    between atoms: C_15  and  C_16
REMARK    4  A    between atoms: C_23  and  C_24
REMARK    5  A    between atoms: C_24  and  N_25
REMARK                            x       y       z     vdW  Elec       q    Type
REMARK                         _______ _______ _______ _____ _____    ______ ____
ROOT
ATOM      1  C   UNL     1       2.626   5.992  19.235  0.00  0.00    +0.000 A 
ATOM      2  C   UNL     1       3.221   6.283  17.930  0.00  0.00    +0.000 A 
ATOM      3  C   UNL     1       3.134   7.508  17.367  0.00  0.00    +0.000 A 
ATOM      4  C   UNL     1       2.443   8.554  18.051  0.00  0.00    +0.000 A 
ATOM      5  N   UNL     1       2.252   9.811  17.711  0.00  0.00    +0.000 NA
ATOM      6  C   UNL     1       1.483  10.369  18.711  0.00  0.00    +0.000 A 
ATOM      7  C   UNL     1       1.200   9.423  19.703  0.00  0.00    +0.000 A 
ATOM      8  N   UNL     1       1.852   8.261  19.281  0.00  0.00    +0.000 N 
ATOM      9  C   UNL     1       1.964   6.989  19.863  0.00  0.00    +0.000 A 
ENDROOT
BRANCH   6  10
ATOM     10  C   UNL     1       1.031  11.766  18.593  0.00  0.00    +0.000 A 
ATOM     11  C   UNL     1       1.963  12.813  18.697  0.00  0.00    +0.000 A 
ATOM     12  C   UNL     1       1.562  14.157  18.626  0.00  0.00    +0.000 A 
ATOM     13  C   UNL     1       0.221  14.474  18.435  0.00  0.00    +0.000 A 
ATOM     14 CL   UNL     1      -0.292  16.114  18.373  0.00  0.00    +0.000 Cl
ATOM     15  C   UNL     1      -0.715  13.462  18.310  0.00  0.00    +0.000 A 
ATOM     16  C   UNL     1      -0.305  12.129  18.403  0.00  0.00    +0.000 A 
ENDBRANCH   6  10
BRANCH   1  22
ATOM     17  C   UNL     1       3.875   3.814  19.806  0.00  0.00    +0.000 A 
ATOM     18  C   UNL     1       3.842   2.549  20.433  0.00  0.00    +0.000 A 
ATOM     19  C   UNL     1       2.763   2.171  21.230  0.00  0.00    +0.000 A 
ATOM     20  C   UNL     1       1.710   3.054  21.419  0.00  0.00    +0.000 A 
ATOM     21  C   UNL     1       1.712   4.297  20.776  0.00  0.00    +0.000 A 
ATOM     22  C   UNL     1       2.774   4.688  19.935  0.00  0.00    +0.000 A 
BRANCH  17  24
ATOM     23  N   UNL     1       5.157   3.627  17.748  0.00  0.00    +0.000 N 
ATOM     24  C   UNL     1       5.084   4.162  19.008  0.00  0.00    +0.000 C 
ATOM     25  O   UNL     1       5.977   4.882  19.430  0.00  0.00    +0.000 OA
ATOM     26  H   UNL     1       5.994   3.811  17.211  0.00  0.00    +0.000 HD
ATOM     27  H   UNL     1       4.520   2.922  17.401  0.00  0.00    +0.000 HD
ENDBRANCH  17  24
ENDBRANCH   1  22
BRANCH   7  28
ATOM     28  C   UNL     1       0.249   9.452  20.872  0.00  0.00    +0.000 C 
BRANCH  28  29
ATOM     29  N   UNL     1       0.774  10.094  22.100  0.00  0.00    +0.000 NA
ATOM     30  C   UNL     1      -0.013   9.792  23.313  0.00  0.00    +0.000 C 
ATOM     31  C   UNL     1      -1.426  10.409  23.290  0.00  0.00    +0.000 C 
ATOM     32  O   UNL     1      -1.403  11.825  23.065  0.00  0.00    +0.000 OA
ATOM     33  C   UNL     1      -0.630  12.185  21.914  0.00  0.00    +0.000 C 
ATOM     34  C   UNL     1       0.779  11.579  21.978  0.00  0.00    +0.000 C 
ENDBRANCH  28  29
ENDBRANCH   7  28
TORSDOF 5
ENDMDL
MODEL 4
REMARK VINA RESULT:      -7.3      1.479      2.191
REMARK  Name = 
REMARK  5 active torsions:
REMARK  status: ('A' for Active; 'I' for Inactive)
REMARK    1  A    between atoms: C_2  and  C_4
REMARK    2  A    between atoms: C_9  and  C_10
REMARK    3  A    between atoms: C_15  and  C_16
REMARK    4  A    between atoms: C_23  and  C_24
REMARK    5  A    between atoms: C_24  and  N_25
REMARK                            x       y       z     vdW  Elec       q    Type
REMARK                         _______ _______ _______ _____ _____    ______ ____
ROOT
ATOM      1  C   UNL     1      -2.962  12.970  21.884  0.00  0.00    +0.000 A 
ATOM      2  C   UNL     1      -2.387  12.426  23.114  0.00  0.00    +0.000 A 
ATOM      3  C   UNL     1      -1.391  11.513  23.090  0.00  0.00    +0.000 A 
ATOM      4  C   UNL     1      -0.881  11.055  21.836  0.00  0.00    +0.000 A 
ATOM      5  N   UNL     1       0.084  10.200  21.572  0.00  0.00    +0.000 NA
ATOM      6  C   UNL     1       0.136  10.089  20.198  0.00  0.00    +0.000 A 
ATOM      7  C   UNL     1      -0.825  10.911  19.599  0.00  0.00    +0.000 A 
ATOM      8  N   UNL     1      -1.457  11.556  20.667  0.00  0.00    +0.000 N 
ATOM      9  C   UNL     1      -2.478  12.516  20.706  0.00  0.00    +0.000 A 
ENDROOT
BRANCH   6  10
ATOM     10  C   UNL     1       1.077   9.142  19.576  0.00  0.00    +0.000 A 
ATOM     11  C   UNL     1       1.549   9.382  18.274  0.00  0.00    +0.000 A 
ATOM     12  C   UNL     1       2.419   8.482  17.636  0.00  0.00    +0.000 A 
ATOM     13  C   UNL     1       2.841   7.334  18.298  0.00  0.00    +0.000 A 
ATOM     14 CL   UNL     1       3.883   6.208  17.522  0.00  0.00    +0.000 Cl
ATOM     15  C   UNL     1       2.406   7.084  19.588  0.00  0.00    +0.000 A 
ATOM     16  C   UNL     1       1.525   7.977  20.203  0.00  0.00    +0.000 A 
ENDBRANCH   6  10
BRANCH   1  22
ATOM     17  C   UNL     1      -3.740  15.413  21.645  0.00  0.00    +0.000 A 
ATOM     18  C   UNL     1      -4.792  16.348  21.765  0.00  0.00    +0.000 A 
ATOM     19  C   UNL     1      -6.093  15.932  22.034  0.00  0.00    +0.000 A 
ATOM     20  C   UNL     1      -6.364  14.578  22.177  0.00  0.00    +0.000 A 
ATOM     21  C   UNL     1      -5.326  13.644  22.095  0.00  0.00    +0.000 A 
ATOM     22  C   UNL     1      -3.994  14.042  21.861  0.00  0.00    +0.000 A 
BRANCH  17  24
ATOM     23  N   UNL     1      -2.095  16.065  19.976  0.00  0.00    +0.000 N 
ATOM     24  C   UNL     1      -2.384  15.933  21.310  0.00  0.00    +0.000 C 
ATOM     25  O   UNL     1      -1.557  16.232  22.159  0.00  0.00    +0.000 OA
ATOM     26  H   UNL     1      -1.161  16.368  19.730  0.00  0.00    +0.000 HD
ATOM     27  H   UNL     1      -2.685  15.708  19.237  0.00  0.00    +0.000 HD
ENDBRANCH  17  24
ENDBRANCH   1  22
BRANCH   7  28
ATOM     28  C   UNL     1      -1.320  11.003  18.179  0.00  0.00    +0.000 C 
BRANCH  28  29
ATOM     29  N   UNL     1      -2.288   9.955  17.777  0.00  0.00    +0.000 NA
ATOM     30  C   UNL     1      -2.293   9.673  16.327  0.00  0.00    +0.000 C 
ATOM     31  C   UNL     1      -2.825  10.846  15.481  0.00  0.00    +0.000 C 
ATOM     32  O   UNL     1      -4.129  11.276  15.898  0.00  0.00    +0.000 OA
ATOM     33  C   UNL     1      -4.197  11.540  17.303  0.00  0.00    +0.000 C 
ATOM     34  C   UNL     1      -3.685  10.344  18.119  0.00  0.00    +0.000 C 
ENDBRANCH  28  29
ENDBRANCH   7  28
TORSDOF 5
ENDMDL
MODEL 5
REMARK VINA RESULT:      -7.2      4.213      9.136
REMARK  Name = 
REMARK  5 active torsions:
REMARK  status: ('A' for Active; 'I' for Inactive)
REMARK    1  A    between atoms: C_2  and  C_4
REMARK    2  A    between atoms: C_9  and  C_10
REMARK    3  A    between atoms: C_15  and  C_16
REMARK    4  A    between atoms: C_23  and  C_24
REMARK    5  A    between atoms: C_24  and  N_25
REMARK                            x       y       z     vdW  Elec       q    Type
REMARK                         _______ _______ _______ _____ _____    ______ ____
ROOT
ATOM      1  C   UNL     1       2.599   6.886  19.013  0.00  0.00    +0.000 A 
ATOM      2  C   UNL     1       2.181   6.174  20.220  0.00  0.00    +0.000 A 
ATOM      3  C   UNL     1       1.313   6.718  21.101  0.00  0.00    +0.000 A 
ATOM      4  C   UNL     1       0.786   8.024  20.861  0.00  0.00    +0.000 A 
ATOM      5  N   UNL     1      -0.074   8.735  21.559  0.00  0.00    +0.000 NA
ATOM      6  C   UNL     1      -0.201   9.941  20.901  0.00  0.00    +0.000 A 
ATOM      7  C   UNL     1       0.604   9.967  19.756  0.00  0.00    +0.000 A 
ATOM      8  N   UNL     1       1.214   8.710  19.723  0.00  0.00    +0.000 N 
ATOM      9  C   UNL     1       2.103   8.127  18.807  0.00  0.00    +0.000 A 
ENDROOT
BRANCH   6  10
ATOM     10  C   UNL     1      -1.049  11.000  21.473  0.00  0.00    +0.000 A 
ATOM     11  C   UNL     1      -1.156  11.132  22.869  0.00  0.00    +0.000 A 
ATOM     12  C   UNL     1      -1.984  12.107  23.448  0.00  0.00    +0.000 A 
ATOM     13  C   UNL     1      -2.707  12.977  22.639  0.00  0.00    +0.000 A 
ATOM     14 CL   UNL     1      -3.747  14.158  23.331  0.00  0.00    +0.000 Cl
ATOM     15  C   UNL     1      -2.605  12.881  21.262  0.00  0.00    +0.000 A 
ATOM     16  C   UNL     1      -1.793  11.894  20.698  0.00  0.00    +0.000 A 
ENDBRANCH   6  10
BRANCH   1  22
ATOM     17  C   UNL     1       3.372   4.979  17.464  0.00  0.00    +0.000 A 
ATOM     18  C   UNL     1       4.342   4.496  16.559  0.00  0.00    +0.000 A 
ATOM     19  C   UNL     1       5.374   5.316  16.108  0.00  0.00    +0.000 A 
ATOM     20  C   UNL     1       5.444   6.631  16.546  0.00  0.00    +0.000 A 
ATOM     21  C   UNL     1       4.510   7.113  17.469  0.00  0.00    +0.000 A 
ATOM     22  C   UNL     1       3.479   6.293  17.970  0.00  0.00    +0.000 A 
BRANCH  17  24
ATOM     23  N   UNL     1       2.608   3.054  18.739  0.00  0.00    +0.000 N 
ATOM     24  C   UNL     1       2.273   4.055  17.863  0.00  0.00    +0.000 C 
ATOM     25  O   UNL     1       1.129   4.161  17.448  0.00  0.00    +0.000 OA
ATOM     26  H   UNL     1       1.886   2.387  18.981  0.00  0.00    +0.000 HD
ATOM     27  H   UNL     1       3.558   2.839  19.006  0.00  0.00    +0.000 HD
ENDBRANCH  17  24
ENDBRANCH   1  22
BRANCH   7  28
ATOM     28  C   UNL     1       0.988  11.089  18.827  0.00  0.00    +0.000 C 
BRANCH  28  29
ATOM     29  N   UNL     1       2.183  11.867  19.234  0.00  0.00    +0.000 NA
ATOM     30  C   UNL     1       1.956  12.738  20.405  0.00  0.00    +0.000 C 
ATOM     31  C   UNL     1       0.984  13.900  20.119  0.00  0.00    +0.000 C 
ATOM     32  O   UNL     1       1.392  14.692  18.995  0.00  0.00    +0.000 OA
ATOM     33  C   UNL     1       1.654  13.899  17.831  0.00  0.00    +0.000 C 
ATOM     34  C   UNL     1       2.644  12.768  18.141  0.00  0.00    +0.000 C 
ENDBRANCH  28  29
ENDBRANCH   7  28
TORSDOF 5
ENDMDL
MODEL 6
REMARK VINA RESULT:      -7.2      4.439      9.358
REMARK  Name = 
REMARK  5 active torsions:
REMARK  status: ('A' for Active; 'I' for Inactive)
REMARK    1  A    between atoms: C_2  and  C_4
REMARK    2  A    between atoms: C_9  and  C_10
REMARK    3  A    between atoms: C_15  and  C_16
REMARK    4  A    between atoms: C_23  and  C_24
REMARK    5  A    between atoms: C_24  and  N_25
REMARK                            x       y       z     vdW  Elec       q    Type
REMARK                         _______ _______ _______ _____ _____    ______ ____
ROOT
ATOM      1  C   UNL     1       2.417   6.228  19.098  0.00  0.00    +0.000 A 
ATOM      2  C   UNL     1       2.742   6.393  17.682  0.00  0.00    +0.000 A 
ATOM      3  C   UNL     1       2.737   7.607  17.089  0.00  0.00    +0.000 A 
ATOM      4  C   UNL     1       2.405   8.767  17.853  0.00  0.00    +0.000 A 
ATOM      5  N   UNL     1       2.356  10.034  17.499  0.00  0.00    +0.000 NA
ATOM      6  C   UNL     1       1.938  10.731  18.613  0.00  0.00    +0.000 A 
ATOM      7  C   UNL     1       1.732   9.861  19.691  0.00  0.00    +0.000 A 
ATOM      8  N   UNL     1       2.067   8.597  19.197  0.00  0.00    +0.000 N 
ATOM      9  C   UNL     1       2.091   7.333  19.805  0.00  0.00    +0.000 A 
ENDROOT
BRANCH   6  10
ATOM     10  C   UNL     1       1.712  12.183  18.526  0.00  0.00    +0.000 A 
ATOM     11  C   UNL     1       2.802  13.048  18.322  0.00  0.00    +0.000 A 
ATOM     12  C   UNL     1       2.628  14.441  18.271  0.00  0.00    +0.000 A 
ATOM     13  C   UNL     1       1.357  14.989  18.406  0.00  0.00    +0.000 A 
ATOM     14 CL   UNL     1       1.129  16.693  18.373  0.00  0.00    +0.000 Cl
ATOM     15  C   UNL     1       0.264  14.159  18.588  0.00  0.00    +0.000 A 
ATOM     16  C   UNL     1       0.454  12.776  18.658  0.00  0.00    +0.000 A 
ENDBRANCH   6  10
BRANCH   1  22
ATOM     17  C   UNL     1       3.620   4.071  19.828  0.00  0.00    +0.000 A 
ATOM     18  C   UNL     1       3.530   2.806  20.449  0.00  0.00    +0.000 A 
ATOM     19  C   UNL     1       2.367   2.411  21.106  0.00  0.00    +0.000 A 
ATOM     20  C   UNL     1       1.283   3.276  21.159  0.00  0.00    +0.000 A 
ATOM     21  C   UNL     1       1.346   4.518  20.518  0.00  0.00    +0.000 A 
ATOM     22  C   UNL     1       2.498   4.926  19.815  0.00  0.00    +0.000 A 
BRANCH  17  24
ATOM     23  N   UNL     1       5.228   3.778  18.026  0.00  0.00    +0.000 N 
ATOM     24  C   UNL     1       4.914   4.438  19.186  0.00  0.00    +0.000 C 
ATOM     25  O   UNL     1       5.672   5.278  19.648  0.00  0.00    +0.000 OA
ATOM     26  H   UNL     1       6.125   3.978  17.605  0.00  0.00    +0.000 HD
ATOM     27  H   UNL     1       4.707   2.985  17.675  0.00  0.00    +0.000 HD
ENDBRANCH  17  24
ENDBRANCH   1  22
BRANCH   7  28
ATOM     28  C   UNL     1       1.088  10.071  21.037  0.00  0.00    +0.000 C 
BRANCH  28  29
ATOM     29  N   UNL     1      -0.371   9.814  21.089  0.00  0.00    +0.000 NA
ATOM     30  C   UNL     1      -1.191  11.042  21.114  0.00  0.00    +0.000 C 
ATOM     31  C   UNL     1      -1.032  11.853  22.416  0.00  0.00    +0.000 C 
ATOM     32  O   UNL     1      -1.295  11.067  23.587  0.00  0.00    +0.000 OA
ATOM     33  C   UNL     1      -0.546   9.847  23.608  0.00  0.00    +0.000 C 
ATOM     34  C   UNL     1      -0.746   9.050  22.312  0.00  0.00    +0.000 C 
ENDBRANCH  28  29
ENDBRANCH   7  28
TORSDOF 5
ENDMDL
MODEL 7
REMARK VINA RESULT:      -7.1      1.565      2.093
REMARK  Name = 
REMARK  5 active torsions:
REMARK  status: ('A' for Active; 'I' for Inactive)
REMARK    1  A    between atoms: C_2  and  C_4
REMARK    2  A    between atoms: C_9  and  C_10
REMARK    3  A    between atoms: C_15  and  C_16
REMARK    4  A    between atoms: C_23  and  C_24
REMARK    5  A    between atoms: C_24  and  N_25
REMARK                            x       y       z     vdW  Elec       q    Type
REMARK                         _______ _______ _______ _____ _____    ______ ____
ROOT
ATOM      1  C   UNL     1      -2.674  12.637  22.151  0.00  0.00    +0.000 A 
ATOM      2  C   UNL     1      -2.067  11.991  23.315  0.00  0.00    +0.000 A 
ATOM      3  C   UNL     1      -1.090  11.067  23.186  0.00  0.00    +0.000 A 
ATOM      4  C   UNL     1      -0.630  10.701  21.884  0.00  0.00    +0.000 A 
ATOM      5  N   UNL     1       0.310   9.853  21.522  0.00  0.00    +0.000 NA
ATOM      6  C   UNL     1       0.314   9.848  20.142  0.00  0.00    +0.000 A 
ATOM      7  C   UNL     1      -0.652  10.730  19.642  0.00  0.00    +0.000 A 
ATOM      8  N   UNL     1      -1.235  11.299  20.778  0.00  0.00    +0.000 N 
ATOM      9  C   UNL     1      -2.238  12.269  20.926  0.00  0.00    +0.000 A 
ENDROOT
BRANCH   6  10
ATOM     10  C   UNL     1       1.216   8.939  19.417  0.00  0.00    +0.000 A 
ATOM     11  C   UNL     1       1.782   7.838  20.084  0.00  0.00    +0.000 A 
ATOM     12  C   UNL     1       2.675   6.971  19.434  0.00  0.00    +0.000 A 
ATOM     13  C   UNL     1       3.005   7.183  18.099  0.00  0.00    +0.000 A 
ATOM     14 CL   UNL     1       4.117   6.148  17.295  0.00  0.00    +0.000 Cl
ATOM     15  C   UNL     1       2.446   8.248  17.413  0.00  0.00    +0.000 A 
ATOM     16  C   UNL     1       1.575   9.115  18.078  0.00  0.00    +0.000 A 
ENDBRANCH   6  10
BRANCH   1  22
ATOM     17  C   UNL     1      -3.400  15.086  22.478  0.00  0.00    +0.000 A 
ATOM     18  C   UNL     1      -4.458  16.002  22.665  0.00  0.00    +0.000 A 
ATOM     19  C   UNL     1      -5.786  15.594  22.565  0.00  0.00    +0.000 A 
ATOM     20  C   UNL     1      -6.075  14.269  22.268  0.00  0.00    +0.000 A 
ATOM     21  C   UNL     1      -5.037  13.344  22.114  0.00  0.00    +0.000 A 
ATOM     22  C   UNL     1      -3.686  13.724  22.247  0.00  0.00    +0.000 A 
BRANCH  17  24
ATOM     23  N   UNL     1      -1.466  16.076  21.384  0.00  0.00    +0.000 N 
ATOM     24  C   UNL     1      -2.007  15.610  22.554  0.00  0.00    +0.000 C 
ATOM     25  O   UNL     1      -1.360  15.634  23.591  0.00  0.00    +0.000 OA
ATOM     26  H   UNL     1      -0.504  16.387  21.407  0.00  0.00    +0.000 HD
ATOM     27  H   UNL     1      -1.901  15.956  20.479  0.00  0.00    +0.000 HD
ENDBRANCH  17  24
ENDBRANCH   1  22
BRANCH   7  28
ATOM     28  C   UNL     1      -1.191  10.939  18.251  0.00  0.00    +0.000 C 
BRANCH  28  29
ATOM     29  N   UNL     1      -2.134   9.899  17.775  0.00  0.00    +0.000 NA
ATOM     30  C   UNL     1      -2.188   9.773  16.304  0.00  0.00    +0.000 C 
ATOM     31  C   UNL     1      -2.801  11.005  15.610  0.00  0.00    +0.000 C 
ATOM     32  O   UNL     1      -4.102  11.331  16.119  0.00  0.00    +0.000 OA
ATOM     33  C   UNL     1      -4.121  11.442  17.546  0.00  0.00    +0.000 C 
ATOM     34  C   UNL     1      -3.530  10.190  18.208  0.00  0.00    +0.000 C 
ENDBRANCH  28  29
ENDBRANCH   7  28
TORSDOF 5
ENDMDL
MODEL 8
REMARK VINA RESULT:      -6.9      4.289      9.358
REMARK  Name = 
REMARK  5 active torsions:
REMARK  status: ('A' for Active; 'I' for Inactive)
REMARK    1  A    between atoms: C_2  and  C_4
REMARK    2  A    between atoms: C_9  and  C_10
REMARK    3  A    between atoms: C_15  and  C_16
REMARK    4  A    between atoms: C_23  and  C_24
REMARK    5  A    between atoms: C_24  and  N_25
REMARK                            x       y       z     vdW  Elec       q    Type
REMARK                         _______ _______ _______ _____ _____    ______ ____
ROOT
ATOM      1  C   UNL     1       2.479   6.048  19.026  0.00  0.00    +0.000 A 
ATOM      2  C   UNL     1       3.191   6.335  17.781  0.00  0.00    +0.000 A 
ATOM      3  C   UNL     1       3.254   7.585  17.271  0.00  0.00    +0.000 A 
ATOM      4  C   UNL     1       2.609   8.662  17.954  0.00  0.00    +0.000 A 
ATOM      5  N   UNL     1       2.555   9.943  17.660  0.00  0.00    +0.000 NA
ATOM      6  C   UNL     1       1.766  10.528  18.629  0.00  0.00    +0.000 A 
ATOM      7  C   UNL     1       1.329   9.573  19.554  0.00  0.00    +0.000 A 
ATOM      8  N   UNL     1       1.906   8.374  19.124  0.00  0.00    +0.000 N 
ATOM      9  C   UNL     1       1.862   7.075  19.652  0.00  0.00    +0.000 A 
ENDROOT
BRANCH   6  10
ATOM     10  C   UNL     1       1.448  11.964  18.545  0.00  0.00    +0.000 A 
ATOM     11  C   UNL     1       2.489  12.906  18.463  0.00  0.00    +0.000 A 
ATOM     12  C   UNL     1       2.223  14.284  18.419  0.00  0.00    +0.000 A 
ATOM     13  C   UNL     1       0.910  14.741  18.440  0.00  0.00    +0.000 A 
ATOM     14 CL   UNL     1       0.566  16.426  18.414  0.00  0.00    +0.000 Cl
ATOM     15  C   UNL     1      -0.134  13.834  18.500  0.00  0.00    +0.000 A 
ATOM     16  C   UNL     1       0.145  12.466  18.564  0.00  0.00    +0.000 A 
ENDBRANCH   6  10
BRANCH   1  22
ATOM     17  C   UNL     1       2.651   3.478  19.007  0.00  0.00    +0.000 A 
ATOM     18  C   UNL     1       2.491   2.267  19.714  0.00  0.00    +0.000 A 
ATOM     19  C   UNL     1       2.208   2.264  21.078  0.00  0.00    +0.000 A 
ATOM     20  C   UNL     1       2.089   3.470  21.755  0.00  0.00    +0.000 A 
ATOM     21  C   UNL     1       2.210   4.678  21.060  0.00  0.00    +0.000 A 
ATOM     22  C   UNL     1       2.459   4.708  19.673  0.00  0.00    +0.000 A 
BRANCH  17  24
ATOM     23  N   UNL     1       4.331   3.270  17.260  0.00  0.00    +0.000 N 
ATOM     24  C   UNL     1       2.999   3.397  17.560  0.00  0.00    +0.000 C 
ATOM     25  O   UNL     1       2.162   3.439  16.670  0.00  0.00    +0.000 OA
ATOM     26  H   UNL     1       4.589   3.265  16.282  0.00  0.00    +0.000 HD
ATOM     27  H   UNL     1       5.070   3.366  17.943  0.00  0.00    +0.000 HD
ENDBRANCH  17  24
ENDBRANCH   1  22
BRANCH   7  28
ATOM     28  C   UNL     1       0.301   9.640  20.653  0.00  0.00    +0.000 C 
BRANCH  28  29
ATOM     29  N   UNL     1       0.713  10.395  21.860  0.00  0.00    +0.000 NA
ATOM     30  C   UNL     1       0.305   9.757  23.129  0.00  0.00    +0.000 C 
ATOM     31  C   UNL     1      -1.221   9.752  23.344  0.00  0.00    +0.000 C 
ATOM     32  O   UNL     1      -1.792  11.065  23.253  0.00  0.00    +0.000 OA
ATOM     33  C   UNL     1      -1.411  11.748  22.053  0.00  0.00    +0.000 C 
ATOM     34  C   UNL     1       0.114  11.759  21.881  0.00  0.00    +0.000 C 
ENDBRANCH  28  29
ENDBRANCH   7  28
TORSDOF 5
ENDMDL
MODEL 9
REMARK VINA RESULT:      -6.9      1.711      2.281
REMARK  Name = 
REMARK  5 active torsions:
REMARK  status: ('A' for Active; 'I' for Inactive)
REMARK    1  A    between atoms: C_2  and  C_4
REMARK    2  A    between atoms: C_9  and  C_10
REMARK    3  A    between atoms: C_15  and  C_16
REMARK    4  A    between atoms: C_23  and  C_24
REMARK    5  A    between atoms: C_24  and  N_25
REMARK                            x       y       z     vdW  Elec       q    Type
REMARK                         _______ _______ _______ _____ _____    ______ ____
ROOT
ATOM      1  C   UNL     1      -3.014  13.817  21.847  0.00  0.00    +0.000 A 
ATOM      2  C   UNL     1      -2.356  13.370  23.074  0.00  0.00    +0.000 A 
ATOM      3  C   UNL     1      -1.379  12.436  23.058  0.00  0.00    +0.000 A 
ATOM      4  C   UNL     1      -0.973  11.859  21.816  0.00  0.00    +0.000 A 
ATOM      5  N   UNL     1      -0.045  10.963  21.559  0.00  0.00    +0.000 NA
ATOM      6  C   UNL     1      -0.098  10.730  20.200  0.00  0.00    +0.000 A 
ATOM      7  C   UNL     1      -1.089  11.519  19.603  0.00  0.00    +0.000 A 
ATOM      8  N   UNL     1      -1.627  12.268  20.653  0.00  0.00    +0.000 N 
ATOM      9  C   UNL     1      -2.628  13.251  20.681  0.00  0.00    +0.000 A 
ENDROOT
BRANCH   6  10
ATOM     10  C   UNL     1       0.778   9.712  19.597  0.00  0.00    +0.000 A 
ATOM     11  C   UNL     1       1.205   8.615  20.366  0.00  0.00    +0.000 A 
ATOM     12  C   UNL     1       2.070   7.644  19.834  0.00  0.00    +0.000 A 
ATOM     13  C   UNL     1       2.510   7.749  18.519  0.00  0.00    +0.000 A 
ATOM     14 CL   UNL     1       3.590   6.585  17.860  0.00  0.00    +0.000 Cl
ATOM     15  C   UNL     1       2.088   8.809  17.734  0.00  0.00    +0.000 A 
ATOM     16  C   UNL     1       1.243   9.778  18.281  0.00  0.00    +0.000 A 
ENDBRANCH   6  10
BRANCH   1  22
ATOM     17  C   UNL     1      -3.756  16.262  21.525  0.00  0.00    +0.000 A 
ATOM     18  C   UNL     1      -4.788  17.220  21.632  0.00  0.00    +0.000 A 
ATOM     19  C   UNL     1      -6.089  16.839  21.950  0.00  0.00    +0.000 A 
ATOM     20  C   UNL     1      -6.379  15.498  22.157  0.00  0.00    +0.000 A 
ATOM     21  C   UNL     1      -5.359  14.542  22.089  0.00  0.00    +0.000 A 
ATOM     22  C   UNL     1      -4.027  14.906  21.805  0.00  0.00    +0.000 A 
BRANCH  17  24
ATOM     23  N   UNL     1      -1.593  17.182  22.152  0.00  0.00    +0.000 N 
ATOM     24  C   UNL     1      -2.400  16.743  21.134  0.00  0.00    +0.000 C 
ATOM     25  O   UNL     1      -2.005  16.755  19.978  0.00  0.00    +0.000 OA
ATOM     26  H   UNL     1      -0.689  17.559  21.900  0.00  0.00    +0.000 HD
ATOM     27  H   UNL     1      -1.914  17.319  23.101  0.00  0.00    +0.000 HD
ENDBRANCH  17  24
ENDBRANCH   1  22
BRANCH   7  28
ATOM     28  C   UNL     1      -1.688  11.496  18.220  0.00  0.00    +0.000 C 
BRANCH  28  29
ATOM     29  N   UNL     1      -2.418  10.256  17.867  0.00  0.00    +0.000 NA
ATOM     30  C   UNL     1      -2.215   9.823  16.469  0.00  0.00    +0.000 C 
ATOM     31  C   UNL     1      -2.837  10.785  15.438  0.00  0.00    +0.000 C 
ATOM     32  O   UNL     1      -4.232  11.018  15.677  0.00  0.00    +0.000 OA
ATOM     33  C   UNL     1      -4.498  11.417  17.026  0.00  0.00    +0.000 C 
ATOM     34  C   UNL     1      -3.890  10.426  18.029  0.00  0.00    +0.000 C 
ENDBRANCH  28  29
ENDBRANCH   7  28
TORSDOF 5
ENDMDL
