MODEL 1
REMARK VINA RESULT:      -8.5      0.000      0.000
REMARK  Name = 
REMARK  6 active torsions:
REMARK  status: ('A' for Active; 'I' for Inactive)
REMARK    1  A    between atoms: C_1  and  O_2
REMARK    2  A    between atoms: O_2  and  C_3
REMARK    3  A    between atoms: C_6  and  C_7
REMARK    4  A    between atoms: C_12  and  O_13
REMARK    5  A    between atoms: O_13  and  C_14
REMARK    6  A    between atoms: C_14  and  C_15
REMARK                            x       y       z     vdW  Elec       q    Type
REMARK                         _______ _______ _______ _____ _____    ______ ____
ROOT
ATOM      1  C   UNL     1       2.040   7.933  19.027  0.00  0.00    +0.000 A 
ATOM      2  C   UNL     1       1.712   7.779  20.323  0.00  0.00    +0.000 A 
ATOM      3  C   UNL     1       0.955   8.791  21.041  0.00  0.00    +0.000 A 
ATOM      4  C   UNL     1       0.788   8.753  22.423  0.00  0.00    +0.000 A 
ATOM      5  C   UNL     1       0.006   9.724  23.052  0.00  0.00    +0.000 A 
ATOM      6  C   UNL     1      -0.623  10.732  22.311  0.00  0.00    +0.000 A 
ATOM      7  C   UNL     1      -0.457  10.772  20.928  0.00  0.00    +0.000 A 
ATOM      8  C   UNL     1       0.353   9.810  20.319  0.00  0.00    +0.000 A 
ATOM      9  O   UNL     1       0.590   9.930  18.940  0.00  0.00    +0.000 OA
ATOM     10  C   UNL     1       1.588   9.181  18.321  0.00  0.00    +0.000 A 
ATOM     11  O   UNL     1       2.036   9.524  17.233  0.00  0.00    +0.000 OA
ENDROOT
BRANCH   1  15
ATOM     12  C   UNL     1       4.345   4.844  17.041  0.00  0.00    +0.000 A 
ATOM     13  C   UNL     1       3.120   4.546  17.635  0.00  0.00    +0.000 A 
ATOM     14  C   UNL     1       2.366   5.545  18.267  0.00  0.00    +0.000 A 
ATOM     15  C   UNL     1       2.822   6.871  18.326  0.00  0.00    +0.000 A 
ATOM     16  C   UNL     1       4.053   7.153  17.709  0.00  0.00    +0.000 A 
ATOM     17  C   UNL     1       4.814   6.153  17.086  0.00  0.00    +0.000 A 
BRANCH  12  19
ATOM     18  C   UNL     1       6.000   4.100  15.522  0.00  0.00    +0.000 C 
ATOM     19  O   UNL     1       5.008   3.783  16.492  0.00  0.00    +0.000 OA
ENDBRANCH  12  19
ENDBRANCH   1  15
BRANCH   6  20
ATOM     20  O   UNL     1      -1.395  11.581  23.051  0.00  0.00    +0.000 OA
BRANCH  20  21
ATOM     21  C   UNL     1      -2.290  12.436  22.331  0.00  0.00    +0.000 C 
BRANCH  21  22
ATOM     22  C   UNL     1      -3.656  12.383  22.923  0.00  0.00    +0.000 A 
ATOM     23  N   UNL     1      -4.790  12.531  22.166  0.00  0.00    +0.000 NA
ATOM     24  N   UNL     1      -5.814  12.417  23.001  0.00  0.00    +0.000 NA
ATOM     25  N   UNL     1      -5.257  12.206  24.199  0.00  0.00    +0.000 N 
ATOM     26  N   UNL     1      -3.916  12.191  24.230  0.00  0.00    +0.000 NA
ATOM     27  H   UNL     1      -5.824  12.070  25.033  0.00  0.00    +0.000 HD
ENDBRANCH  21  22
ENDBRANCH  20  21
ENDBRANCH   6  20
TORSDOF 5
ENDMDL
MODEL 2
REMARK VINA RESULT:      -8.4      6.663     10.127
REMARK  Name = 
REMARK  6 active torsions:
REMARK  status: ('A' for Active; 'I' for Inactive)
REMARK    1  A    between atoms: C_1  and  O_2
REMARK    2  A    between atoms: O_2  and  C_3
REMARK    3  A    between atoms: C_6  and  C_7
REMARK    4  A    between atoms: C_12  and  O_13
REMARK    5  A    between atoms: O_13  and  C_14
REMARK    6  A    between atoms: C_14  and  C_15
REMARK                            x       y       z     vdW  Elec       q    Type
REMARK                         _______ _______ _______ _____ _____    ______ ____
ROOT
ATOM      1  C   UNL     1       1.630   8.363  19.798  0.00  0.00    +0.000 A 
ATOM      2  C   UNL     1       2.158   7.205  20.236  0.00  0.00    +0.000 A 
ATOM      3  C   UNL     1       2.927   6.339  19.358  0.00  0.00    +0.000 A 
ATOM      4  C   UNL     1       3.299   5.049  19.727  0.00  0.00    +0.000 A 
ATOM      5  C   UNL     1       4.083   4.282  18.863  0.00  0.00    +0.000 A 
ATOM      6  C   UNL     1       4.509   4.795  17.632  0.00  0.00    +0.000 A 
ATOM      7  C   UNL     1       4.139   6.086  17.261  0.00  0.00    +0.000 A 
ATOM      8  C   UNL     1       3.329   6.828  18.125  0.00  0.00    +0.000 A 
ATOM      9  O   UNL     1       2.882   8.084  17.686  0.00  0.00    +0.000 OA
ATOM     10  C   UNL     1       1.868   8.757  18.367  0.00  0.00    +0.000 A 
ATOM     11  O   UNL     1       1.238   9.650  17.813  0.00  0.00    +0.000 OA
ENDROOT
BRANCH   1  15
ATOM     12  C   UNL     1      -0.606  10.862  22.546  0.00  0.00    +0.000 A 
ATOM     13  C   UNL     1       0.075  11.424  21.467  0.00  0.00    +0.000 A 
ATOM     14  C   UNL     1       0.788  10.617  20.570  0.00  0.00    +0.000 A 
ATOM     15  C   UNL     1       0.844   9.224  20.731  0.00  0.00    +0.000 A 
ATOM     16  C   UNL     1       0.140   8.676  21.818  0.00  0.00    +0.000 A 
ATOM     17  C   UNL     1      -0.565   9.483  22.723  0.00  0.00    +0.000 A 
BRANCH  12  19
ATOM     18  C   UNL     1      -1.160  13.119  22.995  0.00  0.00    +0.000 C 
ATOM     19  O   UNL     1      -1.231  11.749  23.376  0.00  0.00    +0.000 OA
ENDBRANCH  12  19
ENDBRANCH   1  15
BRANCH   6  20
ATOM     20  O   UNL     1       5.311   3.953  16.914  0.00  0.00    +0.000 OA
BRANCH  20  21
ATOM     21  C   UNL     1       6.658   4.380  16.684  0.00  0.00    +0.000 C 
BRANCH  21  22
ATOM     22  C   UNL     1       6.904   4.581  15.229  0.00  0.00    +0.000 A 
ATOM     23  N   UNL     1       6.275   3.830  14.268  0.00  0.00    +0.000 NA
ATOM     24  N   UNL     1       6.712   4.278  13.099  0.00  0.00    +0.000 NA
ATOM     25  N   UNL     1       7.564   5.263  13.407  0.00  0.00    +0.000 N 
ATOM     26  N   UNL     1       7.748   5.495  14.715  0.00  0.00    +0.000 NA
ATOM     27  H   UNL     1       8.044   5.796  12.685  0.00  0.00    +0.000 HD
ENDBRANCH  21  22
ENDBRANCH  20  21
ENDBRANCH   6  20
TORSDOF 5
ENDMDL
MODEL 3
REMARK VINA RESULT:      -8.4      6.363      9.969
REMARK  Name = 
REMARK  6 active torsions:
REMARK  status: ('A' for Active; 'I' for Inactive)
REMARK    1  A    between atoms: C_1  and  O_2
REMARK    2  A    between atoms: O_2  and  C_3
REMARK    3  A    between atoms: C_6  and  C_7
REMARK    4  A    between atoms: C_12  and  O_13
REMARK    5  A    between atoms: O_13  and  C_14
REMARK    6  A    between atoms: C_14  and  C_15
REMARK                            x       y       z     vdW  Elec       q    Type
REMARK                         _______ _______ _______ _____ _____    ______ ____
ROOT
ATOM      1  C   UNL     1       1.166   8.866  20.120  0.00  0.00    +0.000 A 
ATOM      2  C   UNL     1       1.626   7.708  20.627  0.00  0.00    +0.000 A 
ATOM      3  C   UNL     1       2.359   6.758  19.807  0.00  0.00    +0.000 A 
ATOM      4  C   UNL     1       2.658   5.471  20.249  0.00  0.00    +0.000 A 
ATOM      5  C   UNL     1       3.411   4.619  19.438  0.00  0.00    +0.000 A 
ATOM      6  C   UNL     1       3.880   5.044  18.188  0.00  0.00    +0.000 A 
ATOM      7  C   UNL     1       3.582   6.331  17.745  0.00  0.00    +0.000 A 
ATOM      8  C   UNL     1       2.802   7.159  18.556  0.00  0.00    +0.000 A 
ATOM      9  O   UNL     1       2.427   8.412  18.046  0.00  0.00    +0.000 OA
ATOM     10  C   UNL     1       1.442   9.171  18.674  0.00  0.00    +0.000 A 
ATOM     11  O   UNL     1       0.866  10.066  18.065  0.00  0.00    +0.000 OA
ENDROOT
BRANCH   1  15
ATOM     12  C   UNL     1      -0.967  11.626  22.696  0.00  0.00    +0.000 A 
ATOM     13  C   UNL     1      -0.345  12.075  21.533  0.00  0.00    +0.000 A 
ATOM     14  C   UNL     1       0.334  11.183  20.691  0.00  0.00    +0.000 A 
ATOM     15  C   UNL     1       0.414   9.815  20.995  0.00  0.00    +0.000 A 
ATOM     16  C   UNL     1      -0.231   9.381  22.166  0.00  0.00    +0.000 A 
ATOM     17  C   UNL     1      -0.902  10.273  23.015  0.00  0.00    +0.000 A 
BRANCH  12  19
ATOM     18  C   UNL     1      -2.982  12.527  23.550  0.00  0.00    +0.000 C 
ATOM     19  O   UNL     1      -1.563  12.591  23.458  0.00  0.00    +0.000 OA
ENDBRANCH  12  19
ENDBRANCH   1  15
BRANCH   6  20
ATOM     20  O   UNL     1       4.644   4.125  17.528  0.00  0.00    +0.000 OA
BRANCH  20  21
ATOM     21  C   UNL     1       6.055   4.367  17.484  0.00  0.00    +0.000 C 
BRANCH  21  22
ATOM     22  C   UNL     1       6.508   4.576  16.081  0.00  0.00    +0.000 A 
ATOM     23  N   UNL     1       7.363   5.589  15.729  0.00  0.00    +0.000 NA
ATOM     24  N   UNL     1       7.563   5.472  14.423  0.00  0.00    +0.000 NA
ATOM     25  N   UNL     1       6.835   4.410  14.059  0.00  0.00    +0.000 N 
ATOM     26  N   UNL     1       6.136   3.812  15.036  0.00  0.00    +0.000 NA
ATOM     27  H   UNL     1       6.814   4.084  13.095  0.00  0.00    +0.000 HD
ENDBRANCH  21  22
ENDBRANCH  20  21
ENDBRANCH   6  20
TORSDOF 5
ENDMDL
MODEL 4
REMARK VINA RESULT:      -8.3      6.414      9.926
REMARK  Name = 
REMARK  6 active torsions:
REMARK  status: ('A' for Active; 'I' for Inactive)
REMARK    1  A    between atoms: C_1  and  O_2
REMARK    2  A    between atoms: O_2  and  C_3
REMARK    3  A    between atoms: C_6  and  C_7
REMARK    4  A    between atoms: C_12  and  O_13
REMARK    5  A    between atoms: O_13  and  C_14
REMARK    6  A    between atoms: C_14  and  C_15
REMARK                            x       y       z     vdW  Elec       q    Type
REMARK                         _______ _______ _______ _____ _____    ______ ____
ROOT
ATOM      1  C   UNL     1       1.227   8.805  20.124  0.00  0.00    +0.000 A 
ATOM      2  C   UNL     1       1.681   7.635  20.609  0.00  0.00    +0.000 A 
ATOM      3  C   UNL     1       2.407   6.695  19.772  0.00  0.00    +0.000 A 
ATOM      4  C   UNL     1       2.698   5.399  20.190  0.00  0.00    +0.000 A 
ATOM      5  C   UNL     1       3.445   4.557  19.363  0.00  0.00    +0.000 A 
ATOM      6  C   UNL     1       3.914   5.001  18.121  0.00  0.00    +0.000 A 
ATOM      7  C   UNL     1       3.624   6.297  17.701  0.00  0.00    +0.000 A 
ATOM      8  C   UNL     1       2.850   7.116  18.527  0.00  0.00    +0.000 A 
ATOM      9  O   UNL     1       2.482   8.380  18.040  0.00  0.00    +0.000 OA
ATOM     10  C   UNL     1       1.502   9.134  18.683  0.00  0.00    +0.000 A 
ATOM     11  O   UNL     1       0.931  10.042  18.091  0.00  0.00    +0.000 OA
ENDROOT
BRANCH   1  15
ATOM     12  C   UNL     1      -0.985  11.522  22.678  0.00  0.00    +0.000 A 
ATOM     13  C   UNL     1      -0.841  10.180  23.024  0.00  0.00    +0.000 A 
ATOM     14  C   UNL     1      -0.115   9.302  22.207  0.00  0.00    +0.000 A 
ATOM     15  C   UNL     1       0.482   9.743  21.017  0.00  0.00    +0.000 A 
ATOM     16  C   UNL     1       0.336  11.104  20.693  0.00  0.00    +0.000 A 
ATOM     17  C   UNL     1      -0.398  11.981  21.504  0.00  0.00    +0.000 A 
BRANCH  12  19
ATOM     18  C   UNL     1      -1.546  13.681  23.471  0.00  0.00    +0.000 C 
ATOM     19  O   UNL     1      -1.746  12.273  23.530  0.00  0.00    +0.000 OA
ENDBRANCH  12  19
ENDBRANCH   1  15
BRANCH   6  20
ATOM     20  O   UNL     1       4.672   4.089  17.443  0.00  0.00    +0.000 OA
BRANCH  20  21
ATOM     21  C   UNL     1       6.086   4.311  17.420  0.00  0.00    +0.000 C 
BRANCH  21  22
ATOM     22  C   UNL     1       6.552   4.586  16.032  0.00  0.00    +0.000 A 
ATOM     23  N   UNL     1       6.107   3.867  14.953  0.00  0.00    +0.000 NA
ATOM     24  N   UNL     1       6.708   4.381  13.888  0.00  0.00    +0.000 NA
ATOM     25  N   UNL     1       7.470   5.370  14.370  0.00  0.00    +0.000 N 
ATOM     26  N   UNL     1       7.438   5.544  15.700  0.00  0.00    +0.000 NA
ATOM     27  H   UNL     1       8.041   5.949  13.758  0.00  0.00    +0.000 HD
ENDBRANCH  21  22
ENDBRANCH  20  21
ENDBRANCH   6  20
TORSDOF 5
ENDMDL
MODEL 5
REMARK VINA RESULT:      -8.3      0.407      1.022
REMARK  Name = 
REMARK  6 active torsions:
REMARK  status: ('A' for Active; 'I' for Inactive)
REMARK    1  A    between atoms: C_1  and  O_2
REMARK    2  A    between atoms: O_2  and  C_3
REMARK    3  A    between atoms: C_6  and  C_7
REMARK    4  A    between atoms: C_12  and  O_13
REMARK    5  A    between atoms: O_13  and  C_14
REMARK    6  A    between atoms: C_14  and  C_15
REMARK                            x       y       z     vdW  Elec       q    Type
REMARK                         _______ _______ _______ _____ _____    ______ ____
ROOT
ATOM      1  C   UNL     1       1.904   8.059  19.152  0.00  0.00    +0.000 A 
ATOM      2  C   UNL     1       1.556   7.924  20.445  0.00  0.00    +0.000 A 
ATOM      3  C   UNL     1       0.795   8.950  21.139  0.00  0.00    +0.000 A 
ATOM      4  C   UNL     1       0.608   8.930  22.519  0.00  0.00    +0.000 A 
ATOM      5  C   UNL     1      -0.178   9.913  23.124  0.00  0.00    +0.000 A 
ATOM      6  C   UNL     1      -0.790  10.915  22.361  0.00  0.00    +0.000 A 
ATOM      7  C   UNL     1      -0.605  10.936  20.980  0.00  0.00    +0.000 A 
ATOM      8  C   UNL     1       0.209   9.963  20.395  0.00  0.00    +0.000 A 
ATOM      9  O   UNL     1       0.467  10.064  19.019  0.00  0.00    +0.000 OA
ATOM     10  C   UNL     1       1.470   9.300  18.424  0.00  0.00    +0.000 A 
ATOM     11  O   UNL     1       1.935   9.627  17.338  0.00  0.00    +0.000 OA
ENDROOT
BRANCH   1  15
ATOM     12  C   UNL     1       4.146   4.941  17.140  0.00  0.00    +0.000 A 
ATOM     13  C   UNL     1       4.568   6.268  17.086  0.00  0.00    +0.000 A 
ATOM     14  C   UNL     1       3.853   7.276  17.747  0.00  0.00    +0.000 A 
ATOM     15  C   UNL     1       2.690   6.984  18.476  0.00  0.00    +0.000 A 
ATOM     16  C   UNL     1       2.288   5.638  18.528  0.00  0.00    +0.000 A 
ATOM     17  C   UNL     1       2.997   4.629  17.859  0.00  0.00    +0.000 A 
BRANCH  12  19
ATOM     18  C   UNL     1       5.609   4.587  15.313  0.00  0.00    +0.000 C 
ATOM     19  O   UNL     1       4.899   4.052  16.425  0.00  0.00    +0.000 OA
ENDBRANCH  12  19
ENDBRANCH   1  15
BRANCH   6  20
ATOM     20  O   UNL     1      -1.569  11.778  23.078  0.00  0.00    +0.000 OA
BRANCH  20  21
ATOM     21  C   UNL     1      -2.610  12.456  22.366  0.00  0.00    +0.000 C 
BRANCH  21  22
ATOM     22  C   UNL     1      -3.841  12.550  23.200  0.00  0.00    +0.000 A 
ATOM     23  N   UNL     1      -4.930  13.290  22.819  0.00  0.00    +0.000 NA
ATOM     24  N   UNL     1      -5.837  13.141  23.776  0.00  0.00    +0.000 NA
ATOM     25  N   UNL     1      -5.260  12.329  24.669  0.00  0.00    +0.000 N 
ATOM     26  N   UNL     1      -4.009  11.936  24.386  0.00  0.00    +0.000 NA
ATOM     27  H   UNL     1      -5.746  12.036  25.514  0.00  0.00    +0.000 HD
ENDBRANCH  21  22
ENDBRANCH  20  21
ENDBRANCH   6  20
TORSDOF 5
ENDMDL
MODEL 6
REMARK VINA RESULT:      -8.2      5.516      9.748
REMARK  Name = 
REMARK  6 active torsions:
REMARK  status: ('A' for Active; 'I' for Inactive)
REMARK    1  A    between atoms: C_1  and  O_2
REMARK    2  A    between atoms: O_2  and  C_3
REMARK    3  A    between atoms: C_6  and  C_7
REMARK    4  A    between atoms: C_12  and  O_13
REMARK    5  A    between atoms: O_13  and  C_14
REMARK    6  A    between atoms: C_14  and  C_15
REMARK                            x       y       z     vdW  Elec       q    Type
REMARK                         _______ _______ _______ _____ _____    ______ ____
ROOT
ATOM      1  C   UNL     1       0.101  10.634  21.577  0.00  0.00    +0.000 A 
ATOM      2  C   UNL     1       0.289  10.576  20.246  0.00  0.00    +0.000 A 
ATOM      3  C   UNL     1       1.063   9.509  19.633  0.00  0.00    +0.000 A 
ATOM      4  C   UNL     1       1.446   9.543  18.294  0.00  0.00    +0.000 A 
ATOM      5  C   UNL     1       2.144   8.464  17.747  0.00  0.00    +0.000 A 
ATOM      6  C   UNL     1       2.457   7.342  18.523  0.00  0.00    +0.000 A 
ATOM      7  C   UNL     1       2.074   7.305  19.862  0.00  0.00    +0.000 A 
ATOM      8  C   UNL     1       1.403   8.406  20.401  0.00  0.00    +0.000 A 
ATOM      9  O   UNL     1       1.119   8.392  21.776  0.00  0.00    +0.000 OA
ATOM     10  C   UNL     1       0.701   9.550  22.429  0.00  0.00    +0.000 A 
ATOM     11  O   UNL     1       0.795   9.643  23.648  0.00  0.00    +0.000 OA
ENDROOT
BRANCH   1  15
ATOM     12  C   UNL     1      -2.193  13.857  23.350  0.00  0.00    +0.000 A 
ATOM     13  C   UNL     1      -1.010  14.121  22.663  0.00  0.00    +0.000 A 
ATOM     14  C   UNL     1      -0.273  13.082  22.078  0.00  0.00    +0.000 A 
ATOM     15  C   UNL     1      -0.698  11.748  22.169  0.00  0.00    +0.000 A 
ATOM     16  C   UNL     1      -1.901  11.505  22.854  0.00  0.00    +0.000 A 
ATOM     17  C   UNL     1      -2.634  12.541  23.450  0.00  0.00    +0.000 A 
BRANCH  12  19
ATOM     18  C   UNL     1      -2.724  15.039  25.331  0.00  0.00    +0.000 C 
ATOM     19  O   UNL     1      -2.804  14.942  23.913  0.00  0.00    +0.000 OA
ENDBRANCH  12  19
ENDBRANCH   1  15
BRANCH   6  20
ATOM     20  O   UNL     1       3.095   6.344  17.844  0.00  0.00    +0.000 OA
BRANCH  20  21
ATOM     21  C   UNL     1       4.435   6.041  18.247  0.00  0.00    +0.000 C 
BRANCH  21  22
ATOM     22  C   UNL     1       4.528   4.642  18.753  0.00  0.00    +0.000 A 
ATOM     23  N   UNL     1       3.447   3.799  18.781  0.00  0.00    +0.000 NA
ATOM     24  N   UNL     1       3.884   2.647  19.272  0.00  0.00    +0.000 NA
ATOM     25  N   UNL     1       5.186   2.848  19.507  0.00  0.00    +0.000 N 
ATOM     26  N   UNL     1       5.653   4.074  19.226  0.00  0.00    +0.000 NA
ATOM     27  H   UNL     1       5.779   2.111  19.882  0.00  0.00    +0.000 HD
ENDBRANCH  21  22
ENDBRANCH  20  21
ENDBRANCH   6  20
TORSDOF 5
ENDMDL
MODEL 7
REMARK VINA RESULT:      -8.2      1.326      1.820
REMARK  Name = 
REMARK  6 active torsions:
REMARK  status: ('A' for Active; 'I' for Inactive)
REMARK    1  A    between atoms: C_1  and  O_2
REMARK    2  A    between atoms: O_2  and  C_3
REMARK    3  A    between atoms: C_6  and  C_7
REMARK    4  A    between atoms: C_12  and  O_13
REMARK    5  A    between atoms: O_13  and  C_14
REMARK    6  A    between atoms: C_14  and  C_15
REMARK                            x       y       z     vdW  Elec       q    Type
REMARK                         _______ _______ _______ _____ _____    ______ ____
ROOT
ATOM      1  C   UNL     1       1.541   7.868  20.112  0.00  0.00    +0.000 A 
ATOM      2  C   UNL     1       0.921   8.027  21.296  0.00  0.00    +0.000 A 
ATOM      3  C   UNL     1       0.219   9.255  21.627  0.00  0.00    +0.000 A 
ATOM      4  C   UNL     1      -0.245   9.522  22.914  0.00  0.00    +0.000 A 
ATOM      5  C   UNL     1      -0.959  10.696  23.161  0.00  0.00    +0.000 A 
ATOM      6  C   UNL     1      -1.226  11.607  22.131  0.00  0.00    +0.000 A 
ATOM      7  C   UNL     1      -0.763  11.341  20.844  0.00  0.00    +0.000 A 
ATOM      8  C   UNL     1      -0.024  10.177  20.620  0.00  0.00    +0.000 A 
ATOM      9  O   UNL     1       0.520   9.981  19.341  0.00  0.00    +0.000 OA
ATOM     10  C   UNL     1       1.480   8.995  19.119  0.00  0.00    +0.000 A 
ATOM     11  O   UNL     1       2.204   9.046  18.132  0.00  0.00    +0.000 OA
ENDROOT
BRANCH   1  15
ATOM     12  C   UNL     1       3.562   4.141  19.206  0.00  0.00    +0.000 A 
ATOM     13  C   UNL     1       3.783   5.276  18.429  0.00  0.00    +0.000 A 
ATOM     14  C   UNL     1       3.141   6.486  18.728  0.00  0.00    +0.000 A 
ATOM     15  C   UNL     1       2.255   6.591  19.810  0.00  0.00    +0.000 A 
ATOM     16  C   UNL     1       2.056   5.437  20.589  0.00  0.00    +0.000 A 
ATOM     17  C   UNL     1       2.689   4.223  20.285  0.00  0.00    +0.000 A 
BRANCH  12  19
ATOM     18  C   UNL     1       3.478   2.148  17.930  0.00  0.00    +0.000 C 
ATOM     19  O   UNL     1       4.210   3.009  18.795  0.00  0.00    +0.000 OA
ENDBRANCH  12  19
ENDBRANCH   1  15
BRANCH   6  20
ATOM     20  O   UNL     1      -1.976  12.684  22.507  0.00  0.00    +0.000 OA
BRANCH  20  21
ATOM     21  C   UNL     1      -3.308  12.759  21.986  0.00  0.00    +0.000 C 
BRANCH  21  22
ATOM     22  C   UNL     1      -4.308  12.510  23.062  0.00  0.00    +0.000 A 
ATOM     23  N   UNL     1      -5.659  12.561  22.835  0.00  0.00    +0.000 NA
ATOM     24  N   UNL     1      -6.243  12.279  23.992  0.00  0.00    +0.000 NA
ATOM     25  N   UNL     1      -5.233  12.072  24.844  0.00  0.00    +0.000 N 
ATOM     26  N   UNL     1      -3.998  12.217  24.340  0.00  0.00    +0.000 NA
ATOM     27  H   UNL     1      -5.399  11.825  25.817  0.00  0.00    +0.000 HD
ENDBRANCH  21  22
ENDBRANCH  20  21
ENDBRANCH   6  20
TORSDOF 5
ENDMDL
MODEL 8
REMARK VINA RESULT:      -8.2      1.251      1.562
REMARK  Name = 
REMARK  6 active torsions:
REMARK  status: ('A' for Active; 'I' for Inactive)
REMARK    1  A    between atoms: C_1  and  O_2
REMARK    2  A    between atoms: O_2  and  C_3
REMARK    3  A    between atoms: C_6  and  C_7
REMARK    4  A    between atoms: C_12  and  O_13
REMARK    5  A    between atoms: O_13  and  C_14
REMARK    6  A    between atoms: C_14  and  C_15
REMARK                            x       y       z     vdW  Elec       q    Type
REMARK                         _______ _______ _______ _____ _____    ______ ____
ROOT
ATOM      1  C   UNL     1       1.928   7.535  19.324  0.00  0.00    +0.000 A 
ATOM      2  C   UNL     1       1.392   7.671  20.550  0.00  0.00    +0.000 A 
ATOM      3  C   UNL     1       0.765   8.912  20.972  0.00  0.00    +0.000 A 
ATOM      4  C   UNL     1       0.396   9.146  22.295  0.00  0.00    +0.000 A 
ATOM      5  C   UNL     1      -0.251  10.337  22.632  0.00  0.00    +0.000 A 
ATOM      6  C   UNL     1      -0.546  11.297  21.656  0.00  0.00    +0.000 A 
ATOM      7  C   UNL     1      -0.179  11.064  20.332  0.00  0.00    +0.000 A 
ATOM      8  C   UNL     1       0.495   9.882  20.018  0.00  0.00    +0.000 A 
ATOM      9  O   UNL     1       0.948   9.715  18.699  0.00  0.00    +0.000 OA
ATOM     10  C   UNL     1       1.849   8.701  18.378  0.00  0.00    +0.000 A 
ATOM     11  O   UNL     1       2.509   8.763  17.347  0.00  0.00    +0.000 OA
ENDROOT
BRANCH   1  15
ATOM     12  C   UNL     1       3.757   3.760  18.227  0.00  0.00    +0.000 A 
ATOM     13  C   UNL     1       2.566   4.172  17.633  0.00  0.00    +0.000 A 
ATOM     14  C   UNL     1       1.979   5.398  17.976  0.00  0.00    +0.000 A 
ATOM     15  C   UNL     1       2.566   6.244  18.929  0.00  0.00    +0.000 A 
ATOM     16  C   UNL     1       3.775   5.816  19.506  0.00  0.00    +0.000 A 
ATOM     17  C   UNL     1       4.358   4.585  19.172  0.00  0.00    +0.000 A 
BRANCH  12  19
ATOM     18  C   UNL     1       3.613   1.412  18.490  0.00  0.00    +0.000 C 
ATOM     19  O   UNL     1       4.213   2.530  17.844  0.00  0.00    +0.000 OA
ENDBRANCH  12  19
ENDBRANCH   1  15
BRANCH   6  20
ATOM     20  O   UNL     1      -1.225  12.387  22.120  0.00  0.00    +0.000 OA
BRANCH  20  21
ATOM     21  C   UNL     1      -1.798  12.284  23.428  0.00  0.00    +0.000 C 
BRANCH  21  22
ATOM     22  C   UNL     1      -3.286  12.319  23.353  0.00  0.00    +0.000 A 
ATOM     23  N   UNL     1      -4.080  12.167  24.461  0.00  0.00    +0.000 NA
ATOM     24  N   UNL     1      -5.333  12.264  24.038  0.00  0.00    +0.000 NA
ATOM     25  N   UNL     1      -5.234  12.470  22.720  0.00  0.00    +0.000 N 
ATOM     26  N   UNL     1      -3.990  12.498  22.220  0.00  0.00    +0.000 NA
ATOM     27  H   UNL     1      -6.059  12.593  22.137  0.00  0.00    +0.000 HD
ENDBRANCH  21  22
ENDBRANCH  20  21
ENDBRANCH   6  20
TORSDOF 5
ENDMDL
MODEL 9
REMARK VINA RESULT:      -8.2      5.525      9.731
REMARK  Name = 
REMARK  6 active torsions:
REMARK  status: ('A' for Active; 'I' for Inactive)
REMARK    1  A    between atoms: C_1  and  O_2
REMARK    2  A    between atoms: O_2  and  C_3
REMARK    3  A    between atoms: C_6  and  C_7
REMARK    4  A    between atoms: C_12  and  O_13
REMARK    5  A    between atoms: O_13  and  C_14
REMARK    6  A    between atoms: C_14  and  C_15
REMARK                            x       y       z     vdW  Elec       q    Type
REMARK                         _______ _______ _______ _____ _____    ______ ____
ROOT
ATOM      1  C   UNL     1       0.073  10.584  21.669  0.00  0.00    +0.000 A 
ATOM      2  C   UNL     1       0.232  10.541  20.334  0.00  0.00    +0.000 A 
ATOM      3  C   UNL     1       1.028   9.505  19.696  0.00  0.00    +0.000 A 
ATOM      4  C   UNL     1       1.378   9.561  18.349  0.00  0.00    +0.000 A 
ATOM      5  C   UNL     1       2.100   8.510  17.779  0.00  0.00    +0.000 A 
ATOM      6  C   UNL     1       2.468   7.394  18.539  0.00  0.00    +0.000 A 
ATOM      7  C   UNL     1       2.118   7.336  19.887  0.00  0.00    +0.000 A 
ATOM      8  C   UNL     1       1.422   8.409  20.449  0.00  0.00    +0.000 A 
ATOM      9  O   UNL     1       1.171   8.377  21.829  0.00  0.00    +0.000 OA
ATOM     10  C   UNL     1       0.729   9.517  22.500  0.00  0.00    +0.000 A 
ATOM     11  O   UNL     1       0.848   9.605  23.716  0.00  0.00    +0.000 OA
ENDROOT
BRANCH   1  15
ATOM     12  C   UNL     1      -2.343  13.737  23.407  0.00  0.00    +0.000 A 
ATOM     13  C   UNL     1      -2.713  12.401  23.544  0.00  0.00    +0.000 A 
ATOM     14  C   UNL     1      -1.927  11.378  22.994  0.00  0.00    +0.000 A 
ATOM     15  C   UNL     1      -0.750  11.667  22.287  0.00  0.00    +0.000 A 
ATOM     16  C   UNL     1      -0.388  13.021  22.171  0.00  0.00    +0.000 A 
ATOM     17  C   UNL     1      -1.178  14.045  22.711  0.00  0.00    +0.000 A 
BRANCH  12  19
ATOM     18  C   UNL     1      -2.953  15.024  25.297  0.00  0.00    +0.000 C 
ATOM     19  O   UNL     1      -3.207  14.647  23.948  0.00  0.00    +0.000 OA
ENDBRANCH  12  19
ENDBRANCH   1  15
BRANCH   6  20
ATOM     20  O   UNL     1       3.125   6.423  17.839  0.00  0.00    +0.000 OA
BRANCH  20  21
ATOM     21  C   UNL     1       2.679   5.075  18.026  0.00  0.00    +0.000 C 
BRANCH  21  22
ATOM     22  C   UNL     1       3.769   4.236  18.598  0.00  0.00    +0.000 A 
ATOM     23  N   UNL     1       3.554   3.354  19.626  0.00  0.00    +0.000 NA
ATOM     24  N   UNL     1       4.722   2.774  19.871  0.00  0.00    +0.000 NA
ATOM     25  N   UNL     1       5.567   3.322  18.991  0.00  0.00    +0.000 N 
ATOM     26  N   UNL     1       5.048   4.255  18.178  0.00  0.00    +0.000 NA
ATOM     27  H   UNL     1       6.546   3.046  18.950  0.00  0.00    +0.000 HD
ENDBRANCH  21  22
ENDBRANCH  20  21
ENDBRANCH   6  20
TORSDOF 5
ENDMDL
