MODEL 1
REMARK VINA RESULT:      -5.7      0.000      0.000
REMARK  Name = 
REMARK  7 active torsions:
REMARK  status: ('A' for Active; 'I' for Inactive)
REMARK    1  A    between atoms: C_1  and  N_2
REMARK    2  A    between atoms: N_2  and  C_3
REMARK    3  A    between atoms: C_6  and  C_7
REMARK    4  A    between atoms: C_8  and  C_9
REMARK    5  A    between atoms: C_15  and  N_16
REMARK    6  A    between atoms: N_16  and  S_17
REMARK    7  A    between atoms: S_17  and  C_18
REMARK                            x       y       z     vdW  Elec       q    Type
REMARK                         _______ _______ _______ _____ _____    ______ ____
ROOT
ATOM      1  C   UNL     1       3.550   3.929  17.126  0.00  0.00    +0.000 C 
ATOM      2  O   UNL     1       2.980   2.907  16.734  0.00  0.00    +0.000 OA
ATOM      3  N   UNL     1       4.561   4.495  16.336  0.00  0.00    +0.000 N 
ATOM      4  C   UNL     1       4.861   3.854  15.053  0.00  0.00    +0.000 C 
ATOM      5  C   UNL     1       6.362   3.731  14.806  0.00  0.00    +0.000 C 
ATOM      6  C   UNL     1       7.110   5.045  15.043  0.00  0.00    +0.000 C 
ATOM      7  C   UNL     1       6.742   5.711  16.374  0.00  0.00    +0.000 C 
ATOM      8  C   UNL     1       5.193   5.811  16.488  0.00  0.00    +0.000 C 
ENDROOT
BRANCH   1  14
ATOM      9  C   UNL     1       2.477   5.775  18.583  0.00  0.00    +0.000 A 
ATOM     10  S   UNL     1       2.205   5.963  20.284  0.00  0.00    +0.000 S 
ATOM     11  N   UNL     1       2.915   4.572  20.760  0.00  0.00    +0.000 NA
ATOM     12  C   UNL     1       3.370   3.923  19.691  0.00  0.00    +0.000 A 
ATOM     13  C   UNL     1       4.079   2.636  19.968  0.00  0.00    +0.000 C 
ATOM     14  C   UNL     1       3.093   4.534  18.386  0.00  0.00    +0.000 A 
BRANCH   9  16
ATOM     15  C   UNL     1       2.603   8.136  17.972  0.00  0.00    +0.000 C 
ATOM     16  N   UNL     1       2.181   6.762  17.667  0.00  0.00    +0.000 N 
ATOM     17  H   UNL     1       2.509   6.507  16.728  0.00  0.00    +0.000 HD
ENDBRANCH   9  16
ENDBRANCH   1  14
BRANCH   7  18
ATOM     18  N   UNL     1       7.244   4.957  17.536  0.00  0.00    +0.000 NA
ATOM     19  H   UNL     1       6.939   3.976  17.560  0.00  0.00    +0.000 HD
BRANCH  18  20
ATOM     20  S   UNL     1       7.602   5.594  19.028  0.00  0.00    +0.000 S 
ATOM     21  C   UNL     1       8.111   7.258  18.677  0.00  0.00    +0.000 C 
ATOM     22  O   UNL     1       6.334   5.662  19.726  0.00  0.00    +0.000 OA
ATOM     23  O   UNL     1       8.728   4.884  19.590  0.00  0.00    +0.000 OA
ENDBRANCH  18  20
ENDBRANCH   7  18
TORSDOF 4
ENDMDL
MODEL 2
REMARK VINA RESULT:      -5.7      1.919      3.146
REMARK  Name = 
REMARK  7 active torsions:
REMARK  status: ('A' for Active; 'I' for Inactive)
REMARK    1  A    between atoms: C_1  and  N_2
REMARK    2  A    between atoms: N_2  and  C_3
REMARK    3  A    between atoms: C_6  and  C_7
REMARK    4  A    between atoms: C_8  and  C_9
REMARK    5  A    between atoms: C_15  and  N_16
REMARK    6  A    between atoms: N_16  and  S_17
REMARK    7  A    between atoms: S_17  and  C_18
REMARK                            x       y       z     vdW  Elec       q    Type
REMARK                         _______ _______ _______ _____ _____    ______ ____
ROOT
ATOM      1  C   UNL     1       3.337   2.770  17.977  0.00  0.00    +0.000 C 
ATOM      2  O   UNL     1       3.322   1.732  17.310  0.00  0.00    +0.000 OA
ATOM      3  N   UNL     1       3.771   3.961  17.380  0.00  0.00    +0.000 N 
ATOM      4  C   UNL     1       4.155   3.914  15.966  0.00  0.00    +0.000 C 
ATOM      5  C   UNL     1       5.443   4.684  15.691  0.00  0.00    +0.000 C 
ATOM      6  C   UNL     1       5.431   6.091  16.292  0.00  0.00    +0.000 C 
ATOM      7  C   UNL     1       4.987   6.110  17.759  0.00  0.00    +0.000 C 
ATOM      8  C   UNL     1       3.649   5.328  17.902  0.00  0.00    +0.000 C 
ENDROOT
BRANCH   1  14
ATOM      9  C   UNL     1       3.560   2.485  20.537  0.00  0.00    +0.000 A 
ATOM     10  S   UNL     1       2.432   2.484  21.853  0.00  0.00    +0.000 S 
ATOM     11  N   UNL     1       1.077   2.672  20.962  0.00  0.00    +0.000 NA
ATOM     12  C   UNL     1       1.405   2.746  19.675  0.00  0.00    +0.000 A 
ATOM     13  C   UNL     1       0.261   2.889  18.722  0.00  0.00    +0.000 C 
ATOM     14  C   UNL     1       2.837   2.709  19.359  0.00  0.00    +0.000 A 
BRANCH   9  16
ATOM     15  C   UNL     1       5.282   0.947  21.330  0.00  0.00    +0.000 C 
ATOM     16  N   UNL     1       4.902   2.221  20.705  0.00  0.00    +0.000 N 
ATOM     17  H   UNL     1       5.416   2.333  19.822  0.00  0.00    +0.000 HD
ENDBRANCH   9  16
ENDBRANCH   1  14
BRANCH   7  18
ATOM     18  N   UNL     1       5.981   5.494  18.655  0.00  0.00    +0.000 NA
ATOM     19  H   UNL     1       5.651   5.365  19.619  0.00  0.00    +0.000 HD
BRANCH  18  20
ATOM     20  S   UNL     1       7.631   5.629  18.516  0.00  0.00    +0.000 S 
ATOM     21  C   UNL     1       7.885   7.310  18.001  0.00  0.00    +0.000 C 
ATOM     22  O   UNL     1       8.138   5.505  19.867  0.00  0.00    +0.000 OA
ATOM     23  O   UNL     1       8.092   4.757  17.460  0.00  0.00    +0.000 OA
ENDBRANCH  18  20
ENDBRANCH   7  18
TORSDOF 4
ENDMDL
MODEL 3
REMARK VINA RESULT:      -5.6      9.887     12.133
REMARK  Name = 
REMARK  7 active torsions:
REMARK  status: ('A' for Active; 'I' for Inactive)
REMARK    1  A    between atoms: C_1  and  N_2
REMARK    2  A    between atoms: N_2  and  C_3
REMARK    3  A    between atoms: C_6  and  C_7
REMARK    4  A    between atoms: C_8  and  C_9
REMARK    5  A    between atoms: C_15  and  N_16
REMARK    6  A    between atoms: N_16  and  S_17
REMARK    7  A    between atoms: S_17  and  C_18
REMARK                            x       y       z     vdW  Elec       q    Type
REMARK                         _______ _______ _______ _____ _____    ______ ____
ROOT
ATOM      1  C   UNL     1      -3.327  14.137  20.737  0.00  0.00    +0.000 C 
ATOM      2  O   UNL     1      -3.283  15.334  21.032  0.00  0.00    +0.000 OA
ATOM      3  N   UNL     1      -2.174  13.510  20.245  0.00  0.00    +0.000 N 
ATOM      4  C   UNL     1      -0.953  14.315  20.143  0.00  0.00    +0.000 C 
ATOM      5  C   UNL     1      -0.217  14.083  18.827  0.00  0.00    +0.000 C 
ATOM      6  C   UNL     1      -0.019  12.598  18.513  0.00  0.00    +0.000 C 
ATOM      7  C   UNL     1      -1.305  11.778  18.669  0.00  0.00    +0.000 C 
ATOM      8  C   UNL     1      -1.937  12.073  20.060  0.00  0.00    +0.000 C 
ENDROOT
BRANCH   1  14
ATOM      9  C   UNL     1      -5.680  13.266  20.115  0.00  0.00    +0.000 A 
ATOM     10  S   UNL     1      -6.886  12.345  20.953  0.00  0.00    +0.000 S 
ATOM     11  N   UNL     1      -6.091  12.212  22.373  0.00  0.00    +0.000 NA
ATOM     12  C   UNL     1      -4.918  12.833  22.280  0.00  0.00    +0.000 A 
ATOM     13  C   UNL     1      -4.080  12.826  23.519  0.00  0.00    +0.000 C 
ATOM     14  C   UNL     1      -4.585  13.413  20.974  0.00  0.00    +0.000 A 
BRANCH   9  16
ATOM     15  C   UNL     1      -7.252  13.786  18.320  0.00  0.00    +0.000 C 
ATOM     16  N   UNL     1      -5.885  13.791  18.857  0.00  0.00    +0.000 N 
ATOM     17  H   UNL     1      -5.495  14.739  18.783  0.00  0.00    +0.000 HD
ENDBRANCH   9  16
ENDBRANCH   1  14
BRANCH   7  18
ATOM     18  N   UNL     1      -2.301  12.094  17.631  0.00  0.00    +0.000 NA
ATOM     19  H   UNL     1      -2.590  13.079  17.617  0.00  0.00    +0.000 HD
BRANCH  18  20
ATOM     20  S   UNL     1      -3.436  11.045  17.020  0.00  0.00    +0.000 S 
ATOM     21  C   UNL     1      -2.893  10.743  15.357  0.00  0.00    +0.000 C 
ATOM     22  O   UNL     1      -3.259   9.816  17.767  0.00  0.00    +0.000 OA
ATOM     23  O   UNL     1      -4.717  11.711  16.966  0.00  0.00    +0.000 OA
ENDBRANCH  18  20
ENDBRANCH   7  18
TORSDOF 4
ENDMDL
MODEL 4
REMARK VINA RESULT:      -5.5      7.580     10.168
REMARK  Name = 
REMARK  7 active torsions:
REMARK  status: ('A' for Active; 'I' for Inactive)
REMARK    1  A    between atoms: C_1  and  N_2
REMARK    2  A    between atoms: N_2  and  C_3
REMARK    3  A    between atoms: C_6  and  C_7
REMARK    4  A    between atoms: C_8  and  C_9
REMARK    5  A    between atoms: C_15  and  N_16
REMARK    6  A    between atoms: N_16  and  S_17
REMARK    7  A    between atoms: S_17  and  C_18
REMARK                            x       y       z     vdW  Elec       q    Type
REMARK                         _______ _______ _______ _____ _____    ______ ____
ROOT
ATOM      1  C   UNL     1      -1.102  12.953  19.045  0.00  0.00    +0.000 C 
ATOM      2  O   UNL     1      -0.606  13.923  18.465  0.00  0.00    +0.000 OA
ATOM      3  N   UNL     1      -1.396  13.050  20.412  0.00  0.00    +0.000 N 
ATOM      4  C   UNL     1      -1.130  14.329  21.077  0.00  0.00    +0.000 C 
ATOM      5  C   UNL     1      -0.459  14.145  22.435  0.00  0.00    +0.000 C 
ATOM      6  C   UNL     1      -1.175  13.117  23.314  0.00  0.00    +0.000 C 
ATOM      7  C   UNL     1      -1.475  11.807  22.576  0.00  0.00    +0.000 C 
ATOM      8  C   UNL     1      -2.189  12.126  21.231  0.00  0.00    +0.000 C 
ENDROOT
BRANCH   1  14
ATOM      9  C   UNL     1      -2.602  11.438  17.583  0.00  0.00    +0.000 A 
ATOM     10  S   UNL     1      -2.392   9.883  16.847  0.00  0.00    +0.000 S 
ATOM     11  N   UNL     1      -0.891   9.588  17.417  0.00  0.00    +0.000 NA
ATOM     12  C   UNL     1      -0.493  10.617  18.160  0.00  0.00    +0.000 A 
ATOM     13  C   UNL     1       0.860  10.482  18.783  0.00  0.00    +0.000 C 
ATOM     14  C   UNL     1      -1.412  11.757  18.247  0.00  0.00    +0.000 A 
BRANCH   9  16
ATOM     15  C   UNL     1      -5.014  11.381  17.204  0.00  0.00    +0.000 C 
ATOM     16  N   UNL     1      -3.794  12.129  17.539  0.00  0.00    +0.000 N 
ATOM     17  H   UNL     1      -3.948  12.659  18.406  0.00  0.00    +0.000 HD
ENDBRANCH   9  16
ENDBRANCH   1  14
BRANCH   7  18
ATOM     18  N   UNL     1      -0.255  11.036  22.282  0.00  0.00    +0.000 NA
ATOM     19  H   UNL     1       0.185  11.278  21.385  0.00  0.00    +0.000 HD
BRANCH  18  20
ATOM     20  S   UNL     1       0.070   9.492  22.802  0.00  0.00    +0.000 S 
ATOM     21  C   UNL     1       1.613   9.089  22.021  0.00  0.00    +0.000 C 
ATOM     22  O   UNL     1       0.319   9.614  24.223  0.00  0.00    +0.000 OA
ATOM     23  O   UNL     1      -0.943   8.596  22.292  0.00  0.00    +0.000 OA
ENDBRANCH  18  20
ENDBRANCH   7  18
TORSDOF 4
ENDMDL
MODEL 5
REMARK VINA RESULT:      -5.5      0.722      2.301
REMARK  Name = 
REMARK  7 active torsions:
REMARK  status: ('A' for Active; 'I' for Inactive)
REMARK    1  A    between atoms: C_1  and  N_2
REMARK    2  A    between atoms: N_2  and  C_3
REMARK    3  A    between atoms: C_6  and  C_7
REMARK    4  A    between atoms: C_8  and  C_9
REMARK    5  A    between atoms: C_15  and  N_16
REMARK    6  A    between atoms: N_16  and  S_17
REMARK    7  A    between atoms: S_17  and  C_18
REMARK                            x       y       z     vdW  Elec       q    Type
REMARK                         _______ _______ _______ _____ _____    ______ ____
ROOT
ATOM      1  C   UNL     1       3.508   4.170  17.214  0.00  0.00    +0.000 C 
ATOM      2  O   UNL     1       2.871   3.187  16.827  0.00  0.00    +0.000 OA
ATOM      3  N   UNL     1       4.532   4.683  16.406  0.00  0.00    +0.000 N 
ATOM      4  C   UNL     1       4.767   4.036  15.112  0.00  0.00    +0.000 C 
ATOM      5  C   UNL     1       6.252   3.828  14.831  0.00  0.00    +0.000 C 
ATOM      6  C   UNL     1       7.080   5.094  15.060  0.00  0.00    +0.000 C 
ATOM      7  C   UNL     1       6.781   5.769  16.404  0.00  0.00    +0.000 C 
ATOM      8  C   UNL     1       5.244   5.958  16.553  0.00  0.00    +0.000 C 
ENDROOT
BRANCH   1  14
ATOM      9  C   UNL     1       2.957   4.183  19.739  0.00  0.00    +0.000 A 
ATOM     10  S   UNL     1       2.442   5.406  20.855  0.00  0.00    +0.000 S 
ATOM     11  N   UNL     1       2.340   6.632  19.782  0.00  0.00    +0.000 NA
ATOM     12  C   UNL     1       2.682   6.189  18.575  0.00  0.00    +0.000 A 
ATOM     13  C   UNL     1       2.608   7.195  17.470  0.00  0.00    +0.000 C 
ATOM     14  C   UNL     1       3.115   4.790  18.488  0.00  0.00    +0.000 A 
BRANCH   9  16
ATOM     15  C   UNL     1       4.437   2.307  20.243  0.00  0.00    +0.000 C 
ATOM     16  N   UNL     1       3.082   2.857  20.093  0.00  0.00    +0.000 N 
ATOM     17  H   UNL     1       2.534   2.644  20.935  0.00  0.00    +0.000 HD
ENDBRANCH   9  16
ENDBRANCH   1  14
BRANCH   7  18
ATOM     18  N   UNL     1       7.264   4.978  17.548  0.00  0.00    +0.000 NA
ATOM     19  H   UNL     1       6.936   4.004  17.550  0.00  0.00    +0.000 HD
BRANCH  18  20
ATOM     20  S   UNL     1       7.633   5.572  19.055  0.00  0.00    +0.000 S 
ATOM     21  C   UNL     1       8.115   7.254  18.750  0.00  0.00    +0.000 C 
ATOM     22  O   UNL     1       6.375   5.601  19.772  0.00  0.00    +0.000 OA
ATOM     23  O   UNL     1       8.777   4.861  19.579  0.00  0.00    +0.000 OA
ENDBRANCH  18  20
ENDBRANCH   7  18
TORSDOF 4
ENDMDL
MODEL 6
REMARK VINA RESULT:      -5.4      9.776     12.063
REMARK  Name = 
REMARK  7 active torsions:
REMARK  status: ('A' for Active; 'I' for Inactive)
REMARK    1  A    between atoms: C_1  and  N_2
REMARK    2  A    between atoms: N_2  and  C_3
REMARK    3  A    between atoms: C_6  and  C_7
REMARK    4  A    between atoms: C_8  and  C_9
REMARK    5  A    between atoms: C_15  and  N_16
REMARK    6  A    between atoms: N_16  and  S_17
REMARK    7  A    between atoms: S_17  and  C_18
REMARK                            x       y       z     vdW  Elec       q    Type
REMARK                         _______ _______ _______ _____ _____    ______ ____
ROOT
ATOM      1  C   UNL     1      -3.077  14.259  20.772  0.00  0.00    +0.000 C 
ATOM      2  O   UNL     1      -3.007  15.464  21.027  0.00  0.00    +0.000 OA
ATOM      3  N   UNL     1      -1.946  13.597  20.275  0.00  0.00    +0.000 N 
ATOM      4  C   UNL     1      -0.714  14.377  20.121  0.00  0.00    +0.000 C 
ATOM      5  C   UNL     1      -0.011  14.091  18.797  0.00  0.00    +0.000 C 
ATOM      6  C   UNL     1       0.154  12.594  18.526  0.00  0.00    +0.000 C 
ATOM      7  C   UNL     1      -1.142  11.802  18.736  0.00  0.00    +0.000 C 
ATOM      8  C   UNL     1      -1.737  12.151  20.130  0.00  0.00    +0.000 C 
ENDROOT
BRANCH   1  14
ATOM      9  C   UNL     1      -5.532  13.585  20.323  0.00  0.00    +0.000 A 
ATOM     10  S   UNL     1      -6.689  12.611  21.170  0.00  0.00    +0.000 S 
ATOM     11  N   UNL     1      -5.751  12.252  22.457  0.00  0.00    +0.000 NA
ATOM     12  C   UNL     1      -4.561  12.827  22.308  0.00  0.00    +0.000 A 
ATOM     13  C   UNL     1      -3.593  12.614  23.428  0.00  0.00    +0.000 C 
ATOM     14  C   UNL     1      -4.342  13.565  21.059  0.00  0.00    +0.000 A 
BRANCH   9  16
ATOM     15  C   UNL     1      -6.424  15.627  19.324  0.00  0.00    +0.000 C 
ATOM     16  N   UNL     1      -5.843  14.285  19.177  0.00  0.00    +0.000 N 
ATOM     17  H   UNL     1      -5.038  14.331  18.541  0.00  0.00    +0.000 HD
ENDBRANCH   9  16
ENDBRANCH   1  14
BRANCH   7  18
ATOM     18  N   UNL     1      -2.155  12.103  17.710  0.00  0.00    +0.000 NA
ATOM     19  H   UNL     1      -2.604  13.020  17.823  0.00  0.00    +0.000 HD
BRANCH  18  20
ATOM     20  S   UNL     1      -3.087  10.986  16.907  0.00  0.00    +0.000 S 
ATOM     21  C   UNL     1      -4.730  11.657  16.988  0.00  0.00    +0.000 C 
ATOM     22  O   UNL     1      -2.655  11.054  15.526  0.00  0.00    +0.000 OA
ATOM     23  O   UNL     1      -3.069   9.739  17.637  0.00  0.00    +0.000 OA
ENDBRANCH  18  20
ENDBRANCH   7  18
TORSDOF 4
ENDMDL
MODEL 7
REMARK VINA RESULT:      -5.4      2.385      5.344
REMARK  Name = 
REMARK  7 active torsions:
REMARK  status: ('A' for Active; 'I' for Inactive)
REMARK    1  A    between atoms: C_1  and  N_2
REMARK    2  A    between atoms: N_2  and  C_3
REMARK    3  A    between atoms: C_6  and  C_7
REMARK    4  A    between atoms: C_8  and  C_9
REMARK    5  A    between atoms: C_15  and  N_16
REMARK    6  A    between atoms: N_16  and  S_17
REMARK    7  A    between atoms: S_17  and  C_18
REMARK                            x       y       z     vdW  Elec       q    Type
REMARK                         _______ _______ _______ _____ _____    ______ ____
ROOT
ATOM      1  C   UNL     1       5.161   4.241  17.347  0.00  0.00    +0.000 C 
ATOM      2  O   UNL     1       5.428   3.370  16.515  0.00  0.00    +0.000 OA
ATOM      3  N   UNL     1       4.054   4.067  18.190  0.00  0.00    +0.000 N 
ATOM      4  C   UNL     1       3.287   2.825  18.058  0.00  0.00    +0.000 C 
ATOM      5  C   UNL     1       1.782   3.071  18.079  0.00  0.00    +0.000 C 
ATOM      6  C   UNL     1       1.344   3.960  19.246  0.00  0.00    +0.000 C 
ATOM      7  C   UNL     1       2.192   5.230  19.380  0.00  0.00    +0.000 C 
ATOM      8  C   UNL     1       3.699   4.843  19.384  0.00  0.00    +0.000 C 
ENDROOT
BRANCH   1  14
ATOM      9  C   UNL     1       6.970   5.709  18.468  0.00  0.00    +0.000 A 
ATOM     10  S   UNL     1       7.724   7.215  18.060  0.00  0.00    +0.000 S 
ATOM     11  N   UNL     1       6.876   7.506  16.695  0.00  0.00    +0.000 NA
ATOM     12  C   UNL     1       6.018   6.510  16.491  0.00  0.00    +0.000 A 
ATOM     13  C   UNL     1       5.141   6.646  15.287  0.00  0.00    +0.000 C 
ATOM     14  C   UNL     1       6.063   5.399  17.448  0.00  0.00    +0.000 A 
BRANCH   9  16
ATOM     15  C   UNL     1       8.457   5.371  20.375  0.00  0.00    +0.000 C 
ATOM     16  N   UNL     1       7.221   5.046  19.650  0.00  0.00    +0.000 N 
ATOM     17  H   UNL     1       6.422   5.117  20.292  0.00  0.00    +0.000 HD
ENDBRANCH   9  16
ENDBRANCH   1  14
BRANCH   7  18
ATOM     18  N   UNL     1       1.960   6.179  18.279  0.00  0.00    +0.000 NA
ATOM     19  H   UNL     1       2.111   5.779  17.345  0.00  0.00    +0.000 HD
BRANCH  18  20
ATOM     20  S   UNL     1       2.168   7.826  18.353  0.00  0.00    +0.000 S 
ATOM     21  C   UNL     1       1.841   8.226  20.052  0.00  0.00    +0.000 C 
ATOM     22  O   UNL     1       3.581   8.041  18.118  0.00  0.00    +0.000 OA
ATOM     23  O   UNL     1       1.165   8.469  17.534  0.00  0.00    +0.000 OA
ENDBRANCH  18  20
ENDBRANCH   7  18
TORSDOF 4
ENDMDL
MODEL 8
REMARK VINA RESULT:      -5.3      7.510     10.159
REMARK  Name = 
REMARK  7 active torsions:
REMARK  status: ('A' for Active; 'I' for Inactive)
REMARK    1  A    between atoms: C_1  and  N_2
REMARK    2  A    between atoms: N_2  and  C_3
REMARK    3  A    between atoms: C_6  and  C_7
REMARK    4  A    between atoms: C_8  and  C_9
REMARK    5  A    between atoms: C_15  and  N_16
REMARK    6  A    between atoms: N_16  and  S_17
REMARK    7  A    between atoms: S_17  and  C_18
REMARK                            x       y       z     vdW  Elec       q    Type
REMARK                         _______ _______ _______ _____ _____    ______ ____
ROOT
ATOM      1  C   UNL     1      -3.057  12.851  20.253  0.00  0.00    +0.000 C 
ATOM      2  O   UNL     1      -4.254  12.954  20.532  0.00  0.00    +0.000 OA
ATOM      3  N   UNL     1      -2.678  12.124  19.116  0.00  0.00    +0.000 N 
ATOM      4  C   UNL     1      -3.744  11.550  18.289  0.00  0.00    +0.000 C 
ATOM      5  C   UNL     1      -3.437  10.117  17.864  0.00  0.00    +0.000 C 
ATOM      6  C   UNL     1      -2.033   9.963  17.275  0.00  0.00    +0.000 C 
ATOM      7  C   UNL     1      -0.947  10.609  18.144  0.00  0.00    +0.000 C 
ATOM      8  C   UNL     1      -1.358  12.072  18.476  0.00  0.00    +0.000 C 
ENDROOT
BRANCH   1  14
ATOM      9  C   UNL     1      -1.474  14.792  20.892  0.00  0.00    +0.000 A 
ATOM     10  S   UNL     1      -0.396  15.083  22.218  0.00  0.00    +0.000 S 
ATOM     11  N   UNL     1      -0.629  13.662  22.987  0.00  0.00    +0.000 NA
ATOM     12  C   UNL     1      -1.505  12.931  22.302  0.00  0.00    +0.000 A 
ATOM     13  C   UNL     1      -1.802  11.578  22.867  0.00  0.00    +0.000 C 
ATOM     14  C   UNL     1      -2.087  13.552  21.107  0.00  0.00    +0.000 A 
BRANCH   9  16
ATOM     15  C   UNL     1      -0.394  15.861  18.980  0.00  0.00    +0.000 C 
ATOM     16  N   UNL     1      -1.583  15.650  19.818  0.00  0.00    +0.000 N 
ATOM     17  H   UNL     1      -2.379  15.396  19.220  0.00  0.00    +0.000 HD
ENDBRANCH   9  16
ENDBRANCH   1  14
BRANCH   7  18
ATOM     18  N   UNL     1      -0.738   9.887  19.410  0.00  0.00    +0.000 NA
ATOM     19  H   UNL     1      -1.562   9.874  20.024  0.00  0.00    +0.000 HD
BRANCH  18  20
ATOM     20  S   UNL     1       0.708   9.728  20.213  0.00  0.00    +0.000 S 
ATOM     21  C   UNL     1       0.331   8.650  21.573  0.00  0.00    +0.000 C 
ATOM     22  O   UNL     1       1.570   9.000  19.305  0.00  0.00    +0.000 OA
ATOM     23  O   UNL     1       1.097  11.014  20.748  0.00  0.00    +0.000 OA
ENDBRANCH  18  20
ENDBRANCH   7  18
TORSDOF 4
ENDMDL
MODEL 9
REMARK VINA RESULT:      -5.3      7.820     10.523
REMARK  Name = 
REMARK  7 active torsions:
REMARK  status: ('A' for Active; 'I' for Inactive)
REMARK    1  A    between atoms: C_1  and  N_2
REMARK    2  A    between atoms: N_2  and  C_3
REMARK    3  A    between atoms: C_6  and  C_7
REMARK    4  A    between atoms: C_8  and  C_9
REMARK    5  A    between atoms: C_15  and  N_16
REMARK    6  A    between atoms: N_16  and  S_17
REMARK    7  A    between atoms: S_17  and  C_18
REMARK                            x       y       z     vdW  Elec       q    Type
REMARK                         _______ _______ _______ _____ _____    ______ ____
ROOT
ATOM      1  C   UNL     1      -3.053  12.758  20.370  0.00  0.00    +0.000 C 
ATOM      2  O   UNL     1      -4.272  12.829  20.196  0.00  0.00    +0.000 OA
ATOM      3  N   UNL     1      -2.263  12.094  19.422  0.00  0.00    +0.000 N 
ATOM      4  C   UNL     1      -2.935  11.545  18.240  0.00  0.00    +0.000 C 
ATOM      5  C   UNL     1      -2.448  10.140  17.899  0.00  0.00    +0.000 C 
ATOM      6  C   UNL     1      -0.922  10.036  17.859  0.00  0.00    +0.000 C 
ATOM      7  C   UNL     1      -0.249  10.655  19.090  0.00  0.00    +0.000 C 
ATOM      8  C   UNL     1      -0.799  12.094  19.308  0.00  0.00    +0.000 C 
ENDROOT
BRANCH   1  14
ATOM      9  C   UNL     1      -2.639  13.102  22.898  0.00  0.00    +0.000 A 
ATOM     10  S   UNL     1      -1.769  14.277  23.830  0.00  0.00    +0.000 S 
ATOM     11  N   UNL     1      -1.289  15.212  22.581  0.00  0.00    +0.000 NA
ATOM     12  C   UNL     1      -1.744  14.695  21.443  0.00  0.00    +0.000 A 
ATOM     13  C   UNL     1      -1.411  15.461  20.203  0.00  0.00    +0.000 C 
ATOM     14  C   UNL     1      -2.484  13.432  21.547  0.00  0.00    +0.000 A 
BRANCH   9  16
ATOM     15  C   UNL     1      -4.268  12.459  24.601  0.00  0.00    +0.000 C 
ATOM     16  N   UNL     1      -3.392  12.102  23.476  0.00  0.00    +0.000 N 
ATOM     17  H   UNL     1      -3.937  11.593  22.770  0.00  0.00    +0.000 HD
ENDBRANCH   9  16
ENDBRANCH   1  14
BRANCH   7  18
ATOM     18  N   UNL     1      -0.493   9.875  20.315  0.00  0.00    +0.000 NA
ATOM     19  H   UNL     1      -1.487   9.747  20.537  0.00  0.00    +0.000 HD
BRANCH  18  20
ATOM     20  S   UNL     1       0.512   9.799  21.637  0.00  0.00    +0.000 S 
ATOM     21  C   UNL     1      -0.598   9.807  23.023  0.00  0.00    +0.000 C 
ATOM     22  O   UNL     1       1.124   8.488  21.574  0.00  0.00    +0.000 OA
ATOM     23  O   UNL     1       1.315  11.000  21.692  0.00  0.00    +0.000 OA
ENDBRANCH  18  20
ENDBRANCH   7  18
TORSDOF 4
ENDMDL
