MODEL 1
REMARK VINA RESULT:      -7.6      0.000      0.000
REMARK  Name = 
REMARK  9 active torsions:
REMARK  status: ('A' for Active; 'I' for Inactive)
REMARK    1  A    between atoms: C_1  and  O_2
REMARK    2  A    between atoms: O_2  and  C_3
REMARK    3  A    between atoms: C_10  and  C_11
REMARK    4  A    between atoms: N_13  and  C_14
REMARK    5  A    between atoms: C_17  and  C_18
REMARK    6  A    between atoms: C_24  and  O_25
REMARK    7  A    between atoms: O_25  and  C_26
REMARK    8  A    between atoms: C_26  and  C_27
REMARK    9  A    between atoms: N_30  and  C_31
REMARK                            x       y       z     vdW  Elec       q    Type
REMARK                         _______ _______ _______ _____ _____    ______ ____
ROOT
ATOM      1  C   UNL     1       0.759  10.140  18.759  0.00  0.00    +0.000 A 
ATOM      2  C   UNL     1       1.653   9.592  17.840  0.00  0.00    +0.000 A 
ATOM      3  C   UNL     1       2.243   8.355  18.107  0.00  0.00    +0.000 A 
ATOM      4  C   UNL     1       1.968   7.686  19.304  0.00  0.00    +0.000 A 
ATOM      5  C   UNL     1       1.094   8.262  20.228  0.00  0.00    +0.000 A 
ATOM      6  C   UNL     1       0.515   9.500  19.982  0.00  0.00    +0.000 A 
ENDROOT
BRANCH   4   7
ATOM      7  C   UNL     1       2.593   6.430  19.657  0.00  0.00    +0.000 A 
ATOM      8  C   UNL     1       3.801   5.845  19.209  0.00  0.00    +0.000 A 
ATOM      9  N   UNL     1       3.973   4.607  19.678  0.00  0.00    +0.000 NA
ATOM     10  N   UNL     1       2.868   4.390  20.407  0.00  0.00    +0.000 N 
ATOM     11  C   UNL     1       2.013   5.450  20.429  0.00  0.00    +0.000 A 
ATOM     12  H   UNL     1       2.754   3.485  20.849  0.00  0.00    +0.000 HD
ENDBRANCH   4   7
BRANCH   1  15
ATOM     13  C   UNL     1      -1.095  11.448  17.797  0.00  0.00    +0.000 C 
ATOM     14  O   UNL     1      -1.517  12.592  17.600  0.00  0.00    +0.000 OA
ATOM     15  N   UNL     1       0.123  11.337  18.420  0.00  0.00    +0.000 N 
ATOM     16  H   UNL     1       0.651  12.199  18.407  0.00  0.00    +0.000 HD
BRANCH  13  24
ATOM     17  C   UNL     1      -5.700  12.202  18.946  0.00  0.00    +0.000 A 
ATOM     18  C   UNL     1      -5.934  12.723  17.670  0.00  0.00    +0.000 A 
ATOM     19  C   UNL     1      -5.267  12.203  16.555  0.00  0.00    +0.000 A 
ATOM     20  C   UNL     1      -4.329  11.186  16.718  0.00  0.00    +0.000 A 
ATOM     21  C   UNL     1      -4.088  10.678  18.002  0.00  0.00    +0.000 A 
ATOM     22  C   UNL     1      -4.789  11.160  19.105  0.00  0.00    +0.000 A 
ATOM     23  C   UNL     1      -2.946   9.720  18.159  0.00  0.00    +0.000 C 
ATOM     24  C   UNL     1      -1.795  10.156  17.245  0.00  0.00    +0.000 C 
ATOM     25  N   UNL     1      -2.140  10.375  15.812  0.00  0.00    +0.000 NA
ATOM     26  C   UNL     1      -3.565  10.608  15.557  0.00  0.00    +0.000 C 
ATOM     27  H   UNL     1      -1.856   9.552  15.283  0.00  0.00    +0.000 HD
BRANCH  17  29
ATOM     28  C   UNL     1      -6.771  13.964  20.106  0.00  0.00    +0.000 C 
ATOM     29  O   UNL     1      -6.271  12.636  20.111  0.00  0.00    +0.000 OA
ENDBRANCH  17  29
ENDBRANCH  13  24
ENDBRANCH   1  15
BRANCH   6  30
ATOM     30  O   UNL     1      -0.292  10.151  20.887  0.00  0.00    +0.000 OA
BRANCH  30  31
ATOM     31  C   UNL     1       0.190  11.410  21.350  0.00  0.00    +0.000 C 
BRANCH  31  32
ATOM     32  C   UNL     1      -0.915  12.153  22.088  0.00  0.00    +0.000 C 
ATOM     33  C   UNL     1      -1.635  11.248  23.094  0.00  0.00    +0.000 C 
ATOM     34  C   UNL     1      -2.836  11.959  23.707  0.00  0.00    +0.000 C 
ATOM     35  N   UNL     1      -3.758  12.434  22.666  0.00  0.00    +0.000 NA
ATOM     36  C   UNL     1      -4.924  13.067  23.280  0.00  0.00    +0.000 C 
ATOM     37  C   UNL     1      -3.099  13.371  21.749  0.00  0.00    +0.000 C 
ATOM     38  C   UNL     1      -1.911  12.709  21.064  0.00  0.00    +0.000 C 
ENDBRANCH  31  32
ENDBRANCH  30  31
ENDBRANCH   6  30
TORSDOF 7
ENDMDL
MODEL 2
REMARK VINA RESULT:      -7.4      1.001      1.266
REMARK  Name = 
REMARK  9 active torsions:
REMARK  status: ('A' for Active; 'I' for Inactive)
REMARK    1  A    between atoms: C_1  and  O_2
REMARK    2  A    between atoms: O_2  and  C_3
REMARK    3  A    between atoms: C_10  and  C_11
REMARK    4  A    between atoms: N_13  and  C_14
REMARK    5  A    between atoms: C_17  and  C_18
REMARK    6  A    between atoms: C_24  and  O_25
REMARK    7  A    between atoms: O_25  and  C_26
REMARK    8  A    between atoms: C_26  and  C_27
REMARK    9  A    between atoms: N_30  and  C_31
REMARK                            x       y       z     vdW  Elec       q    Type
REMARK                         _______ _______ _______ _____ _____    ______ ____
ROOT
ATOM      1  C   UNL     1       0.769  10.151  18.790  0.00  0.00    +0.000 A 
ATOM      2  C   UNL     1       1.683   9.671  17.851  0.00  0.00    +0.000 A 
ATOM      3  C   UNL     1       2.301   8.437  18.061  0.00  0.00    +0.000 A 
ATOM      4  C   UNL     1       2.035   7.702  19.220  0.00  0.00    +0.000 A 
ATOM      5  C   UNL     1       1.141   8.209  20.166  0.00  0.00    +0.000 A 
ATOM      6  C   UNL     1       0.533   9.444  19.978  0.00  0.00    +0.000 A 
ENDROOT
BRANCH   4   7
ATOM      7  C   UNL     1       2.688   6.446  19.514  0.00  0.00    +0.000 A 
ATOM      8  C   UNL     1       3.876   5.881  18.992  0.00  0.00    +0.000 A 
ATOM      9  N   UNL     1       4.083   4.635  19.426  0.00  0.00    +0.000 NA
ATOM     10  N   UNL     1       3.021   4.394  20.208  0.00  0.00    +0.000 N 
ATOM     11  C   UNL     1       2.159   5.445  20.297  0.00  0.00    +0.000 A 
ATOM     12  H   UNL     1       2.938   3.479  20.637  0.00  0.00    +0.000 HD
ENDBRANCH   4   7
BRANCH   1  15
ATOM     13  C   UNL     1      -1.113  11.459  17.887  0.00  0.00    +0.000 C 
ATOM     14  O   UNL     1      -1.561  12.601  17.744  0.00  0.00    +0.000 OA
ATOM     15  N   UNL     1       0.106  11.347  18.507  0.00  0.00    +0.000 N 
ATOM     16  H   UNL     1       0.614  12.221  18.537  0.00  0.00    +0.000 HD
BRANCH  13  24
ATOM     17  C   UNL     1      -5.751  12.104  18.966  0.00  0.00    +0.000 A 
ATOM     18  C   UNL     1      -5.967  12.669  17.705  0.00  0.00    +0.000 A 
ATOM     19  C   UNL     1      -5.270  12.201  16.586  0.00  0.00    +0.000 A 
ATOM     20  C   UNL     1      -4.320  11.193  16.731  0.00  0.00    +0.000 A 
ATOM     21  C   UNL     1      -4.098  10.640  18.000  0.00  0.00    +0.000 A 
ATOM     22  C   UNL     1      -4.828  11.070  19.105  0.00  0.00    +0.000 A 
ATOM     23  C   UNL     1      -2.945   9.693  18.145  0.00  0.00    +0.000 C 
ATOM     24  C   UNL     1      -1.782  10.179  17.273  0.00  0.00    +0.000 C 
ATOM     25  N   UNL     1      -2.101  10.447  15.842  0.00  0.00    +0.000 NA
ATOM     26  C   UNL     1      -3.524  10.669  15.566  0.00  0.00    +0.000 C 
ATOM     27  H   UNL     1      -1.794   9.648  15.288  0.00  0.00    +0.000 HD
BRANCH  17  29
ATOM     28  C   UNL     1      -7.283  11.567  20.687  0.00  0.00    +0.000 C 
ATOM     29  O   UNL     1      -6.353  12.485  20.134  0.00  0.00    +0.000 OA
ENDBRANCH  17  29
ENDBRANCH  13  24
ENDBRANCH   1  15
BRANCH   6  30
ATOM     30  O   UNL     1      -0.295  10.029  20.908  0.00  0.00    +0.000 OA
BRANCH  30  31
ATOM     31  C   UNL     1       0.337  10.919  21.823  0.00  0.00    +0.000 C 
BRANCH  31  32
ATOM     32  C   UNL     1      -0.541  12.142  22.055  0.00  0.00    +0.000 C 
ATOM     33  C   UNL     1      -1.918  11.983  21.400  0.00  0.00    +0.000 C 
ATOM     34  C   UNL     1      -2.724  13.273  21.504  0.00  0.00    +0.000 C 
ATOM     35  N   UNL     1      -1.989  14.406  20.925  0.00  0.00    +0.000 NA
ATOM     36  C   UNL     1      -2.802  15.618  20.991  0.00  0.00    +0.000 C 
ATOM     37  C   UNL     1      -0.706  14.618  21.605  0.00  0.00    +0.000 C 
ATOM     38  C   UNL     1       0.173  13.379  21.501  0.00  0.00    +0.000 C 
ENDBRANCH  31  32
ENDBRANCH  30  31
ENDBRANCH   6  30
TORSDOF 7
ENDMDL
MODEL 3
REMARK VINA RESULT:      -7.3      0.951      1.366
REMARK  Name = 
REMARK  9 active torsions:
REMARK  status: ('A' for Active; 'I' for Inactive)
REMARK    1  A    between atoms: C_1  and  O_2
REMARK    2  A    between atoms: O_2  and  C_3
REMARK    3  A    between atoms: C_10  and  C_11
REMARK    4  A    between atoms: N_13  and  C_14
REMARK    5  A    between atoms: C_17  and  C_18
REMARK    6  A    between atoms: C_24  and  O_25
REMARK    7  A    between atoms: O_25  and  C_26
REMARK    8  A    between atoms: C_26  and  C_27
REMARK    9  A    between atoms: N_30  and  C_31
REMARK                            x       y       z     vdW  Elec       q    Type
REMARK                         _______ _______ _______ _____ _____    ______ ____
ROOT
ATOM      1  C   UNL     1       0.745  10.143  18.781  0.00  0.00    +0.000 A 
ATOM      2  C   UNL     1       1.658   9.885  17.759  0.00  0.00    +0.000 A 
ATOM      3  C   UNL     1       2.384   8.692  17.769  0.00  0.00    +0.000 A 
ATOM      4  C   UNL     1       2.224   7.778  18.815  0.00  0.00    +0.000 A 
ATOM      5  C   UNL     1       1.329   8.064  19.847  0.00  0.00    +0.000 A 
ATOM      6  C   UNL     1       0.614   9.255  19.858  0.00  0.00    +0.000 A 
ENDROOT
BRANCH   4   7
ATOM      7  C   UNL     1       2.991   6.554  18.904  0.00  0.00    +0.000 A 
ATOM      8  C   UNL     1       2.970   5.524  19.874  0.00  0.00    +0.000 A 
ATOM      9  N   UNL     1       3.926   4.614  19.672  0.00  0.00    +0.000 NA
ATOM     10  N   UNL     1       4.571   5.070  18.588  0.00  0.00    +0.000 N 
ATOM     11  C   UNL     1       4.049   6.225  18.089  0.00  0.00    +0.000 A 
ATOM     12  H   UNL     1       5.374   4.550  18.252  0.00  0.00    +0.000 HD
ENDBRANCH   4   7
BRANCH   1  15
ATOM     13  C   UNL     1      -1.276  11.397  18.135  0.00  0.00    +0.000 C 
ATOM     14  O   UNL     1      -1.821  12.504  18.172  0.00  0.00    +0.000 OA
ATOM     15  N   UNL     1      -0.025  11.305  18.694  0.00  0.00    +0.000 N 
ATOM     16  H   UNL     1       0.410  12.207  18.833  0.00  0.00    +0.000 HD
BRANCH  13  24
ATOM     17  C   UNL     1      -6.009  11.979  18.722  0.00  0.00    +0.000 A 
ATOM     18  C   UNL     1      -6.084  12.627  17.486  0.00  0.00    +0.000 A 
ATOM     19  C   UNL     1      -5.262  12.234  16.424  0.00  0.00    +0.000 A 
ATOM     20  C   UNL     1      -4.330  11.216  16.608  0.00  0.00    +0.000 A 
ATOM     21  C   UNL     1      -4.250  10.579  17.854  0.00  0.00    +0.000 A 
ATOM     22  C   UNL     1      -5.103  10.935  18.896  0.00  0.00    +0.000 A 
ATOM     23  C   UNL     1      -3.116   9.621  18.065  0.00  0.00    +0.000 C 
ATOM     24  C   UNL     1      -1.864  10.162  17.366  0.00  0.00    +0.000 C 
ATOM     25  N   UNL     1      -2.021  10.526  15.929  0.00  0.00    +0.000 NA
ATOM     26  C   UNL     1      -3.404  10.769  15.509  0.00  0.00    +0.000 C 
ATOM     27  H   UNL     1      -1.648   9.765  15.362  0.00  0.00    +0.000 HD
BRANCH  17  29
ATOM     28  C   UNL     1      -6.055  12.206  21.077  0.00  0.00    +0.000 C 
ATOM     29  O   UNL     1      -6.742  12.283  19.837  0.00  0.00    +0.000 OA
ENDBRANCH  17  29
ENDBRANCH  13  24
ENDBRANCH   1  15
BRANCH   6  30
ATOM     30  O   UNL     1      -0.224   9.624  20.885  0.00  0.00    +0.000 OA
BRANCH  30  31
ATOM     31  C   UNL     1       0.251  10.678  21.719  0.00  0.00    +0.000 C 
BRANCH  31  32
ATOM     32  C   UNL     1      -0.830  11.739  21.886  0.00  0.00    +0.000 C 
ATOM     33  C   UNL     1      -0.230  13.143  22.019  0.00  0.00    +0.000 C 
ATOM     34  C   UNL     1      -1.310  14.170  22.343  0.00  0.00    +0.000 C 
ATOM     35  N   UNL     1      -2.052  13.793  23.554  0.00  0.00    +0.000 NA
ATOM     36  C   UNL     1      -3.046  14.817  23.872  0.00  0.00    +0.000 C 
ATOM     37  C   UNL     1      -2.702  12.486  23.403  0.00  0.00    +0.000 C 
ATOM     38  C   UNL     1      -1.672  11.400  23.120  0.00  0.00    +0.000 C 
ENDBRANCH  31  32
ENDBRANCH  30  31
ENDBRANCH   6  30
TORSDOF 7
ENDMDL
MODEL 4
REMARK VINA RESULT:      -7.3      3.447      5.280
REMARK  Name = 
REMARK  9 active torsions:
REMARK  status: ('A' for Active; 'I' for Inactive)
REMARK    1  A    between atoms: C_1  and  O_2
REMARK    2  A    between atoms: O_2  and  C_3
REMARK    3  A    between atoms: C_10  and  C_11
REMARK    4  A    between atoms: N_13  and  C_14
REMARK    5  A    between atoms: C_17  and  C_18
REMARK    6  A    between atoms: C_24  and  O_25
REMARK    7  A    between atoms: O_25  and  C_26
REMARK    8  A    between atoms: C_26  and  C_27
REMARK    9  A    between atoms: N_30  and  C_31
REMARK                            x       y       z     vdW  Elec       q    Type
REMARK                         _______ _______ _______ _____ _____    ______ ____
ROOT
ATOM      1  C   UNL     1       0.763  10.527  19.260  0.00  0.00    +0.000 A 
ATOM      2  C   UNL     1       1.169   9.793  18.145  0.00  0.00    +0.000 A 
ATOM      3  C   UNL     1       1.683   8.506  18.318  0.00  0.00    +0.000 A 
ATOM      4  C   UNL     1       1.824   7.970  19.602  0.00  0.00    +0.000 A 
ATOM      5  C   UNL     1       1.443   8.728  20.710  0.00  0.00    +0.000 A 
ATOM      6  C   UNL     1       0.947  10.016  20.552  0.00  0.00    +0.000 A 
ENDROOT
BRANCH   4   7
ATOM      7  C   UNL     1       2.402   6.665  19.842  0.00  0.00    +0.000 A 
ATOM      8  C   UNL     1       3.540   6.044  19.276  0.00  0.00    +0.000 A 
ATOM      9  N   UNL     1       3.675   4.774  19.666  0.00  0.00    +0.000 NA
ATOM     10  N   UNL     1       2.616   4.575  20.463  0.00  0.00    +0.000 N 
ATOM     11  C   UNL     1       1.825   5.676  20.604  0.00  0.00    +0.000 A 
ATOM     12  H   UNL     1       2.483   3.654  20.865  0.00  0.00    +0.000 HD
ENDBRANCH   4   7
BRANCH   1  15
ATOM     13  C   UNL     1       0.838  12.977  19.009  0.00  0.00    +0.000 C 
ATOM     14  O   UNL     1       0.157  13.981  18.778  0.00  0.00    +0.000 OA
ATOM     15  N   UNL     1       0.175  11.775  19.044  0.00  0.00    +0.000 N 
ATOM     16  H   UNL     1      -0.826  11.882  19.139  0.00  0.00    +0.000 HD
BRANCH  13  24
ATOM     17  C   UNL     1       1.949  17.588  18.237  0.00  0.00    +0.000 A 
ATOM     18  C   UNL     1       1.716  17.871  19.586  0.00  0.00    +0.000 A 
ATOM     19  C   UNL     1       2.029  16.933  20.575  0.00  0.00    +0.000 A 
ATOM     20  C   UNL     1       2.538  15.687  20.215  0.00  0.00    +0.000 A 
ATOM     21  C   UNL     1       2.757  15.404  18.860  0.00  0.00    +0.000 A 
ATOM     22  C   UNL     1       2.493  16.357  17.878  0.00  0.00    +0.000 A 
ATOM     23  C   UNL     1       3.129  13.997  18.503  0.00  0.00    +0.000 C 
ATOM     24  C   UNL     1       2.356  13.028  19.405  0.00  0.00    +0.000 C 
ATOM     25  N   UNL     1       2.459  13.272  20.872  0.00  0.00    +0.000 NA
ATOM     26  C   UNL     1       2.869  14.632  21.236  0.00  0.00    +0.000 C 
ATOM     27  H   UNL     1       3.141  12.622  21.260  0.00  0.00    +0.000 HD
BRANCH  17  29
ATOM     28  C   UNL     1       0.332  18.382  16.703  0.00  0.00    +0.000 C 
ATOM     29  O   UNL     1       1.668  18.411  17.180  0.00  0.00    +0.000 OA
ENDBRANCH  17  29
ENDBRANCH  13  24
ENDBRANCH   1  15
BRANCH   6  30
ATOM     30  O   UNL     1       0.627  10.838  21.609  0.00  0.00    +0.000 OA
BRANCH  30  31
ATOM     31  C   UNL     1      -0.620  10.569  22.244  0.00  0.00    +0.000 C 
BRANCH  31  32
ATOM     32  C   UNL     1      -1.481  11.824  22.258  0.00  0.00    +0.000 C 
ATOM     33  C   UNL     1      -0.637  13.089  22.447  0.00  0.00    +0.000 C 
ATOM     34  C   UNL     1      -1.524  14.318  22.618  0.00  0.00    +0.000 C 
ATOM     35  N   UNL     1      -2.468  14.139  23.729  0.00  0.00    +0.000 NA
ATOM     36  C   UNL     1      -3.271  15.348  23.904  0.00  0.00    +0.000 C 
ATOM     37  C   UNL     1      -3.340  12.978  23.514  0.00  0.00    +0.000 C 
ATOM     38  C   UNL     1      -2.518  11.703  23.380  0.00  0.00    +0.000 C 
ENDBRANCH  31  32
ENDBRANCH  30  31
ENDBRANCH   6  30
TORSDOF 7
ENDMDL
MODEL 5
REMARK VINA RESULT:      -7.1      1.260      1.619
REMARK  Name = 
REMARK  9 active torsions:
REMARK  status: ('A' for Active; 'I' for Inactive)
REMARK    1  A    between atoms: C_1  and  O_2
REMARK    2  A    between atoms: O_2  and  C_3
REMARK    3  A    between atoms: C_10  and  C_11
REMARK    4  A    between atoms: N_13  and  C_14
REMARK    5  A    between atoms: C_17  and  C_18
REMARK    6  A    between atoms: C_24  and  O_25
REMARK    7  A    between atoms: O_25  and  C_26
REMARK    8  A    between atoms: C_26  and  C_27
REMARK    9  A    between atoms: N_30  and  C_31
REMARK                            x       y       z     vdW  Elec       q    Type
REMARK                         _______ _______ _______ _____ _____    ______ ____
ROOT
ATOM      1  C   UNL     1       0.758  10.152  18.735  0.00  0.00    +0.000 A 
ATOM      2  C   UNL     1       1.741   9.703  17.854  0.00  0.00    +0.000 A 
ATOM      3  C   UNL     1       2.359   8.471  18.082  0.00  0.00    +0.000 A 
ATOM      4  C   UNL     1       2.020   7.709  19.204  0.00  0.00    +0.000 A 
ATOM      5  C   UNL     1       1.056   8.186  20.093  0.00  0.00    +0.000 A 
ATOM      6  C   UNL     1       0.447   9.418  19.888  0.00  0.00    +0.000 A 
ENDROOT
BRANCH   4   7
ATOM      7  C   UNL     1       2.667   6.454  19.518  0.00  0.00    +0.000 A 
ATOM      8  C   UNL     1       3.860   5.882  19.015  0.00  0.00    +0.000 A 
ATOM      9  N   UNL     1       4.058   4.640  19.464  0.00  0.00    +0.000 NA
ATOM     10  N   UNL     1       2.986   4.408  20.234  0.00  0.00    +0.000 N 
ATOM     11  C   UNL     1       2.125   5.462  20.303  0.00  0.00    +0.000 A 
ATOM     12  H   UNL     1       2.895   3.497  20.671  0.00  0.00    +0.000 HD
ENDBRANCH   4   7
BRANCH   1  15
ATOM     13  C   UNL     1      -1.117  11.455  17.806  0.00  0.00    +0.000 C 
ATOM     14  O   UNL     1      -1.558  12.596  17.643  0.00  0.00    +0.000 OA
ATOM     15  N   UNL     1       0.101  11.347  18.431  0.00  0.00    +0.000 N 
ATOM     16  H   UNL     1       0.613  12.219  18.446  0.00  0.00    +0.000 HD
BRANCH  13  24
ATOM     17  C   UNL     1      -5.739  12.095  18.950  0.00  0.00    +0.000 A 
ATOM     18  C   UNL     1      -5.976  12.649  17.688  0.00  0.00    +0.000 A 
ATOM     19  C   UNL     1      -5.295  12.174  16.563  0.00  0.00    +0.000 A 
ATOM     20  C   UNL     1      -4.340  11.169  16.701  0.00  0.00    +0.000 A 
ATOM     21  C   UNL     1      -4.097  10.628  17.971  0.00  0.00    +0.000 A 
ATOM     22  C   UNL     1      -4.812  11.065  19.084  0.00  0.00    +0.000 A 
ATOM     23  C   UNL     1      -2.939   9.685  18.106  0.00  0.00    +0.000 C 
ATOM     24  C   UNL     1      -1.791  10.168  17.213  0.00  0.00    +0.000 C 
ATOM     25  N   UNL     1      -2.132  10.423  15.785  0.00  0.00    +0.000 NA
ATOM     26  C   UNL     1      -3.560  10.639  15.529  0.00  0.00    +0.000 C 
ATOM     27  H   UNL     1      -1.831   9.620  15.233  0.00  0.00    +0.000 HD
BRANCH  17  29
ATOM     28  C   UNL     1      -7.474  11.753  20.523  0.00  0.00    +0.000 C 
ATOM     29  O   UNL     1      -6.325  12.485  20.124  0.00  0.00    +0.000 OA
ENDBRANCH  17  29
ENDBRANCH  13  24
ENDBRANCH   1  15
BRANCH   6  30
ATOM     30  O   UNL     1      -0.453   9.973  20.769  0.00  0.00    +0.000 OA
BRANCH  30  31
ATOM     31  C   UNL     1       0.115  10.720  21.841  0.00  0.00    +0.000 C 
BRANCH  31  32
ATOM     32  C   UNL     1      -0.413  12.148  21.820  0.00  0.00    +0.000 C 
ATOM     33  C   UNL     1       0.706  13.163  21.561  0.00  0.00    +0.000 C 
ATOM     34  C   UNL     1       0.191  14.592  21.700  0.00  0.00    +0.000 C 
ATOM     35  N   UNL     1      -0.426  14.806  23.017  0.00  0.00    +0.000 NA
ATOM     36  C   UNL     1      -0.865  16.195  23.144  0.00  0.00    +0.000 C 
ATOM     37  C   UNL     1      -1.555  13.895  23.237  0.00  0.00    +0.000 C 
ATOM     38  C   UNL     1      -1.101  12.444  23.157  0.00  0.00    +0.000 C 
ENDBRANCH  31  32
ENDBRANCH  30  31
ENDBRANCH   6  30
TORSDOF 7
ENDMDL
MODEL 6
REMARK VINA RESULT:      -7.0      3.386      5.271
REMARK  Name = 
REMARK  9 active torsions:
REMARK  status: ('A' for Active; 'I' for Inactive)
REMARK    1  A    between atoms: C_1  and  O_2
REMARK    2  A    between atoms: O_2  and  C_3
REMARK    3  A    between atoms: C_10  and  C_11
REMARK    4  A    between atoms: N_13  and  C_14
REMARK    5  A    between atoms: C_17  and  C_18
REMARK    6  A    between atoms: C_24  and  O_25
REMARK    7  A    between atoms: O_25  and  C_26
REMARK    8  A    between atoms: C_26  and  C_27
REMARK    9  A    between atoms: N_30  and  C_31
REMARK                            x       y       z     vdW  Elec       q    Type
REMARK                         _______ _______ _______ _____ _____    ______ ____
ROOT
ATOM      1  C   UNL     1       0.872  10.395  18.907  0.00  0.00    +0.000 A 
ATOM      2  C   UNL     1       1.442   9.662  17.866  0.00  0.00    +0.000 A 
ATOM      3  C   UNL     1       1.952   8.387  18.120  0.00  0.00    +0.000 A 
ATOM      4  C   UNL     1       1.923   7.861  19.415  0.00  0.00    +0.000 A 
ATOM      5  C   UNL     1       1.377   8.619  20.453  0.00  0.00    +0.000 A 
ATOM      6  C   UNL     1       0.884   9.896  20.217  0.00  0.00    +0.000 A 
ENDROOT
BRANCH   4   7
ATOM      7  C   UNL     1       2.486   6.570  19.745  0.00  0.00    +0.000 A 
ATOM      8  C   UNL     1       3.608   5.892  19.213  0.00  0.00    +0.000 A 
ATOM      9  N   UNL     1       3.732   4.653  19.695  0.00  0.00    +0.000 NA
ATOM     10  N   UNL     1       2.680   4.529  20.517  0.00  0.00    +0.000 N 
ATOM     11  C   UNL     1       1.906   5.648  20.585  0.00  0.00    +0.000 A 
ATOM     12  H   UNL     1       2.540   3.642  20.988  0.00  0.00    +0.000 HD
ENDBRANCH   4   7
BRANCH   1  15
ATOM     13  C   UNL     1       0.927  12.847  18.673  0.00  0.00    +0.000 C 
ATOM     14  O   UNL     1       0.268  13.836  18.336  0.00  0.00    +0.000 OA
ATOM     15  N   UNL     1       0.297  11.630  18.601  0.00  0.00    +0.000 N 
ATOM     16  H   UNL     1      -0.709  11.712  18.534  0.00  0.00    +0.000 HD
BRANCH  13  24
ATOM     17  C   UNL     1       1.951  17.526  18.281  0.00  0.00    +0.000 A 
ATOM     18  C   UNL     1       1.497  17.736  19.587  0.00  0.00    +0.000 A 
ATOM     19  C   UNL     1       1.689  16.763  20.573  0.00  0.00    +0.000 A 
ATOM     20  C   UNL     1       2.301  15.554  20.246  0.00  0.00    +0.000 A 
ATOM     21  C   UNL     1       2.741  15.345  18.932  0.00  0.00    +0.000 A 
ATOM     22  C   UNL     1       2.595  16.333  17.962  0.00  0.00    +0.000 A 
ATOM     23  C   UNL     1       3.224  13.970  18.581  0.00  0.00    +0.000 C 
ATOM     24  C   UNL     1       2.360  12.932  19.307  0.00  0.00    +0.000 C 
ATOM     25  N   UNL     1       2.221  13.109  20.780  0.00  0.00    +0.000 NA
ATOM     26  C   UNL     1       2.512  14.463  21.261  0.00  0.00    +0.000 C 
ATOM     27  H   UNL     1       2.861  12.466  21.244  0.00  0.00    +0.000 HD
BRANCH  17  29
ATOM     28  C   UNL     1       0.557  18.346  16.553  0.00  0.00    +0.000 C 
ATOM     29  O   UNL     1       1.805  18.388  17.229  0.00  0.00    +0.000 OA
ENDBRANCH  17  29
ENDBRANCH  13  24
ENDBRANCH   1  15
BRANCH   6  30
ATOM     30  O   UNL     1       0.405  10.717  21.212  0.00  0.00    +0.000 OA
BRANCH  30  31
ATOM     31  C   UNL     1      -0.949  10.494  21.597  0.00  0.00    +0.000 C 
BRANCH  31  32
ATOM     32  C   UNL     1      -1.649  11.824  21.841  0.00  0.00    +0.000 C 
ATOM     33  C   UNL     1      -2.257  12.389  20.553  0.00  0.00    +0.000 C 
ATOM     34  C   UNL     1      -2.814  13.791  20.781  0.00  0.00    +0.000 C 
ATOM     35  N   UNL     1      -1.784  14.689  21.319  0.00  0.00    +0.000 NA
ATOM     36  C   UNL     1      -2.327  16.036  21.481  0.00  0.00    +0.000 C 
ATOM     37  C   UNL     1      -1.257  14.198  22.598  0.00  0.00    +0.000 C 
ATOM     38  C   UNL     1      -0.642  12.815  22.434  0.00  0.00    +0.000 C 
ENDBRANCH  31  32
ENDBRANCH  30  31
ENDBRANCH   6  30
TORSDOF 7
ENDMDL
MODEL 7
REMARK VINA RESULT:      -6.9      3.601      7.820
REMARK  Name = 
REMARK  9 active torsions:
REMARK  status: ('A' for Active; 'I' for Inactive)
REMARK    1  A    between atoms: C_1  and  O_2
REMARK    2  A    between atoms: O_2  and  C_3
REMARK    3  A    between atoms: C_10  and  C_11
REMARK    4  A    between atoms: N_13  and  C_14
REMARK    5  A    between atoms: C_17  and  C_18
REMARK    6  A    between atoms: C_24  and  O_25
REMARK    7  A    between atoms: O_25  and  C_26
REMARK    8  A    between atoms: C_26  and  C_27
REMARK    9  A    between atoms: N_30  and  C_31
REMARK                            x       y       z     vdW  Elec       q    Type
REMARK                         _______ _______ _______ _____ _____    ______ ____
ROOT
ATOM      1  C   UNL     1       0.191  11.875  19.678  0.00  0.00    +0.000 A 
ATOM      2  C   UNL     1      -0.930  12.686  19.499  0.00  0.00    +0.000 A 
ATOM      3  C   UNL     1      -1.912  12.311  18.580  0.00  0.00    +0.000 A 
ATOM      4  C   UNL     1      -1.758  11.148  17.819  0.00  0.00    +0.000 A 
ATOM      5  C   UNL     1      -0.617  10.362  17.987  0.00  0.00    +0.000 A 
ATOM      6  C   UNL     1       0.376  10.734  18.885  0.00  0.00    +0.000 A 
ENDROOT
BRANCH   4   7
ATOM      7  C   UNL     1      -2.716  10.741  16.815  0.00  0.00    +0.000 A 
ATOM      8  C   UNL     1      -2.573   9.881  15.701  0.00  0.00    +0.000 A 
ATOM      9  N   UNL     1      -3.664   9.857  14.931  0.00  0.00    +0.000 NA
ATOM     10  N   UNL     1      -4.496  10.716  15.537  0.00  0.00    +0.000 N 
ATOM     11  C   UNL     1      -3.978  11.269  16.670  0.00  0.00    +0.000 A 
ATOM     12  H   UNL     1      -5.399  10.893  15.111  0.00  0.00    +0.000 HD
ENDBRANCH   4   7
BRANCH   1  15
ATOM     13  C   UNL     1       2.120  13.156  20.520  0.00  0.00    +0.000 C 
ATOM     14  O   UNL     1       2.823  13.370  21.512  0.00  0.00    +0.000 OA
ATOM     15  N   UNL     1       1.111  12.236  20.665  0.00  0.00    +0.000 N 
ATOM     16  H   UNL     1       1.227  11.651  21.481  0.00  0.00    +0.000 HD
BRANCH  13  24
ATOM     17  C   UNL     1       0.974  17.786  21.103  0.00  0.00    +0.000 A 
ATOM     18  C   UNL     1       2.314  18.085  21.369  0.00  0.00    +0.000 A 
ATOM     19  C   UNL     1       3.341  17.398  20.714  0.00  0.00    +0.000 A 
ATOM     20  C   UNL     1       3.032  16.376  19.819  0.00  0.00    +0.000 A 
ATOM     21  C   UNL     1       1.687  16.071  19.567  0.00  0.00    +0.000 A 
ATOM     22  C   UNL     1       0.664  16.790  20.181  0.00  0.00    +0.000 A 
ATOM     23  C   UNL     1       1.401  14.851  18.744  0.00  0.00    +0.000 C 
ATOM     24  C   UNL     1       2.413  13.756  19.101  0.00  0.00    +0.000 C 
ATOM     25  N   UNL     1       3.851  14.144  19.033  0.00  0.00    +0.000 NA
ATOM     26  C   UNL     1       4.097  15.587  19.105  0.00  0.00    +0.000 C 
ATOM     27  H   UNL     1       4.236  13.802  18.154  0.00  0.00    +0.000 HD
BRANCH  17  29
ATOM     28  C   UNL     1      -1.326  17.635  21.636  0.00  0.00    +0.000 C 
ATOM     29  O   UNL     1      -0.114  18.371  21.691  0.00  0.00    +0.000 OA
ENDBRANCH  17  29
ENDBRANCH  13  24
ENDBRANCH   1  15
BRANCH   6  30
ATOM     30  O   UNL     1       1.556  10.042  19.037  0.00  0.00    +0.000 OA
BRANCH  30  31
ATOM     31  C   UNL     1       2.063   9.420  17.860  0.00  0.00    +0.000 C 
BRANCH  31  32
ATOM     32  C   UNL     1       2.213   7.921  18.084  0.00  0.00    +0.000 C 
ATOM     33  C   UNL     1       2.154   7.561  19.572  0.00  0.00    +0.000 C 
ATOM     34  C   UNL     1       2.464   6.084  19.790  0.00  0.00    +0.000 C 
ATOM     35  N   UNL     1       3.764   5.724  19.208  0.00  0.00    +0.000 NA
ATOM     36  C   UNL     1       4.060   4.317  19.473  0.00  0.00    +0.000 C 
ATOM     37  C   UNL     1       3.799   5.985  17.764  0.00  0.00    +0.000 C 
ATOM     38  C   UNL     1       3.541   7.458  17.475  0.00  0.00    +0.000 C 
ENDBRANCH  31  32
ENDBRANCH  30  31
ENDBRANCH   6  30
TORSDOF 7
ENDMDL
MODEL 8
REMARK VINA RESULT:      -6.9      3.695      7.127
REMARK  Name = 
REMARK  9 active torsions:
REMARK  status: ('A' for Active; 'I' for Inactive)
REMARK    1  A    between atoms: C_1  and  O_2
REMARK    2  A    between atoms: O_2  and  C_3
REMARK    3  A    between atoms: C_10  and  C_11
REMARK    4  A    between atoms: N_13  and  C_14
REMARK    5  A    between atoms: C_17  and  C_18
REMARK    6  A    between atoms: C_24  and  O_25
REMARK    7  A    between atoms: O_25  and  C_26
REMARK    8  A    between atoms: C_26  and  C_27
REMARK    9  A    between atoms: N_30  and  C_31
REMARK                            x       y       z     vdW  Elec       q    Type
REMARK                         _______ _______ _______ _____ _____    ______ ____
ROOT
ATOM      1  C   UNL     1      -1.077  13.179  21.636  0.00  0.00    +0.000 A 
ATOM      2  C   UNL     1      -0.118  14.023  22.196  0.00  0.00    +0.000 A 
ATOM      3  C   UNL     1       0.536  14.955  21.388  0.00  0.00    +0.000 A 
ATOM      4  C   UNL     1       0.257  15.020  20.020  0.00  0.00    +0.000 A 
ATOM      5  C   UNL     1      -0.682  14.149  19.467  0.00  0.00    +0.000 A 
ATOM      6  C   UNL     1      -1.326  13.204  20.256  0.00  0.00    +0.000 A 
ENDROOT
BRANCH   4   7
ATOM      7  C   UNL     1       0.944  15.928  19.127  0.00  0.00    +0.000 A 
ATOM      8  C   UNL     1       2.306  15.992  18.747  0.00  0.00    +0.000 A 
ATOM      9  N   UNL     1       2.576  17.062  17.996  0.00  0.00    +0.000 NA
ATOM     10  N   UNL     1       1.397  17.693  17.911  0.00  0.00    +0.000 N 
ATOM     11  C   UNL     1       0.388  17.055  18.567  0.00  0.00    +0.000 A 
ATOM     12  H   UNL     1       1.356  18.570  17.402  0.00  0.00    +0.000 HD
ENDBRANCH   4   7
BRANCH   1  15
ATOM     13  C   UNL     1      -2.966  12.593  23.105  0.00  0.00    +0.000 C 
ATOM     14  O   UNL     1      -3.450  11.698  23.805  0.00  0.00    +0.000 OA
ATOM     15  N   UNL     1      -1.771  12.318  22.488  0.00  0.00    +0.000 N 
ATOM     16  H   UNL     1      -1.298  11.519  22.888  0.00  0.00    +0.000 HD
BRANCH  13  24
ATOM     17  C   UNL     1      -6.945  11.910  20.499  0.00  0.00    +0.000 A 
ATOM     18  C   UNL     1      -7.698  11.811  21.673  0.00  0.00    +0.000 A 
ATOM     19  C   UNL     1      -7.374  12.580  22.795  0.00  0.00    +0.000 A 
ATOM     20  C   UNL     1      -6.265  13.424  22.762  0.00  0.00    +0.000 A 
ATOM     21  C   UNL     1      -5.506  13.508  21.586  0.00  0.00    +0.000 A 
ATOM     22  C   UNL     1      -5.859  12.781  20.452  0.00  0.00    +0.000 A 
ATOM     23  C   UNL     1      -4.224  14.282  21.651  0.00  0.00    +0.000 C 
ATOM     24  C   UNL     1      -3.561  14.042  23.013  0.00  0.00    +0.000 C 
ATOM     25  N   UNL     1      -4.414  14.286  24.210  0.00  0.00    +0.000 NA
ATOM     26  C   UNL     1      -5.856  14.255  23.947  0.00  0.00    +0.000 C 
ATOM     27  H   UNL     1      -4.182  15.203  24.590  0.00  0.00    +0.000 HD
BRANCH  17  29
ATOM     28  C   UNL     1      -7.146  11.948  18.141  0.00  0.00    +0.000 C 
ATOM     29  O   UNL     1      -7.150  11.199  19.347  0.00  0.00    +0.000 OA
ENDBRANCH  17  29
ENDBRANCH  13  24
ENDBRANCH   1  15
BRANCH   6  30
ATOM     30  O   UNL     1      -2.203  12.270  19.754  0.00  0.00    +0.000 OA
BRANCH  30  31
ATOM     31  C   UNL     1      -1.621  11.038  19.339  0.00  0.00    +0.000 C 
BRANCH  31  32
ATOM     32  C   UNL     1      -2.407  10.455  18.172  0.00  0.00    +0.000 C 
ATOM     33  C   UNL     1      -1.480   9.924  17.073  0.00  0.00    +0.000 C 
ATOM     34  C   UNL     1      -2.279   9.491  15.848  0.00  0.00    +0.000 C 
ATOM     35  N   UNL     1      -3.119  10.588  15.348  0.00  0.00    +0.000 NA
ATOM     36  C   UNL     1      -3.835  10.164  14.146  0.00  0.00    +0.000 C 
ATOM     37  C   UNL     1      -4.070  11.045  16.369  0.00  0.00    +0.000 C 
ATOM     38  C   UNL     1      -3.336  11.536  17.609  0.00  0.00    +0.000 C 
ENDBRANCH  31  32
ENDBRANCH  30  31
ENDBRANCH   6  30
TORSDOF 7
ENDMDL
MODEL 9
REMARK VINA RESULT:      -6.9      4.154      8.591
REMARK  Name = 
REMARK  9 active torsions:
REMARK  status: ('A' for Active; 'I' for Inactive)
REMARK    1  A    between atoms: C_1  and  O_2
REMARK    2  A    between atoms: O_2  and  C_3
REMARK    3  A    between atoms: C_10  and  C_11
REMARK    4  A    between atoms: N_13  and  C_14
REMARK    5  A    between atoms: C_17  and  C_18
REMARK    6  A    between atoms: C_24  and  O_25
REMARK    7  A    between atoms: O_25  and  C_26
REMARK    8  A    between atoms: C_26  and  C_27
REMARK    9  A    between atoms: N_30  and  C_31
REMARK                            x       y       z     vdW  Elec       q    Type
REMARK                         _______ _______ _______ _____ _____    ______ ____
ROOT
ATOM      1  C   UNL     1       0.413  11.850  19.594  0.00  0.00    +0.000 A 
ATOM      2  C   UNL     1      -0.624  12.761  19.396  0.00  0.00    +0.000 A 
ATOM      3  C   UNL     1      -1.683  12.426  18.549  0.00  0.00    +0.000 A 
ATOM      4  C   UNL     1      -1.688  11.200  17.877  0.00  0.00    +0.000 A 
ATOM      5  C   UNL     1      -0.628  10.311  18.062  0.00  0.00    +0.000 A 
ATOM      6  C   UNL     1       0.440  10.640  18.887  0.00  0.00    +0.000 A 
ENDROOT
BRANCH   4   7
ATOM      7  C   UNL     1      -2.730  10.825  16.947  0.00  0.00    +0.000 A 
ATOM      8  C   UNL     1      -2.674  10.051  15.764  0.00  0.00    +0.000 A 
ATOM      9  N   UNL     1      -3.837  10.036  15.107  0.00  0.00    +0.000 NA
ATOM     10  N   UNL     1      -4.630  10.816  15.855  0.00  0.00    +0.000 N 
ATOM     11  C   UNL     1      -4.018  11.310  16.968  0.00  0.00    +0.000 A 
ATOM     12  H   UNL     1      -5.577  10.985  15.536  0.00  0.00    +0.000 HD
ENDBRANCH   4   7
BRANCH   1  15
ATOM     13  C   UNL     1       2.269  13.250  20.411  0.00  0.00    +0.000 C 
ATOM     14  O   UNL     1       3.074  13.406  21.334  0.00  0.00    +0.000 OA
ATOM     15  N   UNL     1       1.411  12.182  20.512  0.00  0.00    +0.000 N 
ATOM     16  H   UNL     1       1.713  11.500  21.194  0.00  0.00    +0.000 HD
BRANCH  13  24
ATOM     17  C   UNL     1       4.930  17.050  21.662  0.00  0.00    +0.000 A 
ATOM     18  C   UNL     1       6.065  16.432  21.128  0.00  0.00    +0.000 A 
ATOM     19  C   UNL     1       5.968  15.628  19.988  0.00  0.00    +0.000 A 
ATOM     20  C   UNL     1       4.726  15.402  19.400  0.00  0.00    +0.000 A 
ATOM     21  C   UNL     1       3.590  16.013  19.949  0.00  0.00    +0.000 A 
ATOM     22  C   UNL     1       3.693  16.855  21.054  0.00  0.00    +0.000 A 
ATOM     23  C   UNL     1       2.256  15.601  19.402  0.00  0.00    +0.000 C 
ATOM     24  C   UNL     1       2.282  14.100  19.092  0.00  0.00    +0.000 C 
ATOM     25  N   UNL     1       3.403  13.627  18.230  0.00  0.00    +0.000 NA
ATOM     26  C   UNL     1       4.560  14.527  18.188  0.00  0.00    +0.000 C 
ATOM     27  H   UNL     1       3.054  13.517  17.279  0.00  0.00    +0.000 HD
BRANCH  17  29
ATOM     28  C   UNL     1       3.607  18.273  23.196  0.00  0.00    +0.000 C 
ATOM     29  O   UNL     1       4.893  17.839  22.780  0.00  0.00    +0.000 OA
ENDBRANCH  17  29
ENDBRANCH  13  24
ENDBRANCH   1  15
BRANCH   6  30
ATOM     30  O   UNL     1       1.547   9.838  19.047  0.00  0.00    +0.000 OA
BRANCH  30  31
ATOM     31  C   UNL     1       2.068   9.260  17.853  0.00  0.00    +0.000 C 
BRANCH  31  32
ATOM     32  C   UNL     1       2.302   7.769  18.053  0.00  0.00    +0.000 C 
ATOM     33  C   UNL     1       2.206   7.372  19.530  0.00  0.00    +0.000 C 
ATOM     34  C   UNL     1       2.598   5.912  19.730  0.00  0.00    +0.000 C 
ATOM     35  N   UNL     1       3.940   5.646  19.196  0.00  0.00    +0.000 NA
ATOM     36  C   UNL     1       4.313   4.254  19.445  0.00  0.00    +0.000 C 
ATOM     37  C   UNL     1       4.017   5.942  17.760  0.00  0.00    +0.000 C 
ATOM     38  C   UNL     1       3.680   7.402  17.491  0.00  0.00    +0.000 C 
ENDBRANCH  31  32
ENDBRANCH  30  31
ENDBRANCH   6  30
TORSDOF 7
ENDMDL
