MODEL 1
REMARK VINA RESULT:      -8.3      0.000      0.000
REMARK  Name = 
REMARK  10 active torsions:
REMARK  status: ('A' for Active; 'I' for Inactive)
REMARK    1  A    between atoms: C_1  and  C_2
REMARK    2  A    between atoms: C_2  and  C_3
REMARK    3  A    between atoms: C_6  and  C_7
REMARK    4  A    between atoms: C_8  and  C_9
REMARK    5  A    between atoms: N_11  and  C_12
REMARK    6  A    between atoms: C_14  and  S_15
REMARK    7  A    between atoms: S_15  and  N_18
REMARK    8  A    between atoms: C_26  and  O_27
REMARK    9  A    between atoms: O_27  and  C_28
REMARK   10  A    between atoms: C_28  and  C_29
REMARK                            x       y       z     vdW  Elec       q    Type
REMARK                         _______ _______ _______ _____ _____    ______ ____
ROOT
ATOM      1  C   UNL     1       2.782   6.408  18.677  0.00  0.00    +0.000 A 
ATOM      2  C   UNL     1       3.747   6.578  17.677  0.00  0.00    +0.000 A 
ATOM      3  C   UNL     1       4.346   5.458  17.093  0.00  0.00    +0.000 A 
ATOM      4  C   UNL     1       3.917   4.174  17.446  0.00  0.00    +0.000 A 
ATOM      5  C   UNL     1       2.899   4.013  18.398  0.00  0.00    +0.000 A 
ATOM      6  C   UNL     1       2.306   5.125  19.004  0.00  0.00    +0.000 A 
ENDROOT
BRANCH   1   9
ATOM      7  C   UNL     1       1.641   8.517  18.737  0.00  0.00    +0.000 C 
ATOM      8  O   UNL     1       1.303   8.414  17.562  0.00  0.00    +0.000 OA
ATOM      9  N   UNL     1       2.399   7.557  19.399  0.00  0.00    +0.000 N 
ATOM     10  H   UNL     1       2.151   7.416  20.365  0.00  0.00    +0.000 HD
BRANCH   7  16
ATOM     11  C   UNL     1       0.574   9.869  20.749  0.00  0.00    +0.000 A 
ATOM     12  N   UNL     1       0.530  11.166  21.085  0.00  0.00    +0.000 NA
ATOM     13  O   UNL     1       1.144  11.849  20.059  0.00  0.00    +0.000 OA
ATOM     14  C   UNL     1       1.564  10.969  19.120  0.00  0.00    +0.000 A 
ATOM     15  C   UNL     1       2.212  11.542  17.919  0.00  0.00    +0.000 C 
ATOM     16  C   UNL     1       1.273   9.679  19.521  0.00  0.00    +0.000 A 
BRANCH  11  18
ATOM     17  C   UNL     1      -0.213   9.341  23.080  0.00  0.00    +0.000 C 
ATOM     18  C   UNL     1      -0.143   8.899  21.628  0.00  0.00    +0.000 C 
ENDBRANCH  11  18
ENDBRANCH   7  16
ENDBRANCH   1   9
BRANCH   3  19
ATOM     19  S   UNL     1       5.494   5.688  15.741  0.00  0.00    +0.000 S 
ATOM     20  O   UNL     1       5.395   4.500  14.914  0.00  0.00    +0.000 OA
ATOM     21  O   UNL     1       5.211   6.993  15.192  0.00  0.00    +0.000 OA
BRANCH  19  22
ATOM     22  N   UNL     1       7.043   5.731  16.388  0.00  0.00    +0.000 NA
ATOM     23  C   UNL     1       7.458   4.767  17.432  0.00  0.00    +0.000 C 
ATOM     24  C   UNL     1       7.335   5.407  18.816  0.00  0.00    +0.000 C 
ATOM     25  O   UNL     1       8.081   6.632  18.899  0.00  0.00    +0.000 OA
ATOM     26  C   UNL     1       7.668   7.580  17.904  0.00  0.00    +0.000 C 
ATOM     27  C   UNL     1       7.793   7.002  16.493  0.00  0.00    +0.000 C 
ENDBRANCH  19  22
ENDBRANCH   3  19
BRANCH   6  28
ATOM     28  O   UNL     1       1.310   4.849  19.911  0.00  0.00    +0.000 OA
BRANCH  28  29
ATOM     29  C   UNL     1       1.107   3.451  20.200  0.00  0.00    +0.000 C 
BRANCH  29  30
ATOM     30  C   UNL     1       1.812   3.011  21.489  0.00  0.00    +0.000 C 
ATOM     31  F   UNL     1       2.817   2.133  21.273  0.00  0.00    +0.000 F 
ATOM     32  F   UNL     1       2.334   4.075  22.144  0.00  0.00    +0.000 F 
ATOM     33  F   UNL     1       0.936   2.418  22.336  0.00  0.00    +0.000 F 
ENDBRANCH  29  30
ENDBRANCH  28  29
ENDBRANCH   6  28
TORSDOF 8
ENDMDL
MODEL 2
REMARK VINA RESULT:      -8.2      0.566      1.857
REMARK  Name = 
REMARK  10 active torsions:
REMARK  status: ('A' for Active; 'I' for Inactive)
REMARK    1  A    between atoms: C_1  and  C_2
REMARK    2  A    between atoms: C_2  and  C_3
REMARK    3  A    between atoms: C_6  and  C_7
REMARK    4  A    between atoms: C_8  and  C_9
REMARK    5  A    between atoms: N_11  and  C_12
REMARK    6  A    between atoms: C_14  and  S_15
REMARK    7  A    between atoms: S_15  and  N_18
REMARK    8  A    between atoms: C_26  and  O_27
REMARK    9  A    between atoms: O_27  and  C_28
REMARK   10  A    between atoms: C_28  and  C_29
REMARK                            x       y       z     vdW  Elec       q    Type
REMARK                         _______ _______ _______ _____ _____    ______ ____
ROOT
ATOM      1  C   UNL     1       2.765   6.444  18.564  0.00  0.00    +0.000 A 
ATOM      2  C   UNL     1       3.738   6.611  17.571  0.00  0.00    +0.000 A 
ATOM      3  C   UNL     1       4.320   5.488  16.974  0.00  0.00    +0.000 A 
ATOM      4  C   UNL     1       3.868   4.207  17.309  0.00  0.00    +0.000 A 
ATOM      5  C   UNL     1       2.842   4.051  18.254  0.00  0.00    +0.000 A 
ATOM      6  C   UNL     1       2.266   5.166  18.872  0.00  0.00    +0.000 A 
ENDROOT
BRANCH   1   9
ATOM      7  C   UNL     1       1.660   8.571  18.648  0.00  0.00    +0.000 C 
ATOM      8  O   UNL     1       1.324   8.488  17.470  0.00  0.00    +0.000 OA
ATOM      9  N   UNL     1       2.399   7.590  19.299  0.00  0.00    +0.000 N 
ATOM     10  H   UNL     1       2.146   7.441  20.262  0.00  0.00    +0.000 HD
BRANCH   7  16
ATOM     11  C   UNL     1       1.464  11.136  19.278  0.00  0.00    +0.000 A 
ATOM     12  N   UNL     1       0.917  11.807  20.302  0.00  0.00    +0.000 NA
ATOM     13  O   UNL     1       0.450  10.855  21.180  0.00  0.00    +0.000 OA
ATOM     14  C   UNL     1       0.702   9.621  20.683  0.00  0.00    +0.000 A 
ATOM     15  C   UNL     1       0.300   8.474  21.526  0.00  0.00    +0.000 C 
ATOM     16  C   UNL     1       1.308   9.728  19.445  0.00  0.00    +0.000 A 
BRANCH  11  18
ATOM     17  C   UNL     1       2.357  13.388  18.597  0.00  0.00    +0.000 C 
ATOM     18  C   UNL     1       2.174  11.925  18.229  0.00  0.00    +0.000 C 
ENDBRANCH  11  18
ENDBRANCH   7  16
ENDBRANCH   1   9
BRANCH   3  19
ATOM     19  S   UNL     1       5.479   5.716  15.632  0.00  0.00    +0.000 S 
ATOM     20  O   UNL     1       5.385   4.527  14.804  0.00  0.00    +0.000 OA
ATOM     21  O   UNL     1       5.202   7.021  15.079  0.00  0.00    +0.000 OA
BRANCH  19  22
ATOM     22  N   UNL     1       7.023   5.757  16.290  0.00  0.00    +0.000 NA
ATOM     23  C   UNL     1       7.557   4.604  17.050  0.00  0.00    +0.000 C 
ATOM     24  C   UNL     1       7.384   4.839  18.552  0.00  0.00    +0.000 C 
ATOM     25  O   UNL     1       7.992   6.074  18.965  0.00  0.00    +0.000 OA
ATOM     26  C   UNL     1       7.463   7.198  18.249  0.00  0.00    +0.000 C 
ATOM     27  C   UNL     1       7.630   7.030  16.738  0.00  0.00    +0.000 C 
ENDBRANCH  19  22
ENDBRANCH   3  19
BRANCH   6  28
ATOM     28  O   UNL     1       1.260   4.894  19.771  0.00  0.00    +0.000 OA
BRANCH  28  29
ATOM     29  C   UNL     1       1.102   3.505  20.120  0.00  0.00    +0.000 C 
BRANCH  29  30
ATOM     30  C   UNL     1       1.863   3.131  21.397  0.00  0.00    +0.000 C 
ATOM     31  F   UNL     1       2.912   2.310  21.171  0.00  0.00    +0.000 F 
ATOM     32  F   UNL     1       2.337   4.236  22.020  0.00  0.00    +0.000 F 
ATOM     33  F   UNL     1       1.045   2.504  22.277  0.00  0.00    +0.000 F 
ENDBRANCH  29  30
ENDBRANCH  28  29
ENDBRANCH   6  28
TORSDOF 8
ENDMDL
MODEL 3
REMARK VINA RESULT:      -8.0      2.874      7.153
REMARK  Name = 
REMARK  10 active torsions:
REMARK  status: ('A' for Active; 'I' for Inactive)
REMARK    1  A    between atoms: C_1  and  C_2
REMARK    2  A    between atoms: C_2  and  C_3
REMARK    3  A    between atoms: C_6  and  C_7
REMARK    4  A    between atoms: C_8  and  C_9
REMARK    5  A    between atoms: N_11  and  C_12
REMARK    6  A    between atoms: C_14  and  S_15
REMARK    7  A    between atoms: S_15  and  N_18
REMARK    8  A    between atoms: C_26  and  O_27
REMARK    9  A    between atoms: O_27  and  C_28
REMARK   10  A    between atoms: C_28  and  C_29
REMARK                            x       y       z     vdW  Elec       q    Type
REMARK                         _______ _______ _______ _____ _____    ______ ____
ROOT
ATOM      1  C   UNL     1       3.161   6.244  19.265  0.00  0.00    +0.000 A 
ATOM      2  C   UNL     1       2.575   7.466  19.617  0.00  0.00    +0.000 A 
ATOM      3  C   UNL     1       1.504   7.489  20.515  0.00  0.00    +0.000 A 
ATOM      4  C   UNL     1       1.077   6.303  21.123  0.00  0.00    +0.000 A 
ATOM      5  C   UNL     1       1.716   5.091  20.819  0.00  0.00    +0.000 A 
ATOM      6  C   UNL     1       2.776   5.052  19.907  0.00  0.00    +0.000 A 
ENDROOT
BRANCH   1   9
ATOM      7  C   UNL     1       5.391   5.942  18.435  0.00  0.00    +0.000 C 
ATOM      8  O   UNL     1       5.814   5.669  19.555  0.00  0.00    +0.000 OA
ATOM      9  N   UNL     1       4.060   6.254  18.180  0.00  0.00    +0.000 N 
ATOM     10  H   UNL     1       3.706   5.907  17.303  0.00  0.00    +0.000 HD
BRANCH   7  16
ATOM     11  C   UNL     1       6.336   5.237  16.064  0.00  0.00    +0.000 A 
ATOM     12  N   UNL     1       7.342   5.673  15.292  0.00  0.00    +0.000 NA
ATOM     13  O   UNL     1       7.988   6.648  16.017  0.00  0.00    +0.000 OA
ATOM     14  C   UNL     1       7.371   6.806  17.212  0.00  0.00    +0.000 A 
ATOM     15  C   UNL     1       7.966   7.792  18.139  0.00  0.00    +0.000 C 
ATOM     16  C   UNL     1       6.275   5.966  17.288  0.00  0.00    +0.000 A 
BRANCH  11  18
ATOM     17  C   UNL     1       5.691   3.823  14.085  0.00  0.00    +0.000 C 
ATOM     18  C   UNL     1       5.539   4.074  15.577  0.00  0.00    +0.000 C 
ENDBRANCH  11  18
ENDBRANCH   7  16
ENDBRANCH   1   9
BRANCH   3  19
ATOM     19  S   UNL     1       0.840   9.064  21.040  0.00  0.00    +0.000 S 
ATOM     20  O   UNL     1      -0.575   8.850  21.287  0.00  0.00    +0.000 OA
ATOM     21  O   UNL     1       1.707   9.535  22.094  0.00  0.00    +0.000 OA
BRANCH  19  22
ATOM     22  N   UNL     1       0.975  10.132  19.751  0.00  0.00    +0.000 NA
ATOM     23  C   UNL     1       1.060  11.591  19.978  0.00  0.00    +0.000 C 
ATOM     24  C   UNL     1      -0.317  12.232  19.796  0.00  0.00    +0.000 C 
ATOM     25  O   UNL     1      -0.874  11.928  18.507  0.00  0.00    +0.000 OA
ATOM     26  C   UNL     1      -0.980  10.514  18.289  0.00  0.00    +0.000 C 
ATOM     27  C   UNL     1       0.375   9.820  18.434  0.00  0.00    +0.000 C 
ENDBRANCH  19  22
ENDBRANCH   3  19
BRANCH   6  28
ATOM     28  O   UNL     1       3.335   3.813  19.697  0.00  0.00    +0.000 OA
BRANCH  28  29
ATOM     29  C   UNL     1       2.447   2.821  19.143  0.00  0.00    +0.000 C 
BRANCH  29  30
ATOM     30  C   UNL     1       2.776   2.491  17.682  0.00  0.00    +0.000 C 
ATOM     31  F   UNL     1       2.054   1.458  17.194  0.00  0.00    +0.000 F 
ATOM     32  F   UNL     1       2.550   3.560  16.881  0.00  0.00    +0.000 F 
ATOM     33  F   UNL     1       4.084   2.167  17.546  0.00  0.00    +0.000 F 
ENDBRANCH  29  30
ENDBRANCH  28  29
ENDBRANCH   6  28
TORSDOF 8
ENDMDL
MODEL 4
REMARK VINA RESULT:      -7.8      2.695      7.091
REMARK  Name = 
REMARK  10 active torsions:
REMARK  status: ('A' for Active; 'I' for Inactive)
REMARK    1  A    between atoms: C_1  and  C_2
REMARK    2  A    between atoms: C_2  and  C_3
REMARK    3  A    between atoms: C_6  and  C_7
REMARK    4  A    between atoms: C_8  and  C_9
REMARK    5  A    between atoms: N_11  and  C_12
REMARK    6  A    between atoms: C_14  and  S_15
REMARK    7  A    between atoms: S_15  and  N_18
REMARK    8  A    between atoms: C_26  and  O_27
REMARK    9  A    between atoms: O_27  and  C_28
REMARK   10  A    between atoms: C_28  and  C_29
REMARK                            x       y       z     vdW  Elec       q    Type
REMARK                         _______ _______ _______ _____ _____    ______ ____
ROOT
ATOM      1  C   UNL     1       2.911   6.170  19.149  0.00  0.00    +0.000 A 
ATOM      2  C   UNL     1       2.510   7.403  19.677  0.00  0.00    +0.000 A 
ATOM      3  C   UNL     1       1.409   7.465  20.536  0.00  0.00    +0.000 A 
ATOM      4  C   UNL     1       0.765   6.287  20.932  0.00  0.00    +0.000 A 
ATOM      5  C   UNL     1       1.217   5.048  20.454  0.00  0.00    +0.000 A 
ATOM      6  C   UNL     1       2.306   4.974  19.578  0.00  0.00    +0.000 A 
ENDROOT
BRANCH   1   9
ATOM      7  C   UNL     1       5.175   5.880  18.414  0.00  0.00    +0.000 C 
ATOM      8  O   UNL     1       5.548   5.587  19.546  0.00  0.00    +0.000 OA
ATOM      9  N   UNL     1       3.857   6.198  18.105  0.00  0.00    +0.000 N 
ATOM     10  H   UNL     1       3.543   5.868  17.207  0.00  0.00    +0.000 HD
BRANCH   7  16
ATOM     11  C   UNL     1       6.175   5.284  16.035  0.00  0.00    +0.000 A 
ATOM     12  N   UNL     1       7.243   5.701  15.339  0.00  0.00    +0.000 NA
ATOM     13  O   UNL     1       7.924   6.569  16.163  0.00  0.00    +0.000 OA
ATOM     14  C   UNL     1       7.265   6.683  17.341  0.00  0.00    +0.000 A 
ATOM     15  C   UNL     1       7.886   7.550  18.365  0.00  0.00    +0.000 C 
ATOM     16  C   UNL     1       6.110   5.923  17.308  0.00  0.00    +0.000 A 
BRANCH  11  18
ATOM     17  C   UNL     1       5.595   4.002  13.949  0.00  0.00    +0.000 C 
ATOM     18  C   UNL     1       5.320   4.223  15.427  0.00  0.00    +0.000 C 
ENDBRANCH  11  18
ENDBRANCH   7  16
ENDBRANCH   1   9
BRANCH   3  19
ATOM     19  S   UNL     1       0.977   9.028  21.290  0.00  0.00    +0.000 S 
ATOM     20  O   UNL     1      -0.394   8.897  21.748  0.00  0.00    +0.000 OA
ATOM     21  O   UNL     1       2.038   9.331  22.221  0.00  0.00    +0.000 OA
BRANCH  19  22
ATOM     22  N   UNL     1       1.002  10.200  20.088  0.00  0.00    +0.000 NA
ATOM     23  C   UNL     1       1.057  11.639  20.429  0.00  0.00    +0.000 C 
ATOM     24  C   UNL     1      -0.347  12.244  20.381  0.00  0.00    +0.000 C 
ATOM     25  O   UNL     1      -0.972  12.025  19.106  0.00  0.00    +0.000 OA
ATOM     26  C   UNL     1      -1.049  10.631  18.779  0.00  0.00    +0.000 C 
ATOM     27  C   UNL     1       0.333   9.975  18.787  0.00  0.00    +0.000 C 
ENDBRANCH  19  22
ENDBRANCH   3  19
BRANCH   6  28
ATOM     28  O   UNL     1       2.670   3.707  19.186  0.00  0.00    +0.000 OA
BRANCH  28  29
ATOM     29  C   UNL     1       3.123   2.839  20.243  0.00  0.00    +0.000 C 
BRANCH  29  30
ATOM     30  C   UNL     1       4.389   2.062  19.861  0.00  0.00    +0.000 C 
ATOM     31  F   UNL     1       5.285   2.808  19.177  0.00  0.00    +0.000 F 
ATOM     32  F   UNL     1       5.014   1.582  20.962  0.00  0.00    +0.000 F 
ATOM     33  F   UNL     1       4.082   0.994  19.086  0.00  0.00    +0.000 F 
ENDBRANCH  29  30
ENDBRANCH  28  29
ENDBRANCH   6  28
TORSDOF 8
ENDMDL
MODEL 5
REMARK VINA RESULT:      -7.6      2.567      7.111
REMARK  Name = 
REMARK  10 active torsions:
REMARK  status: ('A' for Active; 'I' for Inactive)
REMARK    1  A    between atoms: C_1  and  C_2
REMARK    2  A    between atoms: C_2  and  C_3
REMARK    3  A    between atoms: C_6  and  C_7
REMARK    4  A    between atoms: C_8  and  C_9
REMARK    5  A    between atoms: N_11  and  C_12
REMARK    6  A    between atoms: C_14  and  S_15
REMARK    7  A    between atoms: S_15  and  N_18
REMARK    8  A    between atoms: C_26  and  O_27
REMARK    9  A    between atoms: O_27  and  C_28
REMARK   10  A    between atoms: C_28  and  C_29
REMARK                            x       y       z     vdW  Elec       q    Type
REMARK                         _______ _______ _______ _____ _____    ______ ____
ROOT
ATOM      1  C   UNL     1       3.031   6.438  19.238  0.00  0.00    +0.000 A 
ATOM      2  C   UNL     1       2.474   7.677  19.577  0.00  0.00    +0.000 A 
ATOM      3  C   UNL     1       1.389   7.733  20.458  0.00  0.00    +0.000 A 
ATOM      4  C   UNL     1       0.920   6.562  21.062  0.00  0.00    +0.000 A 
ATOM      5  C   UNL     1       1.530   5.332  20.771  0.00  0.00    +0.000 A 
ATOM      6  C   UNL     1       2.603   5.260  19.877  0.00  0.00    +0.000 A 
ENDROOT
BRANCH   1   9
ATOM      7  C   UNL     1       5.244   5.992  18.428  0.00  0.00    +0.000 C 
ATOM      8  O   UNL     1       5.624   5.641  19.541  0.00  0.00    +0.000 OA
ATOM      9  N   UNL     1       3.947   6.421  18.167  0.00  0.00    +0.000 N 
ATOM     10  H   UNL     1       3.582   6.139  17.271  0.00  0.00    +0.000 HD
BRANCH   7  16
ATOM     11  C   UNL     1       6.174   5.307  16.045  0.00  0.00    +0.000 A 
ATOM     12  N   UNL     1       7.223   5.693  15.305  0.00  0.00    +0.000 NA
ATOM     13  O   UNL     1       7.930   6.586  16.078  0.00  0.00    +0.000 OA
ATOM     14  C   UNL     1       7.306   6.746  17.269  0.00  0.00    +0.000 A 
ATOM     15  C   UNL     1       7.958   7.646  18.244  0.00  0.00    +0.000 C 
ATOM     16  C   UNL     1       6.148   5.991  17.296  0.00  0.00    +0.000 A 
BRANCH  11  18
ATOM     17  C   UNL     1       5.543   3.942  14.028  0.00  0.00    +0.000 C 
ATOM     18  C   UNL     1       5.298   4.229  15.500  0.00  0.00    +0.000 C 
ENDBRANCH  11  18
ENDBRANCH   7  16
ENDBRANCH   1   9
BRANCH   3  19
ATOM     19  S   UNL     1       0.761   9.328  20.968  0.00  0.00    +0.000 S 
ATOM     20  O   UNL     1      -0.555   9.088  21.530  0.00  0.00    +0.000 OA
ATOM     21  O   UNL     1       1.802   9.934  21.764  0.00  0.00    +0.000 OA
BRANCH  19  22
ATOM     22  N   UNL     1       0.562  10.264  19.588  0.00  0.00    +0.000 NA
ATOM     23  C   UNL     1       1.304  11.533  19.416  0.00  0.00    +0.000 C 
ATOM     24  C   UNL     1       0.420  12.717  19.816  0.00  0.00    +0.000 C 
ATOM     25  O   UNL     1      -0.816  12.723  19.085  0.00  0.00    +0.000 OA
ATOM     26  C   UNL     1      -1.551  11.504  19.265  0.00  0.00    +0.000 C 
ATOM     27  C   UNL     1      -0.725  10.284  18.857  0.00  0.00    +0.000 C 
ENDBRANCH  19  22
ENDBRANCH   3  19
BRANCH   6  28
ATOM     28  O   UNL     1       3.130   4.006  19.678  0.00  0.00    +0.000 OA
BRANCH  28  29
ATOM     29  C   UNL     1       2.548   3.255  18.594  0.00  0.00    +0.000 C 
BRANCH  29  30
ATOM     30  C   UNL     1       1.855   1.973  19.073  0.00  0.00    +0.000 C 
ATOM     31  F   UNL     1       2.567   0.855  18.814  0.00  0.00    +0.000 F 
ATOM     32  F   UNL     1       1.632   2.014  20.408  0.00  0.00    +0.000 F 
ATOM     33  F   UNL     1       0.647   1.829  18.476  0.00  0.00    +0.000 F 
ENDBRANCH  29  30
ENDBRANCH  28  29
ENDBRANCH   6  28
TORSDOF 8
ENDMDL
MODEL 6
REMARK VINA RESULT:      -7.6      4.607      8.273
REMARK  Name = 
REMARK  10 active torsions:
REMARK  status: ('A' for Active; 'I' for Inactive)
REMARK    1  A    between atoms: C_1  and  C_2
REMARK    2  A    between atoms: C_2  and  C_3
REMARK    3  A    between atoms: C_6  and  C_7
REMARK    4  A    between atoms: C_8  and  C_9
REMARK    5  A    between atoms: N_11  and  C_12
REMARK    6  A    between atoms: C_14  and  S_15
REMARK    7  A    between atoms: S_15  and  N_18
REMARK    8  A    between atoms: C_26  and  O_27
REMARK    9  A    between atoms: O_27  and  C_28
REMARK   10  A    between atoms: C_28  and  C_29
REMARK                            x       y       z     vdW  Elec       q    Type
REMARK                         _______ _______ _______ _____ _____    ______ ____
ROOT
ATOM      1  C   UNL     1       5.003   4.730  16.622  0.00  0.00    +0.000 A 
ATOM      2  C   UNL     1       4.637   3.526  17.238  0.00  0.00    +0.000 A 
ATOM      3  C   UNL     1       4.588   3.447  18.633  0.00  0.00    +0.000 A 
ATOM      4  C   UNL     1       4.820   4.591  19.405  0.00  0.00    +0.000 A 
ATOM      5  C   UNL     1       5.116   5.811  18.778  0.00  0.00    +0.000 A 
ATOM      6  C   UNL     1       5.187   5.898  17.384  0.00  0.00    +0.000 A 
ENDROOT
BRANCH   1   9
ATOM      7  C   UNL     1       6.595   4.490  14.845  0.00  0.00    +0.000 C 
ATOM      8  O   UNL     1       7.523   4.367  15.639  0.00  0.00    +0.000 OA
ATOM      9  N   UNL     1       5.276   4.684  15.240  0.00  0.00    +0.000 N 
ATOM     10  H   UNL     1       4.591   4.222  14.664  0.00  0.00    +0.000 HD
BRANCH   7  16
ATOM     11  C   UNL     1       6.195   3.782  12.325  0.00  0.00    +0.000 A 
ATOM     12  N   UNL     1       6.767   4.115  11.159  0.00  0.00    +0.000 NA
ATOM     13  O   UNL     1       7.814   4.954  11.470  0.00  0.00    +0.000 OA
ATOM     14  C   UNL     1       7.864   5.134  12.810  0.00  0.00    +0.000 A 
ATOM     15  C   UNL     1       8.963   5.981  13.324  0.00  0.00    +0.000 C 
ATOM     16  C   UNL     1       6.826   4.450  13.415  0.00  0.00    +0.000 A 
BRANCH  11  18
ATOM     17  C   UNL     1       4.049   3.043  11.239  0.00  0.00    +0.000 C 
ATOM     18  C   UNL     1       5.103   2.766  12.298  0.00  0.00    +0.000 C 
ENDBRANCH  11  18
ENDBRANCH   7  16
ENDBRANCH   1   9
BRANCH   3  19
ATOM     19  S   UNL     1       4.012   1.939  19.401  0.00  0.00    +0.000 S 
ATOM     20  O   UNL     1       3.881   0.961  18.336  0.00  0.00    +0.000 OA
ATOM     21  O   UNL     1       4.894   1.695  20.519  0.00  0.00    +0.000 OA
BRANCH  19  22
ATOM     22  N   UNL     1       2.477   2.231  20.016  0.00  0.00    +0.000 NA
ATOM     23  C   UNL     1       1.369   2.646  19.127  0.00  0.00    +0.000 C 
ATOM     24  C   UNL     1       1.200   4.166  19.173  0.00  0.00    +0.000 C 
ATOM     25  O   UNL     1       1.006   4.634  20.517  0.00  0.00    +0.000 OA
ATOM     26  C   UNL     1       2.087   4.254  21.380  0.00  0.00    +0.000 C 
ATOM     27  C   UNL     1       2.289   2.739  21.393  0.00  0.00    +0.000 C 
ENDBRANCH  19  22
ENDBRANCH   3  19
BRANCH   6  28
ATOM     28  O   UNL     1       5.471   7.146  16.879  0.00  0.00    +0.000 OA
BRANCH  28  29
ATOM     29  C   UNL     1       6.222   8.010  17.754  0.00  0.00    +0.000 C 
BRANCH  29  30
ATOM     30  C   UNL     1       7.737   7.810  17.619  0.00  0.00    +0.000 C 
ATOM     31  F   UNL     1       8.433   8.966  17.662  0.00  0.00    +0.000 F 
ATOM     32  F   UNL     1       8.210   7.012  18.606  0.00  0.00    +0.000 F 
ATOM     33  F   UNL     1       8.037   7.203  16.445  0.00  0.00    +0.000 F 
ENDBRANCH  29  30
ENDBRANCH  28  29
ENDBRANCH   6  28
TORSDOF 8
ENDMDL
MODEL 7
REMARK VINA RESULT:      -7.4      1.006      1.258
REMARK  Name = 
REMARK  10 active torsions:
REMARK  status: ('A' for Active; 'I' for Inactive)
REMARK    1  A    between atoms: C_1  and  C_2
REMARK    2  A    between atoms: C_2  and  C_3
REMARK    3  A    between atoms: C_6  and  C_7
REMARK    4  A    between atoms: C_8  and  C_9
REMARK    5  A    between atoms: N_11  and  C_12
REMARK    6  A    between atoms: C_14  and  S_15
REMARK    7  A    between atoms: S_15  and  N_18
REMARK    8  A    between atoms: C_26  and  O_27
REMARK    9  A    between atoms: O_27  and  C_28
REMARK   10  A    between atoms: C_28  and  C_29
REMARK                            x       y       z     vdW  Elec       q    Type
REMARK                         _______ _______ _______ _____ _____    ______ ____
ROOT
ATOM      1  C   UNL     1       2.604   5.673  17.933  0.00  0.00    +0.000 A 
ATOM      2  C   UNL     1       3.700   5.768  17.068  0.00  0.00    +0.000 A 
ATOM      3  C   UNL     1       4.551   4.671  16.902  0.00  0.00    +0.000 A 
ATOM      4  C   UNL     1       4.256   3.457  17.534  0.00  0.00    +0.000 A 
ATOM      5  C   UNL     1       3.115   3.349  18.344  0.00  0.00    +0.000 A 
ATOM      6  C   UNL     1       2.267   4.446  18.533  0.00  0.00    +0.000 A 
ENDROOT
BRANCH   1   9
ATOM      7  C   UNL     1       2.156   7.427  19.507  0.00  0.00    +0.000 C 
ATOM      8  O   UNL     1       2.894   6.919  20.345  0.00  0.00    +0.000 OA
ATOM      9  N   UNL     1       1.934   6.872  18.251  0.00  0.00    +0.000 N 
ATOM     10  H   UNL     1       1.838   7.541  17.505  0.00  0.00    +0.000 HD
BRANCH   7  16
ATOM     11  C   UNL     1       0.602   9.101  20.847  0.00  0.00    +0.000 A 
ATOM     12  N   UNL     1       0.219  10.373  20.660  0.00  0.00    +0.000 NA
ATOM     13  O   UNL     1       0.752  10.761  19.452  0.00  0.00    +0.000 OA
ATOM     14  C   UNL     1       1.460   9.737  18.921  0.00  0.00    +0.000 A 
ATOM     15  C   UNL     1       2.070   9.972  17.594  0.00  0.00    +0.000 C 
ATOM     16  C   UNL     1       1.445   8.658  19.786  0.00  0.00    +0.000 A 
BRANCH  11  18
ATOM     17  C   UNL     1      -0.513   9.301  23.094  0.00  0.00    +0.000 C 
ATOM     18  C   UNL     1       0.052   8.376  22.029  0.00  0.00    +0.000 C 
ENDBRANCH  11  18
ENDBRANCH   7  16
ENDBRANCH   1   9
BRANCH   3  19
ATOM     19  S   UNL     1       5.881   4.770  15.711  0.00  0.00    +0.000 S 
ATOM     20  O   UNL     1       6.112   3.415  15.242  0.00  0.00    +0.000 OA
ATOM     21  O   UNL     1       5.514   5.816  14.785  0.00  0.00    +0.000 OA
BRANCH  19  22
ATOM     22  N   UNL     1       7.261   5.269  16.526  0.00  0.00    +0.000 NA
ATOM     23  C   UNL     1       7.745   4.541  17.720  0.00  0.00    +0.000 C 
ATOM     24  C   UNL     1       7.269   5.245  18.993  0.00  0.00    +0.000 C 
ATOM     25  O   UNL     1       7.671   6.624  19.014  0.00  0.00    +0.000 OA
ATOM     26  C   UNL     1       7.187   7.341  17.870  0.00  0.00    +0.000 C 
ATOM     27  C   UNL     1       7.653   6.695  16.564  0.00  0.00    +0.000 C 
ENDBRANCH  19  22
ENDBRANCH   3  19
BRANCH   6  28
ATOM     28  O   UNL     1       1.173   4.221  19.335  0.00  0.00    +0.000 OA
BRANCH  28  29
ATOM     29  C   UNL     1       1.151   2.946  20.008  0.00  0.00    +0.000 C 
BRANCH  29  30
ATOM     30  C   UNL     1       1.743   3.018  21.421  0.00  0.00    +0.000 C 
ATOM     31  F   UNL     1       0.923   2.513  22.368  0.00  0.00    +0.000 F 
ATOM     32  F   UNL     1       2.913   2.340  21.491  0.00  0.00    +0.000 F 
ATOM     33  F   UNL     1       2.011   4.302  21.763  0.00  0.00    +0.000 F 
ENDBRANCH  29  30
ENDBRANCH  28  29
ENDBRANCH   6  28
TORSDOF 8
ENDMDL
MODEL 8
REMARK VINA RESULT:      -7.4      2.633      7.044
REMARK  Name = 
REMARK  10 active torsions:
REMARK  status: ('A' for Active; 'I' for Inactive)
REMARK    1  A    between atoms: C_1  and  C_2
REMARK    2  A    between atoms: C_2  and  C_3
REMARK    3  A    between atoms: C_6  and  C_7
REMARK    4  A    between atoms: C_8  and  C_9
REMARK    5  A    between atoms: N_11  and  C_12
REMARK    6  A    between atoms: C_14  and  S_15
REMARK    7  A    between atoms: S_15  and  N_18
REMARK    8  A    between atoms: C_26  and  O_27
REMARK    9  A    between atoms: O_27  and  C_28
REMARK   10  A    between atoms: C_28  and  C_29
REMARK                            x       y       z     vdW  Elec       q    Type
REMARK                         _______ _______ _______ _____ _____    ______ ____
ROOT
ATOM      1  C   UNL     1       2.851   6.180  19.235  0.00  0.00    +0.000 A 
ATOM      2  C   UNL     1       2.452   7.420  19.747  0.00  0.00    +0.000 A 
ATOM      3  C   UNL     1       1.346   7.497  20.598  0.00  0.00    +0.000 A 
ATOM      4  C   UNL     1       0.696   6.326  21.004  0.00  0.00    +0.000 A 
ATOM      5  C   UNL     1       1.146   5.080  20.544  0.00  0.00    +0.000 A 
ATOM      6  C   UNL     1       2.239   4.992  19.676  0.00  0.00    +0.000 A 
ENDROOT
BRANCH   1   9
ATOM      7  C   UNL     1       5.120   5.878  18.519  0.00  0.00    +0.000 C 
ATOM      8  O   UNL     1       5.485   5.602  19.657  0.00  0.00    +0.000 OA
ATOM      9  N   UNL     1       3.804   6.192  18.197  0.00  0.00    +0.000 N 
ATOM     10  H   UNL     1       3.495   5.848  17.302  0.00  0.00    +0.000 HD
BRANCH   7  16
ATOM     11  C   UNL     1       7.080   6.811  17.002  0.00  0.00    +0.000 A 
ATOM     12  N   UNL     1       7.722   6.352  15.918  0.00  0.00    +0.000 NA
ATOM     13  O   UNL     1       7.099   5.174  15.572  0.00  0.00    +0.000 OA
ATOM     14  C   UNL     1       6.099   4.919  16.448  0.00  0.00    +0.000 A 
ATOM     15  C   UNL     1       5.293   3.704  16.198  0.00  0.00    +0.000 C 
ATOM     16  C   UNL     1       6.062   5.904  17.418  0.00  0.00    +0.000 A 
BRANCH  11  18
ATOM     17  C   UNL     1       8.512   8.101  18.620  0.00  0.00    +0.000 C 
ATOM     18  C   UNL     1       7.464   8.156  17.520  0.00  0.00    +0.000 C 
ENDBRANCH  11  18
ENDBRANCH   7  16
ENDBRANCH   1   9
BRANCH   3  19
ATOM     19  S   UNL     1       0.917   9.071  21.331  0.00  0.00    +0.000 S 
ATOM     20  O   UNL     1      -0.461   8.954  21.772  0.00  0.00    +0.000 OA
ATOM     21  O   UNL     1       1.968   9.375  22.273  0.00  0.00    +0.000 OA
BRANCH  19  22
ATOM     22  N   UNL     1       0.966  10.230  20.118  0.00  0.00    +0.000 NA
ATOM     23  C   UNL     1       1.077  11.669  20.445  0.00  0.00    +0.000 C 
ATOM     24  C   UNL     1      -0.306  12.324  20.411  0.00  0.00    +0.000 C 
ATOM     25  O   UNL     1      -0.956  12.116  19.147  0.00  0.00    +0.000 OA
ATOM     26  C   UNL     1      -1.087  10.722  18.833  0.00  0.00    +0.000 C 
ATOM     27  C   UNL     1       0.270  10.018  18.829  0.00  0.00    +0.000 C 
ENDBRANCH  19  22
ENDBRANCH   3  19
BRANCH   6  28
ATOM     28  O   UNL     1       2.600   3.719  19.300  0.00  0.00    +0.000 OA
BRANCH  28  29
ATOM     29  C   UNL     1       3.132   2.891  20.353  0.00  0.00    +0.000 C 
BRANCH  29  30
ATOM     30  C   UNL     1       4.367   2.098  19.909  0.00  0.00    +0.000 C 
ATOM     31  F   UNL     1       5.301   2.863  19.302  0.00  0.00    +0.000 F 
ATOM     32  F   UNL     1       4.959   1.492  20.965  0.00  0.00    +0.000 F 
ATOM     33  F   UNL     1       4.020   1.120  19.037  0.00  0.00    +0.000 F 
ENDBRANCH  29  30
ENDBRANCH  28  29
ENDBRANCH   6  28
TORSDOF 8
ENDMDL
MODEL 9
REMARK VINA RESULT:      -7.4      2.478      7.300
REMARK  Name = 
REMARK  10 active torsions:
REMARK  status: ('A' for Active; 'I' for Inactive)
REMARK    1  A    between atoms: C_1  and  C_2
REMARK    2  A    between atoms: C_2  and  C_3
REMARK    3  A    between atoms: C_6  and  C_7
REMARK    4  A    between atoms: C_8  and  C_9
REMARK    5  A    between atoms: N_11  and  C_12
REMARK    6  A    between atoms: C_14  and  S_15
REMARK    7  A    between atoms: S_15  and  N_18
REMARK    8  A    between atoms: C_26  and  O_27
REMARK    9  A    between atoms: O_27  and  C_28
REMARK   10  A    between atoms: C_28  and  C_29
REMARK                            x       y       z     vdW  Elec       q    Type
REMARK                         _______ _______ _______ _____ _____    ______ ____
ROOT
ATOM      1  C   UNL     1       2.295   7.259  19.119  0.00  0.00    +0.000 A 
ATOM      2  C   UNL     1       2.078   8.600  18.779  0.00  0.00    +0.000 A 
ATOM      3  C   UNL     1       1.232   9.388  19.565  0.00  0.00    +0.000 A 
ATOM      4  C   UNL     1       0.674   8.859  20.734  0.00  0.00    +0.000 A 
ATOM      5  C   UNL     1       0.953   7.536  21.107  0.00  0.00    +0.000 A 
ATOM      6  C   UNL     1       1.783   6.731  20.319  0.00  0.00    +0.000 A 
ENDROOT
BRANCH   1   9
ATOM      7  C   UNL     1       4.143   5.847  18.534  0.00  0.00    +0.000 C 
ATOM      8  O   UNL     1       4.653   5.987  19.642  0.00  0.00    +0.000 OA
ATOM      9  N   UNL     1       2.948   6.454  18.164  0.00  0.00    +0.000 N 
ATOM     10  H   UNL     1       2.357   5.895  17.572  0.00  0.00    +0.000 HD
BRANCH   7  16
ATOM     11  C   UNL     1       6.005   5.111  16.801  0.00  0.00    +0.000 A 
ATOM     12  N   UNL     1       6.157   4.060  15.982  0.00  0.00    +0.000 NA
ATOM     13  O   UNL     1       5.010   3.309  16.106  0.00  0.00    +0.000 OA
ATOM     14  C   UNL     1       4.180   3.896  17.000  0.00  0.00    +0.000 A 
ATOM     15  C   UNL     1       2.874   3.238  17.223  0.00  0.00    +0.000 C 
ATOM     16  C   UNL     1       4.776   5.030  17.519  0.00  0.00    +0.000 A 
BRANCH  11  18
ATOM     17  C   UNL     1       7.682   6.437  18.129  0.00  0.00    +0.000 C 
ATOM     18  C   UNL     1       7.053   6.173  16.770  0.00  0.00    +0.000 C 
ENDBRANCH  11  18
ENDBRANCH   7  16
ENDBRANCH   1   9
BRANCH   3  19
ATOM     19  S   UNL     1       1.052  11.125  19.182  0.00  0.00    +0.000 S 
ATOM     20  O   UNL     1       0.711  11.786  20.429  0.00  0.00    +0.000 OA
ATOM     21  O   UNL     1       2.240  11.500  18.452  0.00  0.00    +0.000 OA
BRANCH  19  22
ATOM     22  N   UNL     1      -0.258  11.288  18.145  0.00  0.00    +0.000 NA
ATOM     23  C   UNL     1      -1.132  12.480  18.205  0.00  0.00    +0.000 C 
ATOM     24  C   UNL     1      -2.383  12.173  19.032  0.00  0.00    +0.000 C 
ATOM     25  O   UNL     1      -3.084  11.028  18.522  0.00  0.00    +0.000 OA
ATOM     26  C   UNL     1      -2.248   9.862  18.482  0.00  0.00    +0.000 C 
ATOM     27  C   UNL     1      -0.990  10.102  17.646  0.00  0.00    +0.000 C 
ENDBRANCH  19  22
ENDBRANCH   3  19
BRANCH   6  28
ATOM     28  O   UNL     1       1.997   5.457  20.788  0.00  0.00    +0.000 OA
BRANCH  28  29
ATOM     29  C   UNL     1       1.021   4.476  20.383  0.00  0.00    +0.000 C 
BRANCH  29  30
ATOM     30  C   UNL     1       1.469   3.042  20.687  0.00  0.00    +0.000 C 
ATOM     31  F   UNL     1       1.076   2.608  21.905  0.00  0.00    +0.000 F 
ATOM     32  F   UNL     1       0.980   2.176  19.768  0.00  0.00    +0.000 F 
ATOM     33  F   UNL     1       2.820   2.942  20.642  0.00  0.00    +0.000 F 
ENDBRANCH  29  30
ENDBRANCH  28  29
ENDBRANCH   6  28
TORSDOF 8
ENDMDL
