MODEL 1
REMARK VINA RESULT:      -8.3      0.000      0.000
REMARK  Name = 
REMARK  3 active torsions:
REMARK  status: ('A' for Active; 'I' for Inactive)
REMARK    1  A    between atoms: C_1  and  C_2
REMARK    2  A    between atoms: C_12  and  C_13
REMARK    3  A    between atoms: N_15  and  C_16
REMARK                            x       y       z     vdW  Elec       q    Type
REMARK                         _______ _______ _______ _____ _____    ______ ____
ROOT
ATOM      1  C   UNL     1       0.797   4.030  20.383  0.00  0.00    +0.000 C 
ATOM      2  C   UNL     1       0.917   3.534  18.941  0.00  0.00    +0.000 C 
ATOM      3  C   UNL     1       0.889   1.983  18.880  0.00  0.00    +0.000 C 
ATOM      4  N   UNL     1       2.195   1.331  18.959  0.00  0.00    +0.000 N 
ATOM      5  C   UNL     1       3.302   1.816  18.293  0.00  0.00    +0.000 C 
ATOM      6  O   UNL     1       4.268   1.105  18.046  0.00  0.00    +0.000 OA
ATOM      7  C   UNL     1       3.222   3.215  17.976  0.00  0.00    +0.000 A 
ATOM      8  N   UNL     1       4.201   3.973  17.391  0.00  0.00    +0.000 N 
ATOM      9  C   UNL     1       3.844   5.306  17.414  0.00  0.00    +0.000 A 
ATOM     10  C   UNL     1       4.565   6.452  17.047  0.00  0.00    +0.000 A 
ATOM     11  C   UNL     1       3.970   7.704  17.271  0.00  0.00    +0.000 A 
ATOM     12  C   UNL     1       2.683   7.794  17.806  0.00  0.00    +0.000 A 
ATOM     13  C   UNL     1       1.960   6.629  18.118  0.00  0.00    +0.000 A 
ATOM     14  C   UNL     1       2.554   5.370  17.945  0.00  0.00    +0.000 A 
ATOM     15  C   UNL     1       2.160   4.045  18.274  0.00  0.00    +0.000 A 
ATOM     16  H   UNL     1       2.236   0.336  19.134  0.00  0.00    +0.000 HD
ATOM     17  H   UNL     1       5.094   3.607  17.084  0.00  0.00    +0.000 HD
ENDROOT
BRANCH  12  18
ATOM     18  C   UNL     1       2.047   9.081  18.193  0.00  0.00    +0.000 C 
ATOM     19  O   UNL     1       2.432  10.093  17.612  0.00  0.00    +0.000 OA
ATOM     20  N   UNL     1       1.118   9.040  19.219  0.00  0.00    +0.000 N 
ATOM     21  H   UNL     1       1.019   8.172  19.726  0.00  0.00    +0.000 HD
BRANCH  20  22
ATOM     22  C   UNL     1       0.465  10.175  19.759  0.00  0.00    +0.000 A 
ATOM     23  C   UNL     1       0.881  10.817  20.926  0.00  0.00    +0.000 A 
ATOM     24  C   UNL     1       0.136  11.883  21.405  0.00  0.00    +0.000 A 
ATOM     25  N   UNL     1      -0.971  12.355  20.798  0.00  0.00    +0.000 NA
ATOM     26  C   UNL     1      -1.342  11.736  19.658  0.00  0.00    +0.000 A 
ATOM     27  C   UNL     1      -0.661  10.669  19.099  0.00  0.00    +0.000 A 
ENDBRANCH  20  22
ENDBRANCH  12  18
TORSDOF 2
ENDMDL
MODEL 2
REMARK VINA RESULT:      -7.9      3.219      7.949
REMARK  Name = 
REMARK  3 active torsions:
REMARK  status: ('A' for Active; 'I' for Inactive)
REMARK    1  A    between atoms: C_1  and  C_2
REMARK    2  A    between atoms: C_12  and  C_13
REMARK    3  A    between atoms: N_15  and  C_16
REMARK                            x       y       z     vdW  Elec       q    Type
REMARK                         _______ _______ _______ _____ _____    ______ ____
ROOT
ATOM      1  C   UNL     1       2.236  10.583  17.973  0.00  0.00    +0.000 C 
ATOM      2  C   UNL     1       1.138   9.586  18.348  0.00  0.00    +0.000 C 
ATOM      3  C   UNL     1       0.044  10.261  19.219  0.00  0.00    +0.000 C 
ATOM      4  N   UNL     1       0.265  10.192  20.663  0.00  0.00    +0.000 N 
ATOM      5  C   UNL     1       0.735   9.053  21.283  0.00  0.00    +0.000 C 
ATOM      6  O   UNL     1       0.571   8.857  22.480  0.00  0.00    +0.000 OA
ATOM      7  C   UNL     1       1.460   8.173  20.408  0.00  0.00    +0.000 A 
ATOM      8  N   UNL     1       2.100   7.016  20.767  0.00  0.00    +0.000 N 
ATOM      9  C   UNL     1       2.843   6.539  19.707  0.00  0.00    +0.000 A 
ATOM     10  C   UNL     1       3.747   5.468  19.633  0.00  0.00    +0.000 A 
ATOM     11  C   UNL     1       4.438   5.273  18.426  0.00  0.00    +0.000 A 
ATOM     12  C   UNL     1       4.197   6.100  17.326  0.00  0.00    +0.000 A 
ATOM     13  C   UNL     1       3.248   7.134  17.409  0.00  0.00    +0.000 A 
ATOM     14  C   UNL     1       2.581   7.375  18.619  0.00  0.00    +0.000 A 
ATOM     15  C   UNL     1       1.688   8.388  19.064  0.00  0.00    +0.000 A 
ATOM     16  H   UNL     1      -0.287  10.782  21.271  0.00  0.00    +0.000 HD
ATOM     17  H   UNL     1       2.099   6.636  21.705  0.00  0.00    +0.000 HD
ENDROOT
BRANCH  12  18
ATOM     18  C   UNL     1       4.985   6.036  16.067  0.00  0.00    +0.000 C 
ATOM     19  O   UNL     1       5.218   7.099  15.498  0.00  0.00    +0.000 OA
ATOM     20  N   UNL     1       5.336   4.777  15.609  0.00  0.00    +0.000 N 
ATOM     21  H   UNL     1       4.935   3.979  16.080  0.00  0.00    +0.000 HD
BRANCH  20  22
ATOM     22  C   UNL     1       6.027   4.526  14.398  0.00  0.00    +0.000 A 
ATOM     23  C   UNL     1       7.235   5.138  14.062  0.00  0.00    +0.000 A 
ATOM     24  C   UNL     1       7.800   4.870  12.825  0.00  0.00    +0.000 A 
ATOM     25  N   UNL     1       7.256   4.032  11.920  0.00  0.00    +0.000 NA
ATOM     26  C   UNL     1       6.101   3.432  12.274  0.00  0.00    +0.000 A 
ATOM     27  C   UNL     1       5.465   3.631  13.488  0.00  0.00    +0.000 A 
ENDBRANCH  20  22
ENDBRANCH  12  18
TORSDOF 2
ENDMDL
MODEL 3
REMARK VINA RESULT:      -7.8      4.662      6.184
REMARK  Name = 
REMARK  3 active torsions:
REMARK  status: ('A' for Active; 'I' for Inactive)
REMARK    1  A    between atoms: C_1  and  C_2
REMARK    2  A    between atoms: C_12  and  C_13
REMARK    3  A    between atoms: N_15  and  C_16
REMARK                            x       y       z     vdW  Elec       q    Type
REMARK                         _______ _______ _______ _____ _____    ______ ____
ROOT
ATOM      1  C   UNL     1       2.541   6.866  19.061  0.00  0.00    +0.000 C 
ATOM      2  C   UNL     1       2.782   5.881  17.917  0.00  0.00    +0.000 C 
ATOM      3  C   UNL     1       1.633   4.839  17.824  0.00  0.00    +0.000 C 
ATOM      4  N   UNL     1       1.835   3.617  18.600  0.00  0.00    +0.000 N 
ATOM      5  C   UNL     1       3.055   2.977  18.664  0.00  0.00    +0.000 C 
ATOM      6  O   UNL     1       3.149   1.798  18.979  0.00  0.00    +0.000 OA
ATOM      7  C   UNL     1       4.174   3.832  18.378  0.00  0.00    +0.000 A 
ATOM      8  N   UNL     1       5.498   3.487  18.443  0.00  0.00    +0.000 N 
ATOM      9  C   UNL     1       6.287   4.609  18.288  0.00  0.00    +0.000 A 
ATOM     10  C   UNL     1       7.676   4.773  18.398  0.00  0.00    +0.000 A 
ATOM     11  C   UNL     1       8.198   6.071  18.277  0.00  0.00    +0.000 A 
ATOM     12  C   UNL     1       7.356   7.154  18.015  0.00  0.00    +0.000 A 
ATOM     13  C   UNL     1       5.973   6.957  17.856  0.00  0.00    +0.000 A 
ATOM     14  C   UNL     1       5.426   5.676  18.020  0.00  0.00    +0.000 A 
ATOM     15  C   UNL     1       4.097   5.172  18.054  0.00  0.00    +0.000 A 
ATOM     16  H   UNL     1       1.049   2.999  18.753  0.00  0.00    +0.000 HD
ATOM     17  H   UNL     1       5.831   2.560  18.674  0.00  0.00    +0.000 HD
ENDROOT
BRANCH  12  18
ATOM     18  C   UNL     1       7.820   8.567  18.008  0.00  0.00    +0.000 C 
ATOM     19  O   UNL     1       7.377   9.297  17.125  0.00  0.00    +0.000 OA
ATOM     20  N   UNL     1       8.759   8.924  18.960  0.00  0.00    +0.000 N 
ATOM     21  H   UNL     1       9.166   8.186  19.517  0.00  0.00    +0.000 HD
BRANCH  20  22
ATOM     22  C   UNL     1       9.358  10.204  19.058  0.00  0.00    +0.000 A 
ATOM     23  C   UNL     1       9.880  10.893  17.964  0.00  0.00    +0.000 A 
ATOM     24  C   UNL     1      10.500  12.114  18.175  0.00  0.00    +0.000 A 
ATOM     25  N   UNL     1      10.620  12.693  19.387  0.00  0.00    +0.000 NA
ATOM     26  C   UNL     1      10.088  12.022  20.429  0.00  0.00    +0.000 A 
ATOM     27  C   UNL     1       9.444  10.801  20.317  0.00  0.00    +0.000 A 
ENDBRANCH  20  22
ENDBRANCH  12  18
TORSDOF 2
ENDMDL
MODEL 4
REMARK VINA RESULT:      -7.7      1.505      1.683
REMARK  Name = 
REMARK  3 active torsions:
REMARK  status: ('A' for Active; 'I' for Inactive)
REMARK    1  A    between atoms: C_1  and  C_2
REMARK    2  A    between atoms: C_12  and  C_13
REMARK    3  A    between atoms: N_15  and  C_16
REMARK                            x       y       z     vdW  Elec       q    Type
REMARK                         _______ _______ _______ _____ _____    ______ ____
ROOT
ATOM      1  C   UNL     1       1.018   3.914  20.631  0.00  0.00    +0.000 C 
ATOM      2  C   UNL     1       0.967   3.541  19.149  0.00  0.00    +0.000 C 
ATOM      3  C   UNL     1       0.973   2.000  18.959  0.00  0.00    +0.000 C 
ATOM      4  N   UNL     1       2.295   1.392  18.820  0.00  0.00    +0.000 N 
ATOM      5  C   UNL     1       3.296   1.970  18.066  0.00  0.00    +0.000 C 
ATOM      6  O   UNL     1       4.241   1.318  17.642  0.00  0.00    +0.000 OA
ATOM      7  C   UNL     1       3.139   3.386  17.881  0.00  0.00    +0.000 A 
ATOM      8  N   UNL     1       4.017   4.225  17.247  0.00  0.00    +0.000 N 
ATOM      9  C   UNL     1       3.631   5.538  17.427  0.00  0.00    +0.000 A 
ATOM     10  C   UNL     1       4.269   6.735  17.073  0.00  0.00    +0.000 A 
ATOM     11  C   UNL     1       3.674   7.942  17.475  0.00  0.00    +0.000 A 
ATOM     12  C   UNL     1       2.463   7.941  18.171  0.00  0.00    +0.000 A 
ATOM     13  C   UNL     1       1.816   6.729  18.469  0.00  0.00    +0.000 A 
ATOM     14  C   UNL     1       2.416   5.511  18.118  0.00  0.00    +0.000 A 
ATOM     15  C   UNL     1       2.102   4.150  18.378  0.00  0.00    +0.000 A 
ATOM     16  H   UNL     1       2.384   0.388  18.904  0.00  0.00    +0.000 HD
ATOM     17  H   UNL     1       4.872   3.918  16.801  0.00  0.00    +0.000 HD
ENDROOT
BRANCH  12  18
ATOM     18  C   UNL     1       1.848   9.168  18.742  0.00  0.00    +0.000 C 
ATOM     19  O   UNL     1       1.275   9.056  19.824  0.00  0.00    +0.000 OA
ATOM     20  N   UNL     1       1.918  10.321  17.979  0.00  0.00    +0.000 N 
ATOM     21  H   UNL     1       2.266  10.235  17.034  0.00  0.00    +0.000 HD
BRANCH  20  22
ATOM     22  C   UNL     1       1.332  11.560  18.336  0.00  0.00    +0.000 A 
ATOM     23  C   UNL     1      -0.040  11.734  18.522  0.00  0.00    +0.000 A 
ATOM     24  C   UNL     1      -0.520  13.002  18.810  0.00  0.00    +0.000 A 
ATOM     25  N   UNL     1       0.267  14.089  18.938  0.00  0.00    +0.000 NA
ATOM     26  C   UNL     1       1.592  13.894  18.779  0.00  0.00    +0.000 A 
ATOM     27  C   UNL     1       2.166  12.666  18.495  0.00  0.00    +0.000 A 
ENDBRANCH  20  22
ENDBRANCH  12  18
TORSDOF 2
ENDMDL
MODEL 5
REMARK VINA RESULT:      -7.6      1.323      1.325
REMARK  Name = 
REMARK  3 active torsions:
REMARK  status: ('A' for Active; 'I' for Inactive)
REMARK    1  A    between atoms: C_1  and  C_2
REMARK    2  A    between atoms: C_12  and  C_13
REMARK    3  A    between atoms: N_15  and  C_16
REMARK                            x       y       z     vdW  Elec       q    Type
REMARK                         _______ _______ _______ _____ _____    ______ ____
ROOT
ATOM      1  C   UNL     1       1.004   3.832  20.623  0.00  0.00    +0.000 C 
ATOM      2  C   UNL     1       0.964   3.492  19.133  0.00  0.00    +0.000 C 
ATOM      3  C   UNL     1       0.991   1.955  18.910  0.00  0.00    +0.000 C 
ATOM      4  N   UNL     1       2.321   1.368  18.762  0.00  0.00    +0.000 N 
ATOM      5  C   UNL     1       3.317   1.975  18.025  0.00  0.00    +0.000 C 
ATOM      6  O   UNL     1       4.272   1.345  17.590  0.00  0.00    +0.000 OA
ATOM      7  C   UNL     1       3.142   3.393  17.871  0.00  0.00    +0.000 A 
ATOM      8  N   UNL     1       4.010   4.257  17.258  0.00  0.00    +0.000 N 
ATOM      9  C   UNL     1       3.606   5.560  17.466  0.00  0.00    +0.000 A 
ATOM     10  C   UNL     1       4.230   6.774  17.140  0.00  0.00    +0.000 A 
ATOM     11  C   UNL     1       3.617   7.964  17.566  0.00  0.00    +0.000 A 
ATOM     12  C   UNL     1       2.404   7.931  18.258  0.00  0.00    +0.000 A 
ATOM     13  C   UNL     1       1.772   6.705  18.527  0.00  0.00    +0.000 A 
ATOM     14  C   UNL     1       2.390   5.502  18.151  0.00  0.00    +0.000 A 
ATOM     15  C   UNL     1       2.093   4.132  18.380  0.00  0.00    +0.000 A 
ATOM     16  H   UNL     1       2.423   0.363  18.824  0.00  0.00    +0.000 HD
ATOM     17  H   UNL     1       4.871   3.972  16.809  0.00  0.00    +0.000 HD
ENDROOT
BRANCH  12  18
ATOM     18  C   UNL     1       1.771   9.137  18.854  0.00  0.00    +0.000 C 
ATOM     19  O   UNL     1       1.380   9.049  20.016  0.00  0.00    +0.000 OA
ATOM     20  N   UNL     1       1.618  10.239  18.030  0.00  0.00    +0.000 N 
ATOM     21  H   UNL     1       1.826  10.121  17.048  0.00  0.00    +0.000 HD
BRANCH  20  22
ATOM     22  C   UNL     1       0.979  11.445  18.409  0.00  0.00    +0.000 A 
ATOM     23  C   UNL     1       1.673  12.604  18.758  0.00  0.00    +0.000 A 
ATOM     24  C   UNL     1       0.955  13.714  19.173  0.00  0.00    +0.000 A 
ATOM     25  N   UNL     1      -0.391  13.750  19.249  0.00  0.00    +0.000 NA
ATOM     26  C   UNL     1      -1.044  12.627  18.885  0.00  0.00    +0.000 A 
ATOM     27  C   UNL     1      -0.415  11.472  18.451  0.00  0.00    +0.000 A 
ENDBRANCH  20  22
ENDBRANCH  12  18
TORSDOF 2
ENDMDL
MODEL 6
REMARK VINA RESULT:      -7.3      1.060      1.245
REMARK  Name = 
REMARK  3 active torsions:
REMARK  status: ('A' for Active; 'I' for Inactive)
REMARK    1  A    between atoms: C_1  and  C_2
REMARK    2  A    between atoms: C_12  and  C_13
REMARK    3  A    between atoms: N_15  and  C_16
REMARK                            x       y       z     vdW  Elec       q    Type
REMARK                         _______ _______ _______ _____ _____    ______ ____
ROOT
ATOM      1  C   UNL     1       1.180   3.695  20.858  0.00  0.00    +0.000 C 
ATOM      2  C   UNL     1       1.044   3.393  19.365  0.00  0.00    +0.000 C 
ATOM      3  C   UNL     1       1.112   1.865  19.096  0.00  0.00    +0.000 C 
ATOM      4  N   UNL     1       2.449   1.335  18.837  0.00  0.00    +0.000 N 
ATOM      5  C   UNL     1       3.365   1.999  18.049  0.00  0.00    +0.000 C 
ATOM      6  O   UNL     1       4.310   1.419  17.529  0.00  0.00    +0.000 OA
ATOM      7  C   UNL     1       3.127   3.413  17.949  0.00  0.00    +0.000 A 
ATOM      8  N   UNL     1       3.917   4.326  17.301  0.00  0.00    +0.000 N 
ATOM      9  C   UNL     1       3.480   5.606  17.574  0.00  0.00    +0.000 A 
ATOM     10  C   UNL     1       4.033   6.852  17.240  0.00  0.00    +0.000 A 
ATOM     11  C   UNL     1       3.409   8.005  17.743  0.00  0.00    +0.000 A 
ATOM     12  C   UNL     1       2.252   7.907  18.518  0.00  0.00    +0.000 A 
ATOM     13  C   UNL     1       1.687   6.650  18.796  0.00  0.00    +0.000 A 
ATOM     14  C   UNL     1       2.320   5.483  18.343  0.00  0.00    +0.000 A 
ATOM     15  C   UNL     1       2.091   4.096  18.553  0.00  0.00    +0.000 A 
ATOM     16  H   UNL     1       2.592   0.334  18.863  0.00  0.00    +0.000 HD
ATOM     17  H   UNL     1       4.753   4.086  16.784  0.00  0.00    +0.000 HD
ENDROOT
BRANCH  12  18
ATOM     18  C   UNL     1       1.618   9.071  19.192  0.00  0.00    +0.000 C 
ATOM     19  O   UNL     1       1.650  10.147  18.599  0.00  0.00    +0.000 OA
ATOM     20  N   UNL     1       1.100   8.859  20.458  0.00  0.00    +0.000 N 
ATOM     21  H   UNL     1       1.292   7.971  20.900  0.00  0.00    +0.000 HD
BRANCH  20  22
ATOM     22  C   UNL     1       0.522   9.866  21.270  0.00  0.00    +0.000 A 
ATOM     23  C   UNL     1      -0.236   9.593  22.409  0.00  0.00    +0.000 A 
ATOM     24  C   UNL     1      -0.809  10.648  23.100  0.00  0.00    +0.000 A 
ATOM     25  N   UNL     1      -0.667  11.941  22.745  0.00  0.00    +0.000 NA
ATOM     26  C   UNL     1       0.090  12.185  21.656  0.00  0.00    +0.000 A 
ATOM     27  C   UNL     1       0.708  11.200  20.904  0.00  0.00    +0.000 A 
ENDBRANCH  20  22
ENDBRANCH  12  18
TORSDOF 2
ENDMDL
MODEL 7
REMARK VINA RESULT:      -7.3      2.869      8.287
REMARK  Name = 
REMARK  3 active torsions:
REMARK  status: ('A' for Active; 'I' for Inactive)
REMARK    1  A    between atoms: C_1  and  C_2
REMARK    2  A    between atoms: C_12  and  C_13
REMARK    3  A    between atoms: N_15  and  C_16
REMARK                            x       y       z     vdW  Elec       q    Type
REMARK                         _______ _______ _______ _____ _____    ______ ____
ROOT
ATOM      1  C   UNL     1       2.556  11.938  18.124  0.00  0.00    +0.000 C 
ATOM      2  C   UNL     1       1.084  11.656  18.427  0.00  0.00    +0.000 C 
ATOM      3  C   UNL     1       0.330  12.961  18.799  0.00  0.00    +0.000 C 
ATOM      4  N   UNL     1       0.311  13.288  20.224  0.00  0.00    +0.000 N 
ATOM      5  C   UNL     1       0.117  12.330  21.197  0.00  0.00    +0.000 C 
ATOM      6  O   UNL     1      -0.268  12.622  22.322  0.00  0.00    +0.000 OA
ATOM      7  C   UNL     1       0.452  10.998  20.775  0.00  0.00    +0.000 A 
ATOM      8  N   UNL     1       0.430   9.870  21.552  0.00  0.00    +0.000 N 
ATOM      9  C   UNL     1       0.993   8.812  20.866  0.00  0.00    +0.000 A 
ATOM     10  C   UNL     1       1.296   7.508  21.285  0.00  0.00    +0.000 A 
ATOM     11  C   UNL     1       1.961   6.665  20.381  0.00  0.00    +0.000 A 
ATOM     12  C   UNL     1       2.272   7.106  19.092  0.00  0.00    +0.000 A 
ATOM     13  C   UNL     1       1.910   8.400  18.678  0.00  0.00    +0.000 A 
ATOM     14  C   UNL     1       1.287   9.275  19.581  0.00  0.00    +0.000 A 
ATOM     15  C   UNL     1       0.920  10.646  19.525  0.00  0.00    +0.000 A 
ATOM     16  H   UNL     1       0.026  14.215  20.510  0.00  0.00    +0.000 HD
ATOM     17  H   UNL     1       0.136   9.854  22.520  0.00  0.00    +0.000 HD
ENDROOT
BRANCH  12  18
ATOM     18  C   UNL     1       3.090   6.318  18.133  0.00  0.00    +0.000 C 
ATOM     19  O   UNL     1       2.573   5.313  17.650  0.00  0.00    +0.000 OA
ATOM     20  N   UNL     1       4.387   6.748  17.911  0.00  0.00    +0.000 N 
ATOM     21  H   UNL     1       4.742   7.488  18.501  0.00  0.00    +0.000 HD
BRANCH  20  22
ATOM     22  C   UNL     1       5.325   6.084  17.083  0.00  0.00    +0.000 A 
ATOM     23  C   UNL     1       5.272   6.109  15.690  0.00  0.00    +0.000 A 
ATOM     24  C   UNL     1       6.202   5.375  14.972  0.00  0.00    +0.000 A 
ATOM     25  N   UNL     1       7.177   4.639  15.542  0.00  0.00    +0.000 NA
ATOM     26  C   UNL     1       7.226   4.648  16.890  0.00  0.00    +0.000 A 
ATOM     27  C   UNL     1       6.346   5.354  17.693  0.00  0.00    +0.000 A 
ENDBRANCH  20  22
ENDBRANCH  12  18
TORSDOF 2
ENDMDL
MODEL 8
REMARK VINA RESULT:      -7.1      1.814      2.302
REMARK  Name = 
REMARK  3 active torsions:
REMARK  status: ('A' for Active; 'I' for Inactive)
REMARK    1  A    between atoms: C_1  and  C_2
REMARK    2  A    between atoms: C_12  and  C_13
REMARK    3  A    between atoms: N_15  and  C_16
REMARK                            x       y       z     vdW  Elec       q    Type
REMARK                         _______ _______ _______ _____ _____    ______ ____
ROOT
ATOM      1  C   UNL     1       2.266   3.690  21.768  0.00  0.00    +0.000 C 
ATOM      2  C   UNL     1       1.569   3.517  20.418  0.00  0.00    +0.000 C 
ATOM      3  C   UNL     1       1.748   2.072  19.878  0.00  0.00    +0.000 C 
ATOM      4  N   UNL     1       2.920   1.863  19.029  0.00  0.00    +0.000 N 
ATOM      5  C   UNL     1       3.314   2.781  18.078  0.00  0.00    +0.000 C 
ATOM      6  O   UNL     1       4.032   2.467  17.137  0.00  0.00    +0.000 OA
ATOM      7  C   UNL     1       2.845   4.116  18.330  0.00  0.00    +0.000 A 
ATOM      8  N   UNL     1       3.146   5.234  17.599  0.00  0.00    +0.000 N 
ATOM      9  C   UNL     1       2.676   6.361  18.243  0.00  0.00    +0.000 A 
ATOM     10  C   UNL     1       2.845   7.722  17.947  0.00  0.00    +0.000 A 
ATOM     11  C   UNL     1       2.321   8.662  18.848  0.00  0.00    +0.000 A 
ATOM     12  C   UNL     1       1.620   8.246  19.983  0.00  0.00    +0.000 A 
ATOM     13  C   UNL     1       1.418   6.877  20.231  0.00  0.00    +0.000 A 
ATOM     14  C   UNL     1       1.973   5.920  19.368  0.00  0.00    +0.000 A 
ATOM     15  C   UNL     1       2.065   4.503  19.401  0.00  0.00    +0.000 A 
ATOM     16  H   UNL     1       3.210   0.917  18.819  0.00  0.00    +0.000 HD
ATOM     17  H   UNL     1       3.717   5.229  16.764  0.00  0.00    +0.000 HD
ENDROOT
BRANCH  12  18
ATOM     18  C   UNL     1       1.157   9.178  21.045  0.00  0.00    +0.000 C 
ATOM     19  O   UNL     1       1.396   8.864  22.208  0.00  0.00    +0.000 OA
ATOM     20  N   UNL     1       0.442  10.291  20.636  0.00  0.00    +0.000 N 
ATOM     21  H   UNL     1       0.168  10.340  19.665  0.00  0.00    +0.000 HD
BRANCH  20  22
ATOM     22  C   UNL     1      -0.130  11.246  21.513  0.00  0.00    +0.000 A 
ATOM     23  C   UNL     1      -1.068  10.923  22.493  0.00  0.00    +0.000 A 
ATOM     24  C   UNL     1      -1.612  11.941  23.259  0.00  0.00    +0.000 A 
ATOM     25  N   UNL     1      -1.277  13.240  23.125  0.00  0.00    +0.000 NA
ATOM     26  C   UNL     1      -0.351  13.528  22.188  0.00  0.00    +0.000 A 
ATOM     27  C   UNL     1       0.253  12.580  21.379  0.00  0.00    +0.000 A 
ENDBRANCH  20  22
ENDBRANCH  12  18
TORSDOF 2
ENDMDL
MODEL 9
REMARK VINA RESULT:      -7.0      2.445      8.867
REMARK  Name = 
REMARK  3 active torsions:
REMARK  status: ('A' for Active; 'I' for Inactive)
REMARK    1  A    between atoms: C_1  and  C_2
REMARK    2  A    between atoms: C_12  and  C_13
REMARK    3  A    between atoms: N_15  and  C_16
REMARK                            x       y       z     vdW  Elec       q    Type
REMARK                         _______ _______ _______ _____ _____    ______ ____
ROOT
ATOM      1  C   UNL     1       2.067  13.186  18.301  0.00  0.00    +0.000 C 
ATOM      2  C   UNL     1       0.578  13.056  18.623  0.00  0.00    +0.000 C 
ATOM      3  C   UNL     1      -0.085  14.453  18.775  0.00  0.00    +0.000 C 
ATOM      4  N   UNL     1      -0.086  14.999  20.131  0.00  0.00    +0.000 N 
ATOM      5  C   UNL     1      -0.350  14.221  21.239  0.00  0.00    +0.000 C 
ATOM      6  O   UNL     1      -0.718  14.713  22.298  0.00  0.00    +0.000 OA
ATOM      7  C   UNL     1      -0.107  12.820  21.035  0.00  0.00    +0.000 A 
ATOM      8  N   UNL     1      -0.210  11.832  21.979  0.00  0.00    +0.000 N 
ATOM      9  C   UNL     1       0.279  10.644  21.474  0.00  0.00    +0.000 A 
ATOM     10  C   UNL     1       0.490   9.404  22.097  0.00  0.00    +0.000 A 
ATOM     11  C   UNL     1       1.098   8.386  21.345  0.00  0.00    +0.000 A 
ATOM     12  C   UNL     1       1.443   8.597  20.008  0.00  0.00    +0.000 A 
ATOM     13  C   UNL     1       1.174   9.832  19.392  0.00  0.00    +0.000 A 
ATOM     14  C   UNL     1       0.610  10.878  20.137  0.00  0.00    +0.000 A 
ATOM     15  C   UNL     1       0.340  12.246  19.862  0.00  0.00    +0.000 A 
ATOM     16  H   UNL     1      -0.307  15.977  20.264  0.00  0.00    +0.000 HD
ATOM     17  H   UNL     1      -0.509  11.988  22.933  0.00  0.00    +0.000 HD
ENDROOT
BRANCH  12  18
ATOM     18  C   UNL     1       2.207   7.614  19.196  0.00  0.00    +0.000 C 
ATOM     19  O   UNL     1       2.774   8.038  18.191  0.00  0.00    +0.000 OA
ATOM     20  N   UNL     1       2.166   6.293  19.607  0.00  0.00    +0.000 N 
ATOM     21  H   UNL     1       1.525   6.053  20.349  0.00  0.00    +0.000 HD
BRANCH  20  22
ATOM     22  C   UNL     1       2.780   5.217  18.918  0.00  0.00    +0.000 A 
ATOM     23  C   UNL     1       2.150   4.497  17.904  0.00  0.00    +0.000 A 
ATOM     24  C   UNL     1       2.814   3.422  17.335  0.00  0.00    +0.000 A 
ATOM     25  N   UNL     1       4.053   3.032  17.695  0.00  0.00    +0.000 NA
ATOM     26  C   UNL     1       4.654   3.757  18.660  0.00  0.00    +0.000 A 
ATOM     27  C   UNL     1       4.075   4.849  19.283  0.00  0.00    +0.000 A 
ENDBRANCH  20  22
ENDBRANCH  12  18
TORSDOF 2
ENDMDL
