MODEL 1
REMARK VINA RESULT:      -7.3      0.000      0.000
REMARK  Name = 
REMARK  12 active torsions:
REMARK  status: ('A' for Active; 'I' for Inactive)
REMARK    1  A    between atoms: C_1  and  O_2
REMARK    2  A    between atoms: O_2  and  C_3
REMARK    3  A    between atoms: C_5  and  C_6
REMARK    4  A    between atoms: C_6  and  C_7
REMARK    5  A    between atoms: C_7  and  O_8
REMARK    6  A    between atoms: C_10  and  C_11
REMARK    7  A    between atoms: C_13  and  C_14
REMARK    8  A    between atoms: C_14  and  C_15
REMARK    9  A    between atoms: C_15  and  O_16
REMARK   10  A    between atoms: C_18  and  O_19
REMARK   11  A    between atoms: C_20  and  O_21
REMARK   12  A    between atoms: C_22  and  O_23
REMARK                            x       y       z     vdW  Elec       q    Type
REMARK                         _______ _______ _______ _____ _____    ______ ____
ROOT
ATOM      1  C   UNL     1       3.895   5.975  17.854  0.00  0.00    +0.000 A 
ATOM      2  C   UNL     1       3.488   4.785  18.467  0.00  0.00    +0.000 A 
ATOM      3  C   UNL     1       3.798   3.543  17.912  0.00  0.00    +0.000 A 
ATOM      4  C   UNL     1       4.564   3.501  16.739  0.00  0.00    +0.000 A 
ATOM      5  C   UNL     1       4.962   4.667  16.054  0.00  0.00    +0.000 A 
ATOM      6  C   UNL     1       4.590   5.908  16.634  0.00  0.00    +0.000 A 
ENDROOT
BRANCH   5   7
ATOM      7  C   UNL     1       5.725   4.550  14.775  0.00  0.00    +0.000 A 
ATOM      8  C   UNL     1       5.236   3.753  13.712  0.00  0.00    +0.000 A 
ATOM      9  C   UNL     1       5.988   3.505  12.550  0.00  0.00    +0.000 A 
ATOM     10  C   UNL     1       7.208   4.160  12.367  0.00  0.00    +0.000 A 
ATOM     11  C   UNL     1       7.672   5.008  13.358  0.00  0.00    +0.000 A 
ATOM     12  C   UNL     1       6.961   5.179  14.553  0.00  0.00    +0.000 A 
BRANCH  11  13
ATOM     13  O   UNL     1       8.853   5.690  13.226  0.00  0.00    +0.000 OA
ATOM     14  H   UNL     1       9.483   5.125  12.747  0.00  0.00    +0.000 HD
ENDBRANCH  11  13
BRANCH  12  15
ATOM     15  O   UNL     1       7.543   5.973  15.509  0.00  0.00    +0.000 OA
ATOM     16  H   UNL     1       7.828   6.778  15.032  0.00  0.00    +0.000 HD
ENDBRANCH  12  15
BRANCH   9  17
ATOM     17  C   UNL     1       5.495   2.505  11.526  0.00  0.00    +0.000 C 
BRANCH  17  18
ATOM     18  C   UNL     1       6.559   1.492  11.111  0.00  0.00    +0.000 C 
BRANCH  18  19
ATOM     19  O   UNL     1       6.149   0.168  11.432  0.00  0.00    +0.000 OA
ATOM     20  H   UNL     1       6.687  -0.433  10.886  0.00  0.00    +0.000 HD
ENDBRANCH  18  19
ENDBRANCH  17  18
ENDBRANCH   9  17
ENDBRANCH   5   7
BRANCH   1  22
ATOM     21  C   UNL     1       2.521   6.945  19.569  0.00  0.00    +0.000 C 
ATOM     22  O   UNL     1       3.501   7.090  18.549  0.00  0.00    +0.000 OA
ENDBRANCH   1  22
BRANCH   6  23
ATOM     23  O   UNL     1       4.863   7.079  15.967  0.00  0.00    +0.000 OA
ATOM     24  H   UNL     1       4.839   7.797  16.623  0.00  0.00    +0.000 HD
ENDBRANCH   6  23
BRANCH   3  25
ATOM     25  C   UNL     1       3.291   2.258  18.527  0.00  0.00    +0.000 C 
BRANCH  25  26
ATOM     26  C   UNL     1       3.794   2.039  19.959  0.00  0.00    +0.000 C 
BRANCH  26  27
ATOM     27  O   UNL     1       5.202   2.212  20.061  0.00  0.00    +0.000 OA
ATOM     28  H   UNL     1       5.371   2.754  20.854  0.00  0.00    +0.000 HD
ENDBRANCH  26  27
ENDBRANCH  25  26
ENDBRANCH   3  25
TORSDOF 11
ENDMDL
MODEL 2
REMARK VINA RESULT:      -7.3      2.229      4.436
REMARK  Name = 
REMARK  12 active torsions:
REMARK  status: ('A' for Active; 'I' for Inactive)
REMARK    1  A    between atoms: C_1  and  O_2
REMARK    2  A    between atoms: O_2  and  C_3
REMARK    3  A    between atoms: C_5  and  C_6
REMARK    4  A    between atoms: C_6  and  C_7
REMARK    5  A    between atoms: C_7  and  O_8
REMARK    6  A    between atoms: C_10  and  C_11
REMARK    7  A    between atoms: C_13  and  C_14
REMARK    8  A    between atoms: C_14  and  C_15
REMARK    9  A    between atoms: C_15  and  O_16
REMARK   10  A    between atoms: C_18  and  O_19
REMARK   11  A    between atoms: C_20  and  O_21
REMARK   12  A    between atoms: C_22  and  O_23
REMARK                            x       y       z     vdW  Elec       q    Type
REMARK                         _______ _______ _______ _____ _____    ______ ____
ROOT
ATOM      1  C   UNL     1       2.423   4.838  20.479  0.00  0.00    +0.000 A 
ATOM      2  C   UNL     1       1.854   6.112  20.377  0.00  0.00    +0.000 A 
ATOM      3  C   UNL     1       2.285   7.021  19.410  0.00  0.00    +0.000 A 
ATOM      4  C   UNL     1       3.281   6.624  18.508  0.00  0.00    +0.000 A 
ATOM      5  C   UNL     1       3.921   5.371  18.592  0.00  0.00    +0.000 A 
ATOM      6  C   UNL     1       3.478   4.493  19.617  0.00  0.00    +0.000 A 
ENDROOT
BRANCH   5   7
ATOM      7  C   UNL     1       5.019   5.034  17.636  0.00  0.00    +0.000 A 
ATOM      8  C   UNL     1       4.761   4.933  16.247  0.00  0.00    +0.000 A 
ATOM      9  C   UNL     1       5.731   4.483  15.334  0.00  0.00    +0.000 A 
ATOM     10  C   UNL     1       7.034   4.242  15.776  0.00  0.00    +0.000 A 
ATOM     11  C   UNL     1       7.331   4.410  17.118  0.00  0.00    +0.000 A 
ATOM     12  C   UNL     1       6.339   4.770  18.038  0.00  0.00    +0.000 A 
BRANCH  11  13
ATOM     13  O   UNL     1       8.596   4.205  17.606  0.00  0.00    +0.000 OA
ATOM     14  H   UNL     1       8.559   4.233  18.577  0.00  0.00    +0.000 HD
ENDBRANCH  11  13
BRANCH  12  15
ATOM     15  O   UNL     1       6.712   4.829  19.357  0.00  0.00    +0.000 OA
ATOM     16  H   UNL     1       6.245   5.609  19.719  0.00  0.00    +0.000 HD
ENDBRANCH  12  15
BRANCH   9  17
ATOM     17  C   UNL     1       5.353   4.224  13.892  0.00  0.00    +0.000 C 
BRANCH  17  18
ATOM     18  C   UNL     1       6.526   3.757  13.033  0.00  0.00    +0.000 C 
BRANCH  18  19
ATOM     19  O   UNL     1       6.133   2.694  12.175  0.00  0.00    +0.000 OA
ATOM     20  H   UNL     1       5.478   2.165  12.664  0.00  0.00    +0.000 HD
ENDBRANCH  18  19
ENDBRANCH  17  18
ENDBRANCH   9  17
ENDBRANCH   5   7
BRANCH   1  22
ATOM     21  C   UNL     1       1.204   2.877  21.143  0.00  0.00    +0.000 C 
ATOM     22  O   UNL     1       1.866   4.089  21.484  0.00  0.00    +0.000 OA
ENDBRANCH   1  22
BRANCH   6  23
ATOM     23  O   UNL     1       4.125   3.296  19.813  0.00  0.00    +0.000 OA
ATOM     24  H   UNL     1       3.580   2.771  20.425  0.00  0.00    +0.000 HD
ENDBRANCH   6  23
BRANCH   3  25
ATOM     25  C   UNL     1       1.730   8.426  19.350  0.00  0.00    +0.000 C 
BRANCH  25  26
ATOM     26  C   UNL     1       1.678   8.990  17.925  0.00  0.00    +0.000 C 
BRANCH  26  27
ATOM     27  O   UNL     1       1.094  10.287  17.887  0.00  0.00    +0.000 OA
ATOM     28  H   UNL     1       1.388  10.761  18.688  0.00  0.00    +0.000 HD
ENDBRANCH  26  27
ENDBRANCH  25  26
ENDBRANCH   3  25
TORSDOF 11
ENDMDL
MODEL 3
REMARK VINA RESULT:      -7.2      1.107      1.123
REMARK  Name = 
REMARK  12 active torsions:
REMARK  status: ('A' for Active; 'I' for Inactive)
REMARK    1  A    between atoms: C_1  and  O_2
REMARK    2  A    between atoms: O_2  and  C_3
REMARK    3  A    between atoms: C_5  and  C_6
REMARK    4  A    between atoms: C_6  and  C_7
REMARK    5  A    between atoms: C_7  and  O_8
REMARK    6  A    between atoms: C_10  and  C_11
REMARK    7  A    between atoms: C_13  and  C_14
REMARK    8  A    between atoms: C_14  and  C_15
REMARK    9  A    between atoms: C_15  and  O_16
REMARK   10  A    between atoms: C_18  and  O_19
REMARK   11  A    between atoms: C_20  and  O_21
REMARK   12  A    between atoms: C_22  and  O_23
REMARK                            x       y       z     vdW  Elec       q    Type
REMARK                         _______ _______ _______ _____ _____    ______ ____
ROOT
ATOM      1  C   UNL     1       3.869   5.643  18.082  0.00  0.00    +0.000 A 
ATOM      2  C   UNL     1       3.512   4.398  18.611  0.00  0.00    +0.000 A 
ATOM      3  C   UNL     1       3.852   3.212  17.959  0.00  0.00    +0.000 A 
ATOM      4  C   UNL     1       4.595   3.283  16.773  0.00  0.00    +0.000 A 
ATOM      5  C   UNL     1       4.943   4.509  16.171  0.00  0.00    +0.000 A 
ATOM      6  C   UNL     1       4.542   5.691  16.848  0.00  0.00    +0.000 A 
ENDROOT
BRANCH   5   7
ATOM      7  C   UNL     1       5.684   4.514  14.874  0.00  0.00    +0.000 A 
ATOM      8  C   UNL     1       5.170   3.830  13.746  0.00  0.00    +0.000 A 
ATOM      9  C   UNL     1       5.901   3.692  12.552  0.00  0.00    +0.000 A 
ATOM     10  C   UNL     1       7.125   4.351  12.415  0.00  0.00    +0.000 A 
ATOM     11  C   UNL     1       7.613   5.092  13.478  0.00  0.00    +0.000 A 
ATOM     12  C   UNL     1       6.923   5.150  14.695  0.00  0.00    +0.000 A 
BRANCH  11  13
ATOM     13  O   UNL     1       8.799   5.774  13.394  0.00  0.00    +0.000 OA
ATOM     14  H   UNL     1       9.294   5.633  14.219  0.00  0.00    +0.000 HD
ENDBRANCH  11  13
BRANCH  12  15
ATOM     15  O   UNL     1       7.528   5.841  15.715  0.00  0.00    +0.000 OA
ATOM     16  H   UNL     1       8.351   5.346  15.905  0.00  0.00    +0.000 HD
ENDBRANCH  12  15
BRANCH   9  17
ATOM     17  C   UNL     1       5.382   2.803  11.443  0.00  0.00    +0.000 C 
BRANCH  17  18
ATOM     18  C   UNL     1       5.951   1.388  11.486  0.00  0.00    +0.000 C 
BRANCH  18  19
ATOM     19  O   UNL     1       7.324   1.383  11.113  0.00  0.00    +0.000 OA
ATOM     20  H   UNL     1       7.406   0.777  10.355  0.00  0.00    +0.000 HD
ENDBRANCH  18  19
ENDBRANCH  17  18
ENDBRANCH   9  17
ENDBRANCH   5   7
BRANCH   1  22
ATOM     21  C   UNL     1       2.368   6.481  19.760  0.00  0.00    +0.000 C 
ATOM     22  O   UNL     1       3.453   6.690  18.865  0.00  0.00    +0.000 OA
ENDBRANCH   1  22
BRANCH   6  23
ATOM     23  O   UNL     1       4.765   6.917  16.267  0.00  0.00    +0.000 OA
ATOM     24  H   UNL     1       4.546   6.832  15.322  0.00  0.00    +0.000 HD
ENDBRANCH   6  23
BRANCH   3  25
ATOM     25  C   UNL     1       3.398   1.869  18.485  0.00  0.00    +0.000 C 
BRANCH  25  26
ATOM     26  C   UNL     1       2.127   1.957  19.337  0.00  0.00    +0.000 C 
BRANCH  26  27
ATOM     27  O   UNL     1       0.950   1.777  18.559  0.00  0.00    +0.000 OA
ATOM     28  H   UNL     1       0.972   0.869  18.203  0.00  0.00    +0.000 HD
ENDBRANCH  26  27
ENDBRANCH  25  26
ENDBRANCH   3  25
TORSDOF 11
ENDMDL
MODEL 4
REMARK VINA RESULT:      -7.2      2.018      3.098
REMARK  Name = 
REMARK  12 active torsions:
REMARK  status: ('A' for Active; 'I' for Inactive)
REMARK    1  A    between atoms: C_1  and  O_2
REMARK    2  A    between atoms: O_2  and  C_3
REMARK    3  A    between atoms: C_5  and  C_6
REMARK    4  A    between atoms: C_6  and  C_7
REMARK    5  A    between atoms: C_7  and  O_8
REMARK    6  A    between atoms: C_10  and  C_11
REMARK    7  A    between atoms: C_13  and  C_14
REMARK    8  A    between atoms: C_14  and  C_15
REMARK    9  A    between atoms: C_15  and  O_16
REMARK   10  A    between atoms: C_18  and  O_19
REMARK   11  A    between atoms: C_20  and  O_21
REMARK   12  A    between atoms: C_22  and  O_23
REMARK                            x       y       z     vdW  Elec       q    Type
REMARK                         _______ _______ _______ _____ _____    ______ ____
ROOT
ATOM      1  C   UNL     1       2.261   6.854  19.667  0.00  0.00    +0.000 A 
ATOM      2  C   UNL     1       1.551   5.783  20.220  0.00  0.00    +0.000 A 
ATOM      3  C   UNL     1       1.901   4.461  19.939  0.00  0.00    +0.000 A 
ATOM      4  C   UNL     1       3.009   4.218  19.116  0.00  0.00    +0.000 A 
ATOM      5  C   UNL     1       3.732   5.256  18.495  0.00  0.00    +0.000 A 
ATOM      6  C   UNL     1       3.316   6.584  18.777  0.00  0.00    +0.000 A 
ENDROOT
BRANCH   5   7
ATOM      7  C   UNL     1       4.865   4.925  17.579  0.00  0.00    +0.000 A 
ATOM      8  C   UNL     1       4.654   4.802  16.184  0.00  0.00    +0.000 A 
ATOM      9  C   UNL     1       5.660   4.355  15.308  0.00  0.00    +0.000 A 
ATOM     10  C   UNL     1       6.951   4.141  15.795  0.00  0.00    +0.000 A 
ATOM     11  C   UNL     1       7.202   4.331  17.144  0.00  0.00    +0.000 A 
ATOM     12  C   UNL     1       6.175   4.687  18.026  0.00  0.00    +0.000 A 
BRANCH  11  13
ATOM     13  O   UNL     1       8.454   4.152  17.674  0.00  0.00    +0.000 OA
ATOM     14  H   UNL     1       8.362   3.987  18.628  0.00  0.00    +0.000 HD
ENDBRANCH  11  13
BRANCH  12  15
ATOM     15  O   UNL     1       6.505   4.770  19.356  0.00  0.00    +0.000 OA
ATOM     16  H   UNL     1       7.414   5.131  19.371  0.00  0.00    +0.000 HD
ENDBRANCH  12  15
BRANCH   9  17
ATOM     17  C   UNL     1       5.332   4.072  13.858  0.00  0.00    +0.000 C 
BRANCH  17  18
ATOM     18  C   UNL     1       6.547   3.650  13.036  0.00  0.00    +0.000 C 
BRANCH  18  19
ATOM     19  O   UNL     1       6.172   2.740  12.009  0.00  0.00    +0.000 OA
ATOM     20  H   UNL     1       6.714   2.957  11.230  0.00  0.00    +0.000 HD
ENDBRANCH  18  19
ENDBRANCH  17  18
ENDBRANCH   9  17
ENDBRANCH   5   7
BRANCH   1  22
ATOM     21  C   UNL     1       1.222   8.195  21.368  0.00  0.00    +0.000 C 
ATOM     22  O   UNL     1       1.773   8.073  20.062  0.00  0.00    +0.000 OA
ENDBRANCH   1  22
BRANCH   6  23
ATOM     23  O   UNL     1       3.917   7.637  18.129  0.00  0.00    +0.000 OA
ATOM     24  H   UNL     1       4.855   7.639  18.390  0.00  0.00    +0.000 HD
ENDBRANCH   6  23
BRANCH   3  25
ATOM     25  C   UNL     1       1.087   3.303  20.470  0.00  0.00    +0.000 C 
BRANCH  25  26
ATOM     26  C   UNL     1       1.492   2.885  21.888  0.00  0.00    +0.000 C 
BRANCH  26  27
ATOM     27  O   UNL     1       2.823   2.388  21.937  0.00  0.00    +0.000 OA
ATOM     28  H   UNL     1       3.422   3.148  21.814  0.00  0.00    +0.000 HD
ENDBRANCH  26  27
ENDBRANCH  25  26
ENDBRANCH   3  25
TORSDOF 11
ENDMDL
MODEL 5
REMARK VINA RESULT:      -7.1      1.500      1.614
REMARK  Name = 
REMARK  12 active torsions:
REMARK  status: ('A' for Active; 'I' for Inactive)
REMARK    1  A    between atoms: C_1  and  O_2
REMARK    2  A    between atoms: O_2  and  C_3
REMARK    3  A    between atoms: C_5  and  C_6
REMARK    4  A    between atoms: C_6  and  C_7
REMARK    5  A    between atoms: C_7  and  O_8
REMARK    6  A    between atoms: C_10  and  C_11
REMARK    7  A    between atoms: C_13  and  C_14
REMARK    8  A    between atoms: C_14  and  C_15
REMARK    9  A    between atoms: C_15  and  O_16
REMARK   10  A    between atoms: C_18  and  O_19
REMARK   11  A    between atoms: C_20  and  O_21
REMARK   12  A    between atoms: C_22  and  O_23
REMARK                            x       y       z     vdW  Elec       q    Type
REMARK                         _______ _______ _______ _____ _____    ______ ____
ROOT
ATOM      1  C   UNL     1       3.897   5.701  18.114  0.00  0.00    +0.000 A 
ATOM      2  C   UNL     1       3.511   4.464  18.644  0.00  0.00    +0.000 A 
ATOM      3  C   UNL     1       3.812   3.271  17.986  0.00  0.00    +0.000 A 
ATOM      4  C   UNL     1       4.547   3.324  16.795  0.00  0.00    +0.000 A 
ATOM      5  C   UNL     1       4.923   4.542  16.192  0.00  0.00    +0.000 A 
ATOM      6  C   UNL     1       4.561   5.732  16.875  0.00  0.00    +0.000 A 
ENDROOT
BRANCH   5   7
ATOM      7  C   UNL     1       5.652   4.528  14.888  0.00  0.00    +0.000 A 
ATOM      8  C   UNL     1       5.104   3.872  13.760  0.00  0.00    +0.000 A 
ATOM      9  C   UNL     1       5.819   3.717  12.559  0.00  0.00    +0.000 A 
ATOM     10  C   UNL     1       7.065   4.332  12.415  0.00  0.00    +0.000 A 
ATOM     11  C   UNL     1       7.589   5.047  13.479  0.00  0.00    +0.000 A 
ATOM     12  C   UNL     1       6.912   5.121  14.703  0.00  0.00    +0.000 A 
BRANCH  11  13
ATOM     13  O   UNL     1       8.799   5.686  13.390  0.00  0.00    +0.000 OA
ATOM     14  H   UNL     1       9.305   5.285  12.663  0.00  0.00    +0.000 HD
ENDBRANCH  11  13
BRANCH  12  15
ATOM     15  O   UNL     1       7.551   5.781  15.722  0.00  0.00    +0.000 OA
ATOM     16  H   UNL     1       8.459   5.417  15.732  0.00  0.00    +0.000 HD
ENDBRANCH  12  15
BRANCH   9  17
ATOM     17  C   UNL     1       5.258   2.856  11.448  0.00  0.00    +0.000 C 
BRANCH  17  18
ATOM     18  C   UNL     1       3.756   3.036  11.243  0.00  0.00    +0.000 C 
BRANCH  18  19
ATOM     19  O   UNL     1       3.495   3.854  10.109  0.00  0.00    +0.000 OA
ATOM     20  H   UNL     1       3.023   4.641  10.434  0.00  0.00    +0.000 HD
ENDBRANCH  18  19
ENDBRANCH  17  18
ENDBRANCH   9  17
ENDBRANCH   5   7
BRANCH   1  22
ATOM     21  C   UNL     1       2.335   6.632  19.683  0.00  0.00    +0.000 C 
ATOM     22  O   UNL     1       3.517   6.757  18.903  0.00  0.00    +0.000 OA
ENDBRANCH   1  22
BRANCH   6  23
ATOM     23  O   UNL     1       4.813   6.953  16.294  0.00  0.00    +0.000 OA
ATOM     24  H   UNL     1       4.629   7.635  16.963  0.00  0.00    +0.000 HD
ENDBRANCH   6  23
BRANCH   3  25
ATOM     25  C   UNL     1       3.325   1.940  18.514  0.00  0.00    +0.000 C 
BRANCH  25  26
ATOM     26  C   UNL     1       1.973   2.035  19.229  0.00  0.00    +0.000 C 
BRANCH  26  27
ATOM     27  O   UNL     1       0.885   1.800  18.344  0.00  0.00    +0.000 OA
ATOM     28  H   UNL     1       1.257   1.450  17.513  0.00  0.00    +0.000 HD
ENDBRANCH  26  27
ENDBRANCH  25  26
ENDBRANCH   3  25
TORSDOF 11
ENDMDL
MODEL 6
REMARK VINA RESULT:      -7.0      2.144      3.295
REMARK  Name = 
REMARK  12 active torsions:
REMARK  status: ('A' for Active; 'I' for Inactive)
REMARK    1  A    between atoms: C_1  and  O_2
REMARK    2  A    between atoms: O_2  and  C_3
REMARK    3  A    between atoms: C_5  and  C_6
REMARK    4  A    between atoms: C_6  and  C_7
REMARK    5  A    between atoms: C_7  and  O_8
REMARK    6  A    between atoms: C_10  and  C_11
REMARK    7  A    between atoms: C_13  and  C_14
REMARK    8  A    between atoms: C_14  and  C_15
REMARK    9  A    between atoms: C_15  and  O_16
REMARK   10  A    between atoms: C_18  and  O_19
REMARK   11  A    between atoms: C_20  and  O_21
REMARK   12  A    between atoms: C_22  and  O_23
REMARK                            x       y       z     vdW  Elec       q    Type
REMARK                         _______ _______ _______ _____ _____    ______ ____
ROOT
ATOM      1  C   UNL     1       2.238   6.995  19.608  0.00  0.00    +0.000 A 
ATOM      2  C   UNL     1       1.557   5.927  20.202  0.00  0.00    +0.000 A 
ATOM      3  C   UNL     1       1.937   4.605  19.963  0.00  0.00    +0.000 A 
ATOM      4  C   UNL     1       3.044   4.360  19.140  0.00  0.00    +0.000 A 
ATOM      5  C   UNL     1       3.739   5.394  18.480  0.00  0.00    +0.000 A 
ATOM      6  C   UNL     1       3.293   6.720  18.720  0.00  0.00    +0.000 A 
ENDROOT
BRANCH   5   7
ATOM      7  C   UNL     1       4.874   5.059  17.567  0.00  0.00    +0.000 A 
ATOM      8  C   UNL     1       4.689   5.035  16.163  0.00  0.00    +0.000 A 
ATOM      9  C   UNL     1       5.690   4.590  15.281  0.00  0.00    +0.000 A 
ATOM     10  C   UNL     1       6.956   4.274  15.779  0.00  0.00    +0.000 A 
ATOM     11  C   UNL     1       7.185   4.365  17.142  0.00  0.00    +0.000 A 
ATOM     12  C   UNL     1       6.158   4.721  18.025  0.00  0.00    +0.000 A 
BRANCH  11  13
ATOM     13  O   UNL     1       8.412   4.085  17.686  0.00  0.00    +0.000 OA
ATOM     14  H   UNL     1       8.864   4.925  17.875  0.00  0.00    +0.000 HD
ENDBRANCH  11  13
BRANCH  12  15
ATOM     15  O   UNL     1       6.460   4.702  19.363  0.00  0.00    +0.000 OA
ATOM     16  H   UNL     1       5.598   4.772  19.820  0.00  0.00    +0.000 HD
ENDBRANCH  12  15
BRANCH   9  17
ATOM     17  C   UNL     1       5.382   4.417  13.810  0.00  0.00    +0.000 C 
BRANCH  17  18
ATOM     18  C   UNL     1       6.380   3.517  13.085  0.00  0.00    +0.000 C 
BRANCH  18  19
ATOM     19  O   UNL     1       7.119   4.255  12.120  0.00  0.00    +0.000 OA
ATOM     20  H   UNL     1       7.936   4.552  12.559  0.00  0.00    +0.000 HD
ENDBRANCH  18  19
ENDBRANCH  17  18
ENDBRANCH   9  17
ENDBRANCH   5   7
BRANCH   1  22
ATOM     21  C   UNL     1       1.152   8.360  21.259  0.00  0.00    +0.000 C 
ATOM     22  O   UNL     1       1.723   8.215  19.965  0.00  0.00    +0.000 OA
ENDBRANCH   1  22
BRANCH   6  23
ATOM     23  O   UNL     1       3.865   7.765  18.033  0.00  0.00    +0.000 OA
ATOM     24  H   UNL     1       3.998   8.490  18.669  0.00  0.00    +0.000 HD
ENDBRANCH   6  23
BRANCH   3  25
ATOM     25  C   UNL     1       1.154   3.447  20.538  0.00  0.00    +0.000 C 
BRANCH  25  26
ATOM     26  C   UNL     1       1.215   2.189  19.665  0.00  0.00    +0.000 C 
BRANCH  26  27
ATOM     27  O   UNL     1       0.262   2.225  18.610  0.00  0.00    +0.000 OA
ATOM     28  H   UNL     1      -0.318   1.448  18.715  0.00  0.00    +0.000 HD
ENDBRANCH  26  27
ENDBRANCH  25  26
ENDBRANCH   3  25
TORSDOF 11
ENDMDL
MODEL 7
REMARK VINA RESULT:      -6.8      1.350      3.155
REMARK  Name = 
REMARK  12 active torsions:
REMARK  status: ('A' for Active; 'I' for Inactive)
REMARK    1  A    between atoms: C_1  and  O_2
REMARK    2  A    between atoms: O_2  and  C_3
REMARK    3  A    between atoms: C_5  and  C_6
REMARK    4  A    between atoms: C_6  and  C_7
REMARK    5  A    between atoms: C_7  and  O_8
REMARK    6  A    between atoms: C_10  and  C_11
REMARK    7  A    between atoms: C_13  and  C_14
REMARK    8  A    between atoms: C_14  and  C_15
REMARK    9  A    between atoms: C_15  and  O_16
REMARK   10  A    between atoms: C_18  and  O_19
REMARK   11  A    between atoms: C_20  and  O_21
REMARK   12  A    between atoms: C_22  and  O_23
REMARK                            x       y       z     vdW  Elec       q    Type
REMARK                         _______ _______ _______ _____ _____    ______ ____
ROOT
ATOM      1  C   UNL     1       3.786   4.099  18.249  0.00  0.00    +0.000 A 
ATOM      2  C   UNL     1       3.409   5.406  18.577  0.00  0.00    +0.000 A 
ATOM      3  C   UNL     1       3.742   6.482  17.753  0.00  0.00    +0.000 A 
ATOM      4  C   UNL     1       4.434   6.230  16.561  0.00  0.00    +0.000 A 
ATOM      5  C   UNL     1       4.879   4.941  16.203  0.00  0.00    +0.000 A 
ATOM      6  C   UNL     1       4.553   3.882  17.091  0.00  0.00    +0.000 A 
ENDROOT
BRANCH   5   7
ATOM      7  C   UNL     1       5.667   4.751  14.948  0.00  0.00    +0.000 A 
ATOM      8  C   UNL     1       5.160   3.956  13.891  0.00  0.00    +0.000 A 
ATOM      9  C   UNL     1       5.927   3.639  12.755  0.00  0.00    +0.000 A 
ATOM     10  C   UNL     1       7.186   4.220  12.590  0.00  0.00    +0.000 A 
ATOM     11  C   UNL     1       7.671   5.065  13.574  0.00  0.00    +0.000 A 
ATOM     12  C   UNL     1       6.942   5.304  14.745  0.00  0.00    +0.000 A 
BRANCH  11  13
ATOM     13  O   UNL     1       8.892   5.678  13.457  0.00  0.00    +0.000 OA
ATOM     14  H   UNL     1       9.110   6.094  14.309  0.00  0.00    +0.000 HD
ENDBRANCH  11  13
BRANCH  12  15
ATOM     15  O   UNL     1       7.543   6.088  15.697  0.00  0.00    +0.000 OA
ATOM     16  H   UNL     1       8.387   6.375  15.295  0.00  0.00    +0.000 HD
ENDBRANCH  12  15
BRANCH   9  17
ATOM     17  C   UNL     1       5.405   2.643  11.742  0.00  0.00    +0.000 C 
BRANCH  17  18
ATOM     18  C   UNL     1       6.482   1.700  11.212  0.00  0.00    +0.000 C 
BRANCH  18  19
ATOM     19  O   UNL     1       6.117   0.343  11.430  0.00  0.00    +0.000 OA
ATOM     20  H   UNL     1       5.232   0.352  11.836  0.00  0.00    +0.000 HD
ENDBRANCH  18  19
ENDBRANCH  17  18
ENDBRANCH   9  17
ENDBRANCH   5   7
BRANCH   1  22
ATOM     21  C   UNL     1       2.062   3.314  19.726  0.00  0.00    +0.000 C 
ATOM     22  O   UNL     1       3.366   3.179  19.176  0.00  0.00    +0.000 OA
ENDBRANCH   1  22
BRANCH   6  23
ATOM     23  O   UNL     1       5.039   2.618  16.850  0.00  0.00    +0.000 OA
ATOM     24  H   UNL     1       5.405   2.617  15.948  0.00  0.00    +0.000 HD
ENDBRANCH   6  23
BRANCH   3  25
ATOM     25  C   UNL     1       3.407   7.903  18.144  0.00  0.00    +0.000 C 
BRANCH  25  26
ATOM     26  C   UNL     1       1.995   8.325  17.724  0.00  0.00    +0.000 C 
BRANCH  26  27
ATOM     27  O   UNL     1       1.935   9.698  17.357  0.00  0.00    +0.000 OA
ATOM     28  H   UNL     1       1.170  10.089  17.818  0.00  0.00    +0.000 HD
ENDBRANCH  26  27
ENDBRANCH  25  26
ENDBRANCH   3  25
TORSDOF 11
ENDMDL
MODEL 8
REMARK VINA RESULT:      -6.7      3.403      6.412
REMARK  Name = 
REMARK  12 active torsions:
REMARK  status: ('A' for Active; 'I' for Inactive)
REMARK    1  A    between atoms: C_1  and  O_2
REMARK    2  A    between atoms: O_2  and  C_3
REMARK    3  A    between atoms: C_5  and  C_6
REMARK    4  A    between atoms: C_6  and  C_7
REMARK    5  A    between atoms: C_7  and  O_8
REMARK    6  A    between atoms: C_10  and  C_11
REMARK    7  A    between atoms: C_13  and  C_14
REMARK    8  A    between atoms: C_14  and  C_15
REMARK    9  A    between atoms: C_15  and  O_16
REMARK   10  A    between atoms: C_18  and  O_19
REMARK   11  A    between atoms: C_20  and  O_21
REMARK   12  A    between atoms: C_22  and  O_23
REMARK                            x       y       z     vdW  Elec       q    Type
REMARK                         _______ _______ _______ _____ _____    ______ ____
ROOT
ATOM      1  C   UNL     1       1.452   7.941  20.748  0.00  0.00    +0.000 A 
ATOM      2  C   UNL     1       1.335   9.071  19.932  0.00  0.00    +0.000 A 
ATOM      3  C   UNL     1       1.760   9.050  18.603  0.00  0.00    +0.000 A 
ATOM      4  C   UNL     1       2.277   7.858  18.079  0.00  0.00    +0.000 A 
ATOM      5  C   UNL     1       2.461   6.703  18.866  0.00  0.00    +0.000 A 
ATOM      6  C   UNL     1       2.052   6.782  20.223  0.00  0.00    +0.000 A 
ENDROOT
BRANCH   5   7
ATOM      7  C   UNL     1       3.075   5.484  18.260  0.00  0.00    +0.000 A 
ATOM      8  C   UNL     1       4.354   5.544  17.654  0.00  0.00    +0.000 A 
ATOM      9  C   UNL     1       4.905   4.457  16.952  0.00  0.00    +0.000 A 
ATOM     10  C   UNL     1       4.237   3.231  16.947  0.00  0.00    +0.000 A 
ATOM     11  C   UNL     1       3.020   3.125  17.599  0.00  0.00    +0.000 A 
ATOM     12  C   UNL     1       2.433   4.235  18.219  0.00  0.00    +0.000 A 
BRANCH  11  13
ATOM     13  O   UNL     1       2.328   1.942  17.642  0.00  0.00    +0.000 OA
ATOM     14  H   UNL     1       2.710   1.387  18.343  0.00  0.00    +0.000 HD
ENDBRANCH  11  13
BRANCH  12  15
ATOM     15  O   UNL     1       1.189   4.050  18.766  0.00  0.00    +0.000 OA
ATOM     16  H   UNL     1       1.267   4.367  19.689  0.00  0.00    +0.000 HD
ENDBRANCH  12  15
BRANCH   9  17
ATOM     17  C   UNL     1       6.192   4.631  16.175  0.00  0.00    +0.000 C 
BRANCH  17  18
ATOM     18  C   UNL     1       7.361   5.098  17.039  0.00  0.00    +0.000 C 
BRANCH  18  19
ATOM     19  O   UNL     1       7.858   4.032  17.837  0.00  0.00    +0.000 OA
ATOM     20  H   UNL     1       7.502   4.163  18.734  0.00  0.00    +0.000 HD
ENDBRANCH  18  19
ENDBRANCH  17  18
ENDBRANCH   9  17
ENDBRANCH   5   7
BRANCH   1  22
ATOM     21  C   UNL     1       0.064   9.220  22.233  0.00  0.00    +0.000 C 
ATOM     22  O   UNL     1       0.978   8.152  22.018  0.00  0.00    +0.000 OA
ENDBRANCH   1  22
BRANCH   6  23
ATOM     23  O   UNL     1       2.291   5.724  21.068  0.00  0.00    +0.000 OA
ATOM     24  H   UNL     1       1.894   4.934  20.661  0.00  0.00    +0.000 HD
ENDBRANCH   6  23
BRANCH   3  25
ATOM     25  C   UNL     1       1.709  10.293  17.743  0.00  0.00    +0.000 C 
BRANCH  25  26
ATOM     26  C   UNL     1       1.742  11.590  18.559  0.00  0.00    +0.000 C 
BRANCH  26  27
ATOM     27  O   UNL     1       0.929  12.604  17.981  0.00  0.00    +0.000 OA
ATOM     28  H   UNL     1       0.440  12.197  17.241  0.00  0.00    +0.000 HD
ENDBRANCH  26  27
ENDBRANCH  25  26
ENDBRANCH   3  25
TORSDOF 11
ENDMDL
MODEL 9
REMARK VINA RESULT:      -6.6      3.420      7.855
REMARK  Name = 
REMARK  12 active torsions:
REMARK  status: ('A' for Active; 'I' for Inactive)
REMARK    1  A    between atoms: C_1  and  O_2
REMARK    2  A    between atoms: O_2  and  C_3
REMARK    3  A    between atoms: C_5  and  C_6
REMARK    4  A    between atoms: C_6  and  C_7
REMARK    5  A    between atoms: C_7  and  O_8
REMARK    6  A    between atoms: C_10  and  C_11
REMARK    7  A    between atoms: C_13  and  C_14
REMARK    8  A    between atoms: C_14  and  C_15
REMARK    9  A    between atoms: C_15  and  O_16
REMARK   10  A    between atoms: C_18  and  O_19
REMARK   11  A    between atoms: C_20  and  O_21
REMARK   12  A    between atoms: C_22  and  O_23
REMARK                            x       y       z     vdW  Elec       q    Type
REMARK                         _______ _______ _______ _____ _____    ______ ____
ROOT
ATOM      1  C   UNL     1       3.531   3.732  17.534  0.00  0.00    +0.000 A 
ATOM      2  C   UNL     1       4.824   4.025  17.086  0.00  0.00    +0.000 A 
ATOM      3  C   UNL     1       5.352   5.312  17.196  0.00  0.00    +0.000 A 
ATOM      4  C   UNL     1       4.576   6.310  17.799  0.00  0.00    +0.000 A 
ATOM      5  C   UNL     1       3.251   6.084  18.226  0.00  0.00    +0.000 A 
ATOM      6  C   UNL     1       2.741   4.770  18.059  0.00  0.00    +0.000 A 
ENDROOT
BRANCH   5   7
ATOM      7  C   UNL     1       2.457   7.209  18.806  0.00  0.00    +0.000 A 
ATOM      8  C   UNL     1       2.156   8.356  18.032  0.00  0.00    +0.000 A 
ATOM      9  C   UNL     1       1.535   9.492  18.580  0.00  0.00    +0.000 A 
ATOM     10  C   UNL     1       1.081   9.458  19.901  0.00  0.00    +0.000 A 
ATOM     11  C   UNL     1       1.294   8.317  20.657  0.00  0.00    +0.000 A 
ATOM     12  C   UNL     1       1.994   7.224  20.132  0.00  0.00    +0.000 A 
BRANCH  11  13
ATOM     13  O   UNL     1       0.856   8.221  21.952  0.00  0.00    +0.000 OA
ATOM     14  H   UNL     1       0.448   7.347  22.074  0.00  0.00    +0.000 HD
ENDBRANCH  11  13
BRANCH  12  15
ATOM     15  O   UNL     1       2.227   6.174  20.985  0.00  0.00    +0.000 OA
ATOM     16  H   UNL     1       1.680   6.361  21.774  0.00  0.00    +0.000 HD
ENDBRANCH  12  15
BRANCH   9  17
ATOM     17  C   UNL     1       1.397  10.753  17.756  0.00  0.00    +0.000 C 
BRANCH  17  18
ATOM     18  C   UNL     1       2.066  11.969  18.395  0.00  0.00    +0.000 C 
BRANCH  18  19
ATOM     19  O   UNL     1       2.548  12.863  17.400  0.00  0.00    +0.000 OA
ATOM     20  H   UNL     1       1.855  12.923  16.718  0.00  0.00    +0.000 HD
ENDBRANCH  18  19
ENDBRANCH  17  18
ENDBRANCH   9  17
ENDBRANCH   5   7
BRANCH   1  22
ATOM     21  C   UNL     1       3.498   1.482  18.373  0.00  0.00    +0.000 C 
ATOM     22  O   UNL     1       3.191   2.416  17.347  0.00  0.00    +0.000 OA
ENDBRANCH   1  22
BRANCH   6  23
ATOM     23  O   UNL     1       1.427   4.507  18.366  0.00  0.00    +0.000 OA
ATOM     24  H   UNL     1       0.922   4.554  17.535  0.00  0.00    +0.000 HD
ENDBRANCH   6  23
BRANCH   3  25
ATOM     25  C   UNL     1       6.716   5.651  16.640  0.00  0.00    +0.000 C 
BRANCH  25  26
ATOM     26  C   UNL     1       7.522   6.581  17.554  0.00  0.00    +0.000 C 
BRANCH  26  27
ATOM     27  O   UNL     1       7.642   7.890  17.009  0.00  0.00    +0.000 OA
ATOM     28  H   UNL     1       8.355   8.343  17.496  0.00  0.00    +0.000 HD
ENDBRANCH  26  27
ENDBRANCH  25  26
ENDBRANCH   3  25
TORSDOF 11
ENDMDL
