MODEL 1
REMARK VINA RESULT:      -8.1      0.000      0.000
REMARK  Name = 
REMARK  3 active torsions:
REMARK  status: ('A' for Active; 'I' for Inactive)
REMARK    1  A    between atoms: C_5  and  C_6
REMARK    2  A    between atoms: C_6  and  N_7
REMARK    3  A    between atoms: N_7  and  C_8
REMARK                            x       y       z     vdW  Elec       q    Type
REMARK                         _______ _______ _______ _____ _____    ______ ____
ROOT
ATOM      1  O   UNL     1       7.293   5.561  19.748  0.00  0.00    +0.000 OA
ATOM      2  S   UNL     1       6.124   4.887  19.229  0.00  0.00    +0.000 S 
ATOM      3  O   UNL     1       5.778   3.523  19.572  0.00  0.00    +0.000 OA
ATOM      4  C   UNL     1       4.691   5.934  19.430  0.00  0.00    +0.000 C 
ATOM      5  C   UNL     1       4.199   6.362  18.025  0.00  0.00    +0.000 C 
ATOM      6  C   UNL     1       5.130   5.771  16.989  0.00  0.00    +0.000 A 
ATOM      7  C   UNL     1       5.041   5.945  15.613  0.00  0.00    +0.000 A 
ATOM      8  C   UNL     1       5.976   5.316  14.779  0.00  0.00    +0.000 A 
ATOM      9  C   UNL     1       7.006   4.530  15.317  0.00  0.00    +0.000 A 
ATOM     10  C   UNL     1       7.116   4.367  16.694  0.00  0.00    +0.000 A 
ATOM     11  C   UNL     1       6.170   4.993  17.491  0.00  0.00    +0.000 A 
ENDROOT
BRANCH   5  12
ATOM     12  C   UNL     1       2.729   5.950  17.797  0.00  0.00    +0.000 C 
BRANCH  12  13
ATOM     13  N   UNL     1       2.544   4.531  18.121  0.00  0.00    +0.000 NA
ATOM     14  H   UNL     1       3.279   4.241  18.773  0.00  0.00    +0.000 HD
BRANCH  13  15
ATOM     15  C   UNL     1       1.240   4.205  18.722  0.00  0.00    +0.000 C 
ATOM     16  C   UNL     1       1.203   4.863  20.118  0.00  0.00    +0.000 C 
ATOM     17  C   UNL     1       2.223   4.237  21.075  0.00  0.00    +0.000 C 
ATOM     18  C   UNL     1       2.028   2.733  21.169  0.00  0.00    +0.000 C 
ATOM     19  F   UNL     1       0.853   2.488  21.810  0.00  0.00    +0.000 F 
ATOM     20  F   UNL     1       3.004   2.196  21.943  0.00  0.00    +0.000 F 
ATOM     21  C   UNL     1       2.003   2.034  19.821  0.00  0.00    +0.000 C 
ATOM     22  C   UNL     1       0.996   2.692  18.877  0.00  0.00    +0.000 C 
ENDBRANCH  13  15
ENDBRANCH  12  13
ENDBRANCH   5  12
TORSDOF 3
ENDMDL
MODEL 2
REMARK VINA RESULT:      -7.8      1.943      2.681
REMARK  Name = 
REMARK  3 active torsions:
REMARK  status: ('A' for Active; 'I' for Inactive)
REMARK    1  A    between atoms: C_5  and  C_6
REMARK    2  A    between atoms: C_6  and  N_7
REMARK    3  A    between atoms: N_7  and  C_8
REMARK                            x       y       z     vdW  Elec       q    Type
REMARK                         _______ _______ _______ _____ _____    ______ ____
ROOT
ATOM      1  O   UNL     1       7.554   6.797  16.560  0.00  0.00    +0.000 OA
ATOM      2  S   UNL     1       7.240   5.393  16.708  0.00  0.00    +0.000 S 
ATOM      3  O   UNL     1       8.165   4.428  17.266  0.00  0.00    +0.000 OA
ATOM      4  C   UNL     1       5.646   5.217  17.494  0.00  0.00    +0.000 C 
ATOM      5  C   UNL     1       4.660   4.606  16.467  0.00  0.00    +0.000 C 
ATOM      6  C   UNL     1       5.391   4.413  15.156  0.00  0.00    +0.000 A 
ATOM      7  C   UNL     1       4.845   3.912  13.979  0.00  0.00    +0.000 A 
ATOM      8  C   UNL     1       5.660   3.780  12.847  0.00  0.00    +0.000 A 
ATOM      9  C   UNL     1       7.010   4.161  12.882  0.00  0.00    +0.000 A 
ATOM     10  C   UNL     1       7.559   4.683  14.048  0.00  0.00    +0.000 A 
ATOM     11  C   UNL     1       6.731   4.791  15.154  0.00  0.00    +0.000 A 
ENDROOT
BRANCH   5  12
ATOM     12  C   UNL     1       4.045   3.291  16.995  0.00  0.00    +0.000 C 
BRANCH  12  13
ATOM     13  N   UNL     1       4.288   3.160  18.435  0.00  0.00    +0.000 NA
ATOM     14  H   UNL     1       4.118   4.064  18.885  0.00  0.00    +0.000 HD
BRANCH  13  15
ATOM     15  C   UNL     1       3.457   2.147  19.106  0.00  0.00    +0.000 C 
ATOM     16  C   UNL     1       2.037   2.252  18.508  0.00  0.00    +0.000 C 
ATOM     17  C   UNL     1       1.363   3.582  18.860  0.00  0.00    +0.000 C 
ATOM     18  C   UNL     1       1.346   3.802  20.364  0.00  0.00    +0.000 C 
ATOM     19  F   UNL     1       0.495   2.899  20.923  0.00  0.00    +0.000 F 
ATOM     20  F   UNL     1       0.835   5.028  20.637  0.00  0.00    +0.000 F 
ATOM     21  C   UNL     1       2.709   3.660  21.018  0.00  0.00    +0.000 C 
ATOM     22  C   UNL     1       3.371   2.336  20.633  0.00  0.00    +0.000 C 
ENDBRANCH  13  15
ENDBRANCH  12  13
ENDBRANCH   5  12
TORSDOF 3
ENDMDL
MODEL 3
REMARK VINA RESULT:      -7.8      3.356      5.784
REMARK  Name = 
REMARK  3 active torsions:
REMARK  status: ('A' for Active; 'I' for Inactive)
REMARK    1  A    between atoms: C_5  and  C_6
REMARK    2  A    between atoms: C_6  and  N_7
REMARK    3  A    between atoms: N_7  and  C_8
REMARK                            x       y       z     vdW  Elec       q    Type
REMARK                         _______ _______ _______ _____ _____    ______ ____
ROOT
ATOM      1  O   UNL     1       1.244   2.255  20.053  0.00  0.00    +0.000 OA
ATOM      2  S   UNL     1       2.570   2.690  19.675  0.00  0.00    +0.000 S 
ATOM      3  O   UNL     1       3.754   2.395  20.455  0.00  0.00    +0.000 OA
ATOM      4  C   UNL     1       2.867   2.281  17.961  0.00  0.00    +0.000 C 
ATOM      5  C   UNL     1       2.970   3.601  17.156  0.00  0.00    +0.000 C 
ATOM      6  C   UNL     1       2.744   4.760  18.103  0.00  0.00    +0.000 A 
ATOM      7  C   UNL     1       2.733   6.108  17.761  0.00  0.00    +0.000 A 
ATOM      8  C   UNL     1       2.524   7.068  18.760  0.00  0.00    +0.000 A 
ATOM      9  C   UNL     1       2.311   6.686  20.093  0.00  0.00    +0.000 A 
ATOM     10  C   UNL     1       2.300   5.339  20.441  0.00  0.00    +0.000 A 
ATOM     11  C   UNL     1       2.520   4.415  19.433  0.00  0.00    +0.000 A 
ENDROOT
BRANCH   5  12
ATOM     12  C   UNL     1       4.321   3.702  16.416  0.00  0.00    +0.000 C 
BRANCH  12  13
ATOM     13  N   UNL     1       5.421   3.799  17.381  0.00  0.00    +0.000 NA
ATOM     14  H   UNL     1       5.539   2.893  17.844  0.00  0.00    +0.000 HD
BRANCH  13  15
ATOM     15  C   UNL     1       6.715   4.188  16.797  0.00  0.00    +0.000 C 
ATOM     16  C   UNL     1       7.577   4.766  17.940  0.00  0.00    +0.000 C 
ATOM     17  C   UNL     1       7.003   6.077  18.486  0.00  0.00    +0.000 C 
ATOM     18  C   UNL     1       6.813   7.093  17.371  0.00  0.00    +0.000 C 
ATOM     19  F   UNL     1       8.039   7.485  16.930  0.00  0.00    +0.000 F 
ATOM     20  F   UNL     1       6.213   8.204  17.867  0.00  0.00    +0.000 F 
ATOM     21  C   UNL     1       6.016   6.564  16.192  0.00  0.00    +0.000 C 
ATOM     22  C   UNL     1       6.593   5.244  15.681  0.00  0.00    +0.000 C 
ENDBRANCH  13  15
ENDBRANCH  12  13
ENDBRANCH   5  12
TORSDOF 3
ENDMDL
MODEL 4
REMARK VINA RESULT:      -7.8      2.449      3.329
REMARK  Name = 
REMARK  3 active torsions:
REMARK  status: ('A' for Active; 'I' for Inactive)
REMARK    1  A    between atoms: C_5  and  C_6
REMARK    2  A    between atoms: C_6  and  N_7
REMARK    3  A    between atoms: N_7  and  C_8
REMARK                            x       y       z     vdW  Elec       q    Type
REMARK                         _______ _______ _______ _____ _____    ______ ____
ROOT
ATOM      1  O   UNL     1       7.138   5.305  14.374  0.00  0.00    +0.000 OA
ATOM      2  S   UNL     1       6.046   5.725  15.224  0.00  0.00    +0.000 S 
ATOM      3  O   UNL     1       5.257   6.914  14.973  0.00  0.00    +0.000 OA
ATOM      4  C   UNL     1       4.959   4.341  15.530  0.00  0.00    +0.000 C 
ATOM      5  C   UNL     1       5.055   3.969  17.030  0.00  0.00    +0.000 C 
ATOM      6  C   UNL     1       6.061   4.886  17.690  0.00  0.00    +0.000 A 
ATOM      7  C   UNL     1       6.448   4.854  19.025  0.00  0.00    +0.000 A 
ATOM      8  C   UNL     1       7.386   5.785  19.491  0.00  0.00    +0.000 A 
ATOM      9  C   UNL     1       7.951   6.734  18.625  0.00  0.00    +0.000 A 
ATOM     10  C   UNL     1       7.586   6.760  17.283  0.00  0.00    +0.000 A 
ATOM     11  C   UNL     1       6.648   5.834  16.855  0.00  0.00    +0.000 A 
ENDROOT
BRANCH   5  12
ATOM     12  C   UNL     1       3.670   4.030  17.712  0.00  0.00    +0.000 C 
BRANCH  12  13
ATOM     13  N   UNL     1       2.980   2.744  17.574  0.00  0.00    +0.000 NA
ATOM     14  H   UNL     1       3.462   2.182  16.867  0.00  0.00    +0.000 HD
BRANCH  13  15
ATOM     15  C   UNL     1       2.900   1.955  18.814  0.00  0.00    +0.000 C 
ATOM     16  C   UNL     1       1.406   1.670  19.080  0.00  0.00    +0.000 C 
ATOM     17  C   UNL     1       0.626   2.950  19.398  0.00  0.00    +0.000 C 
ATOM     18  C   UNL     1       1.259   3.697  20.560  0.00  0.00    +0.000 C 
ATOM     19  F   UNL     1       1.079   2.967  21.694  0.00  0.00    +0.000 F 
ATOM     20  F   UNL     1       0.607   4.871  20.754  0.00  0.00    +0.000 F 
ATOM     21  C   UNL     1       2.744   3.961  20.381  0.00  0.00    +0.000 C 
ATOM     22  C   UNL     1       3.496   2.675  20.039  0.00  0.00    +0.000 C 
ENDBRANCH  13  15
ENDBRANCH  12  13
ENDBRANCH   5  12
TORSDOF 3
ENDMDL
MODEL 5
REMARK VINA RESULT:      -7.8      1.412      1.747
REMARK  Name = 
REMARK  3 active torsions:
REMARK  status: ('A' for Active; 'I' for Inactive)
REMARK    1  A    between atoms: C_5  and  C_6
REMARK    2  A    between atoms: C_6  and  N_7
REMARK    3  A    between atoms: N_7  and  C_8
REMARK                            x       y       z     vdW  Elec       q    Type
REMARK                         _______ _______ _______ _____ _____    ______ ____
ROOT
ATOM      1  O   UNL     1       7.069   6.895  17.939  0.00  0.00    +0.000 OA
ATOM      2  S   UNL     1       6.736   5.492  17.840  0.00  0.00    +0.000 S 
ATOM      3  O   UNL     1       7.508   4.446  18.481  0.00  0.00    +0.000 OA
ATOM      4  C   UNL     1       5.003   5.262  18.205  0.00  0.00    +0.000 C 
ATOM      5  C   UNL     1       4.289   4.798  16.911  0.00  0.00    +0.000 C 
ATOM      6  C   UNL     1       5.309   4.743  15.794  0.00  0.00    +0.000 A 
ATOM      7  C   UNL     1       5.058   4.397  14.471  0.00  0.00    +0.000 A 
ATOM      8  C   UNL     1       6.117   4.378  13.553  0.00  0.00    +0.000 A 
ATOM      9  C   UNL     1       7.419   4.721  13.948  0.00  0.00    +0.000 A 
ATOM     10  C   UNL     1       7.676   5.089  15.265  0.00  0.00    +0.000 A 
ATOM     11  C   UNL     1       6.610   5.087  16.151  0.00  0.00    +0.000 A 
ENDROOT
BRANCH   5  12
ATOM     12  C   UNL     1       3.573   3.446  17.119  0.00  0.00    +0.000 C 
BRANCH  12  13
ATOM     13  N   UNL     1       2.275   3.655  17.767  0.00  0.00    +0.000 NA
ATOM     14  H   UNL     1       1.595   3.955  17.062  0.00  0.00    +0.000 HD
BRANCH  13  15
ATOM     15  C   UNL     1       1.735   2.469  18.452  0.00  0.00    +0.000 C 
ATOM     16  C   UNL     1       0.530   2.938  19.297  0.00  0.00    +0.000 C 
ATOM     17  C   UNL     1       0.957   3.867  20.437  0.00  0.00    +0.000 C 
ATOM     18  C   UNL     1       2.017   3.211  21.307  0.00  0.00    +0.000 C 
ATOM     19  F   UNL     1       1.443   2.179  21.983  0.00  0.00    +0.000 F 
ATOM     20  F   UNL     1       2.444   4.092  22.245  0.00  0.00    +0.000 F 
ATOM     21  C   UNL     1       3.206   2.680  20.524  0.00  0.00    +0.000 C 
ATOM     22  C   UNL     1       2.753   1.776  19.377  0.00  0.00    +0.000 C 
ENDBRANCH  13  15
ENDBRANCH  12  13
ENDBRANCH   5  12
TORSDOF 3
ENDMDL
MODEL 6
REMARK VINA RESULT:      -7.6      2.236      3.549
REMARK  Name = 
REMARK  3 active torsions:
REMARK  status: ('A' for Active; 'I' for Inactive)
REMARK    1  A    between atoms: C_5  and  C_6
REMARK    2  A    between atoms: C_6  and  N_7
REMARK    3  A    between atoms: N_7  and  C_8
REMARK                            x       y       z     vdW  Elec       q    Type
REMARK                         _______ _______ _______ _____ _____    ______ ____
ROOT
ATOM      1  O   UNL     1       6.805   7.518  16.836  0.00  0.00    +0.000 OA
ATOM      2  S   UNL     1       5.963   6.342  16.821  0.00  0.00    +0.000 S 
ATOM      3  O   UNL     1       5.564   5.668  15.602  0.00  0.00    +0.000 OA
ATOM      4  C   UNL     1       6.591   5.143  17.987  0.00  0.00    +0.000 C 
ATOM      5  C   UNL     1       5.564   4.999  19.138  0.00  0.00    +0.000 C 
ATOM      6  C   UNL     1       4.417   5.952  18.881  0.00  0.00    +0.000 A 
ATOM      7  C   UNL     1       3.308   6.139  19.698  0.00  0.00    +0.000 A 
ATOM      8  C   UNL     1       2.318   7.053  19.312  0.00  0.00    +0.000 A 
ATOM      9  C   UNL     1       2.441   7.791  18.126  0.00  0.00    +0.000 A 
ATOM     10  C   UNL     1       3.558   7.626  17.312  0.00  0.00    +0.000 A 
ATOM     11  C   UNL     1       4.513   6.708  17.715  0.00  0.00    +0.000 A 
ENDROOT
BRANCH   5  12
ATOM     12  C   UNL     1       5.090   3.537  19.286  0.00  0.00    +0.000 C 
BRANCH  12  13
ATOM     13  N   UNL     1       4.347   3.122  18.092  0.00  0.00    +0.000 NA
ATOM     14  H   UNL     1       5.012   2.865  17.358  0.00  0.00    +0.000 HD
BRANCH  13  15
ATOM     15  C   UNL     1       3.434   1.986  18.303  0.00  0.00    +0.000 C 
ATOM     16  C   UNL     1       2.132   2.297  17.534  0.00  0.00    +0.000 C 
ATOM     17  C   UNL     1       1.385   3.494  18.130  0.00  0.00    +0.000 C 
ATOM     18  C   UNL     1       1.112   3.283  19.610  0.00  0.00    +0.000 C 
ATOM     19  F   UNL     1       0.198   2.285  19.743  0.00  0.00    +0.000 F 
ATOM     20  F   UNL     1       0.540   4.397  20.130  0.00  0.00    +0.000 F 
ATOM     21  C   UNL     1       2.350   2.921  20.414  0.00  0.00    +0.000 C 
ATOM     22  C   UNL     1       3.091   1.741  19.785  0.00  0.00    +0.000 C 
ENDBRANCH  13  15
ENDBRANCH  12  13
ENDBRANCH   5  12
TORSDOF 3
ENDMDL
MODEL 7
REMARK VINA RESULT:      -7.6      3.158      5.654
REMARK  Name = 
REMARK  3 active torsions:
REMARK  status: ('A' for Active; 'I' for Inactive)
REMARK    1  A    between atoms: C_5  and  C_6
REMARK    2  A    between atoms: C_6  and  N_7
REMARK    3  A    between atoms: N_7  and  C_8
REMARK                            x       y       z     vdW  Elec       q    Type
REMARK                         _______ _______ _______ _____ _____    ______ ____
ROOT
ATOM      1  O   UNL     1       1.292   2.537  21.339  0.00  0.00    +0.000 OA
ATOM      2  S   UNL     1       2.467   2.841  20.553  0.00  0.00    +0.000 S 
ATOM      3  O   UNL     1       3.818   2.668  21.046  0.00  0.00    +0.000 OA
ATOM      4  C   UNL     1       2.319   2.084  18.941  0.00  0.00    +0.000 C 
ATOM      5  C   UNL     1       2.186   3.210  17.885  0.00  0.00    +0.000 C 
ATOM      6  C   UNL     1       2.191   4.543  18.600  0.00  0.00    +0.000 A 
ATOM      7  C   UNL     1       2.066   5.793  18.005  0.00  0.00    +0.000 A 
ATOM      8  C   UNL     1       2.105   6.942  18.806  0.00  0.00    +0.000 A 
ATOM      9  C   UNL     1       2.249   6.845  20.199  0.00  0.00    +0.000 A 
ATOM     10  C   UNL     1       2.354   5.598  20.806  0.00  0.00    +0.000 A 
ATOM     11  C   UNL     1       2.324   4.481  19.985  0.00  0.00    +0.000 A 
ENDROOT
BRANCH   5  12
ATOM     12  C   UNL     1       3.299   3.111  16.819  0.00  0.00    +0.000 C 
BRANCH  12  13
ATOM     13  N   UNL     1       4.489   3.846  17.259  0.00  0.00    +0.000 NA
ATOM     14  H   UNL     1       5.167   3.182  17.644  0.00  0.00    +0.000 HD
BRANCH  13  15
ATOM     15  C   UNL     1       5.155   4.623  16.201  0.00  0.00    +0.000 C 
ATOM     16  C   UNL     1       6.651   4.241  16.226  0.00  0.00    +0.000 C 
ATOM     17  C   UNL     1       7.338   4.699  17.517  0.00  0.00    +0.000 C 
ATOM     18  C   UNL     1       7.147   6.191  17.735  0.00  0.00    +0.000 C 
ATOM     19  F   UNL     1       7.855   6.861  16.785  0.00  0.00    +0.000 F 
ATOM     20  F   UNL     1       7.680   6.547  18.930  0.00  0.00    +0.000 F 
ATOM     21  C   UNL     1       5.697   6.637  17.668  0.00  0.00    +0.000 C 
ATOM     22  C   UNL     1       5.026   6.147  16.384  0.00  0.00    +0.000 C 
ENDBRANCH  13  15
ENDBRANCH  12  13
ENDBRANCH   5  12
TORSDOF 3
ENDMDL
MODEL 8
REMARK VINA RESULT:      -7.4      2.416      3.090
REMARK  Name = 
REMARK  3 active torsions:
REMARK  status: ('A' for Active; 'I' for Inactive)
REMARK    1  A    between atoms: C_5  and  C_6
REMARK    2  A    between atoms: C_6  and  N_7
REMARK    3  A    between atoms: N_7  and  C_8
REMARK                            x       y       z     vdW  Elec       q    Type
REMARK                         _______ _______ _______ _____ _____    ______ ____
ROOT
ATOM      1  O   UNL     1       7.064   5.619  14.302  0.00  0.00    +0.000 OA
ATOM      2  S   UNL     1       6.023   5.803  15.289  0.00  0.00    +0.000 S 
ATOM      3  O   UNL     1       5.008   6.832  15.189  0.00  0.00    +0.000 OA
ATOM      4  C   UNL     1       5.249   4.233  15.642  0.00  0.00    +0.000 C 
ATOM      5  C   UNL     1       5.588   3.839  17.102  0.00  0.00    +0.000 C 
ATOM      6  C   UNL     1       6.483   4.906  17.691  0.00  0.00    +0.000 A 
ATOM      7  C   UNL     1       7.025   4.907  18.972  0.00  0.00    +0.000 A 
ATOM      8  C   UNL     1       7.828   5.981  19.378  0.00  0.00    +0.000 A 
ATOM      9  C   UNL     1       8.105   7.044  18.504  0.00  0.00    +0.000 A 
ATOM     10  C   UNL     1       7.584   7.042  17.214  0.00  0.00    +0.000 A 
ATOM     11  C   UNL     1       6.786   5.972  16.847  0.00  0.00    +0.000 A 
ENDROOT
BRANCH   5  12
ATOM     12  C   UNL     1       4.306   3.622  17.935  0.00  0.00    +0.000 C 
BRANCH  12  13
ATOM     13  N   UNL     1       3.885   4.882  18.556  0.00  0.00    +0.000 NA
ATOM     14  H   UNL     1       4.381   5.657  18.106  0.00  0.00    +0.000 HD
BRANCH  13  15
ATOM     15  C   UNL     1       2.440   5.152  18.474  0.00  0.00    +0.000 C 
ATOM     16  C   UNL     1       1.968   5.546  19.890  0.00  0.00    +0.000 C 
ATOM     17  C   UNL     1       2.076   4.378  20.876  0.00  0.00    +0.000 C 
ATOM     18  C   UNL     1       1.323   3.161  20.363  0.00  0.00    +0.000 C 
ATOM     19  F   UNL     1      -0.009   3.433  20.393  0.00  0.00    +0.000 F 
ATOM     20  F   UNL     1       1.519   2.117  21.206  0.00  0.00    +0.000 F 
ATOM     21  C   UNL     1       1.707   2.756  18.950  0.00  0.00    +0.000 C 
ATOM     22  C   UNL     1       1.616   3.944  17.991  0.00  0.00    +0.000 C 
ENDBRANCH  13  15
ENDBRANCH  12  13
ENDBRANCH   5  12
TORSDOF 3
ENDMDL
MODEL 9
REMARK VINA RESULT:      -7.3      1.196      1.350
REMARK  Name = 
REMARK  3 active torsions:
REMARK  status: ('A' for Active; 'I' for Inactive)
REMARK    1  A    between atoms: C_5  and  C_6
REMARK    2  A    between atoms: C_6  and  N_7
REMARK    3  A    between atoms: N_7  and  C_8
REMARK                            x       y       z     vdW  Elec       q    Type
REMARK                         _______ _______ _______ _____ _____    ______ ____
ROOT
ATOM      1  O   UNL     1       7.575   5.414  19.359  0.00  0.00    +0.000 OA
ATOM      2  S   UNL     1       6.276   4.911  18.973  0.00  0.00    +0.000 S 
ATOM      3  O   UNL     1       5.767   3.622  19.393  0.00  0.00    +0.000 OA
ATOM      4  C   UNL     1       5.038   6.165  19.266  0.00  0.00    +0.000 C 
ATOM      5  C   UNL     1       4.483   6.632  17.898  0.00  0.00    +0.000 C 
ATOM      6  C   UNL     1       5.214   5.887  16.803  0.00  0.00    +0.000 A 
ATOM      7  C   UNL     1       5.022   6.042  15.435  0.00  0.00    +0.000 A 
ATOM      8  C   UNL     1       5.770   5.263  14.543  0.00  0.00    +0.000 A 
ATOM      9  C   UNL     1       6.721   4.343  15.012  0.00  0.00    +0.000 A 
ATOM     10  C   UNL     1       6.935   4.195  16.378  0.00  0.00    +0.000 A 
ATOM     11  C   UNL     1       6.172   4.972  17.235  0.00  0.00    +0.000 A 
ENDROOT
BRANCH   5  12
ATOM     12  C   UNL     1       2.953   6.439  17.818  0.00  0.00    +0.000 C 
BRANCH  12  13
ATOM     13  N   UNL     1       2.460   5.789  19.037  0.00  0.00    +0.000 NA
ATOM     14  H   UNL     1       2.180   6.509  19.708  0.00  0.00    +0.000 HD
BRANCH  13  15
ATOM     15  C   UNL     1       1.318   4.884  18.829  0.00  0.00    +0.000 C 
ATOM     16  C   UNL     1       1.163   4.042  20.114  0.00  0.00    +0.000 C 
ATOM     17  C   UNL     1       2.353   3.100  20.330  0.00  0.00    +0.000 C 
ATOM     18  C   UNL     1       2.574   2.215  19.114  0.00  0.00    +0.000 C 
ATOM     19  F   UNL     1       1.536   1.341  19.021  0.00  0.00    +0.000 F 
ATOM     20  F   UNL     1       3.689   1.466  19.295  0.00  0.00    +0.000 F 
ATOM     21  C   UNL     1       2.682   2.985  17.809  0.00  0.00    +0.000 C 
ATOM     22  C   UNL     1       1.497   3.935  17.629  0.00  0.00    +0.000 C 
ENDBRANCH  13  15
ENDBRANCH  12  13
ENDBRANCH   5  12
TORSDOF 3
ENDMDL
