MODEL 1
REMARK VINA RESULT:      -7.6      0.000      0.000
REMARK  Name = 
REMARK  11 active torsions:
REMARK  status: ('A' for Active; 'I' for Inactive)
REMARK    1  A    between atoms: C_2  and  C_3
REMARK    2  A    between atoms: C_8  and  O_9
REMARK    3  A    between atoms: O_9  and  C_10
REMARK    4  A    between atoms: C_10  and  C_11
REMARK    5  A    between atoms: C_11  and  O_12
REMARK    6  A    between atoms: C_11  and  C_13
REMARK    7  A    between atoms: C_13  and  N_14
REMARK    8  A    between atoms: N_14  and  C_15
REMARK    9  A    between atoms: C_15  and  C_16
REMARK   10  A    between atoms: N_18  and  C_19
REMARK   11  A    between atoms: C_22  and  C_23
REMARK                            x       y       z     vdW  Elec       q    Type
REMARK                         _______ _______ _______ _____ _____    ______ ____
ROOT
ATOM      1  C   UNL     1       1.710   4.620  20.523  0.00  0.00    +0.000 C 
ATOM      2  O   UNL     1       0.483   4.628  20.393  0.00  0.00    +0.000 OA
ATOM      3  N   UNL     1       2.565   5.668  20.220  0.00  0.00    +0.000 N 
ATOM      4  H   UNL     1       3.558   5.444  20.182  0.00  0.00    +0.000 HD
ENDROOT
BRANCH   3   5
ATOM      5  C   UNL     1       2.172   6.993  19.938  0.00  0.00    +0.000 A 
ATOM      6  C   UNL     1       2.360   7.585  18.691  0.00  0.00    +0.000 A 
ATOM      7  C   UNL     1       1.939   8.890  18.444  0.00  0.00    +0.000 A 
ATOM      8  C   UNL     1       1.316   9.622  19.458  0.00  0.00    +0.000 A 
ATOM      9  C   UNL     1       1.106   9.040  20.706  0.00  0.00    +0.000 A 
ATOM     10  C   UNL     1       1.537   7.736  20.935  0.00  0.00    +0.000 A 
BRANCH   8  11
ATOM     11  C   UNL     1       0.831  10.995  19.177  0.00  0.00    +0.000 C 
ATOM     12  N   UNL     1      -0.186  11.144  18.384  0.00  0.00    +0.000 NA
ATOM     13  N   UNL     1      -0.661  12.399  18.181  0.00  0.00    +0.000 N 
ATOM     14  C   UNL     1      -0.075  13.566  18.573  0.00  0.00    +0.000 C 
ATOM     15  O   UNL     1      -0.598  14.654  18.376  0.00  0.00    +0.000 OA
ATOM     16  C   UNL     1       1.303  13.448  19.175  0.00  0.00    +0.000 C 
ATOM     17  C   UNL     1       1.502  12.139  19.899  0.00  0.00    +0.000 C 
ATOM     18  H   UNL     1      -1.546  12.472  17.693  0.00  0.00    +0.000 HD
ENDBRANCH   8  11
ENDBRANCH   3   5
BRANCH   1  19
ATOM     19  C   UNL     1       2.400   3.346  21.010  0.00  0.00    +0.000 C 
BRANCH  19  20
ATOM     20  N   UNL     1       2.256   2.208  20.084  0.00  0.00    +0.000 NA
ATOM     21  H   UNL     1       3.035   1.569  20.262  0.00  0.00    +0.000 HD
BRANCH  20  22
ATOM     22  C   UNL     1       2.309   2.615  18.671  0.00  0.00    +0.000 C 
BRANCH  22  23
ATOM     23  C   UNL     1       3.692   2.298  18.053  0.00  0.00    +0.000 C 
BRANCH  23  24
ATOM     24  O   UNL     1       4.583   1.886  19.094  0.00  0.00    +0.000 OA
ATOM     25  H   UNL     1       5.484   1.849  18.730  0.00  0.00    +0.000 HD
ENDBRANCH  23  24
BRANCH  23  26
ATOM     26  C   UNL     1       4.223   3.541  17.317  0.00  0.00    +0.000 C 
BRANCH  26  27
ATOM     27  O   UNL     1       4.318   4.678  18.171  0.00  0.00    +0.000 OA
BRANCH  27  33
ATOM     28  C   UNL     1       6.032   6.303  17.285  0.00  0.00    +0.000 A 
ATOM     29  C   UNL     1       7.262   6.936  17.545  0.00  0.00    +0.000 A 
ATOM     30  C   UNL     1       8.003   6.607  18.675  0.00  0.00    +0.000 A 
ATOM     31  C   UNL     1       7.513   5.658  19.563  0.00  0.00    +0.000 A 
ATOM     32  C   UNL     1       6.270   5.064  19.334  0.00  0.00    +0.000 A 
ATOM     33  C   UNL     1       5.502   5.377  18.202  0.00  0.00    +0.000 A 
BRANCH  28  35
ATOM     34  N   UNL     1       5.005   6.899  14.988  0.00  0.00    +0.000 NA
ATOM     35  C   UNL     1       5.453   6.597  16.015  0.00  0.00    +0.000 C 
ENDBRANCH  28  35
ENDBRANCH  27  33
ENDBRANCH  26  27
ENDBRANCH  23  26
ENDBRANCH  22  23
ENDBRANCH  20  22
ENDBRANCH  19  20
ENDBRANCH   1  19
TORSDOF 11
ENDMDL
MODEL 2
REMARK VINA RESULT:      -7.4      3.485      4.305
REMARK  Name = 
REMARK  11 active torsions:
REMARK  status: ('A' for Active; 'I' for Inactive)
REMARK    1  A    between atoms: C_2  and  C_3
REMARK    2  A    between atoms: C_8  and  O_9
REMARK    3  A    between atoms: O_9  and  C_10
REMARK    4  A    between atoms: C_10  and  C_11
REMARK    5  A    between atoms: C_11  and  O_12
REMARK    6  A    between atoms: C_11  and  C_13
REMARK    7  A    between atoms: C_13  and  N_14
REMARK    8  A    between atoms: N_14  and  C_15
REMARK    9  A    between atoms: C_15  and  C_16
REMARK   10  A    between atoms: N_18  and  C_19
REMARK   11  A    between atoms: C_22  and  C_23
REMARK                            x       y       z     vdW  Elec       q    Type
REMARK                         _______ _______ _______ _____ _____    ______ ____
ROOT
ATOM      1  C   UNL     1       1.900   8.029  19.652  0.00  0.00    +0.000 C 
ATOM      2  O   UNL     1       1.590   8.786  18.729  0.00  0.00    +0.000 OA
ATOM      3  N   UNL     1       1.671   8.255  21.000  0.00  0.00    +0.000 N 
ATOM      4  H   UNL     1       2.164   7.646  21.650  0.00  0.00    +0.000 HD
ENDROOT
BRANCH   3   5
ATOM      5  C   UNL     1       0.843   9.264  21.534  0.00  0.00    +0.000 A 
ATOM      6  C   UNL     1       0.011   9.053  22.632  0.00  0.00    +0.000 A 
ATOM      7  C   UNL     1      -0.778  10.082  23.144  0.00  0.00    +0.000 A 
ATOM      8  C   UNL     1      -0.737  11.347  22.553  0.00  0.00    +0.000 A 
ATOM      9  C   UNL     1       0.101  11.579  21.465  0.00  0.00    +0.000 A 
ATOM     10  C   UNL     1       0.878  10.539  20.965  0.00  0.00    +0.000 A 
BRANCH   8  11
ATOM     11  C   UNL     1      -1.545  12.449  23.129  0.00  0.00    +0.000 C 
ATOM     12  N   UNL     1      -0.936  13.524  23.526  0.00  0.00    +0.000 NA
ATOM     13  N   UNL     1      -1.690  14.552  23.995  0.00  0.00    +0.000 N 
ATOM     14  C   UNL     1      -3.023  14.522  24.275  0.00  0.00    +0.000 C 
ATOM     15  O   UNL     1      -3.628  15.512  24.662  0.00  0.00    +0.000 OA
ATOM     16  C   UNL     1      -3.693  13.174  24.179  0.00  0.00    +0.000 C 
ATOM     17  C   UNL     1      -3.046  12.286  23.145  0.00  0.00    +0.000 C 
ATOM     18  H   UNL     1      -1.208  15.431  24.144  0.00  0.00    +0.000 HD
ENDBRANCH   8  11
ENDBRANCH   3   5
BRANCH   1  19
ATOM     19  C   UNL     1       2.653   6.737  19.334  0.00  0.00    +0.000 C 
BRANCH  19  20
ATOM     20  N   UNL     1       2.596   5.740  20.418  0.00  0.00    +0.000 NA
ATOM     21  H   UNL     1       3.512   5.285  20.464  0.00  0.00    +0.000 HD
BRANCH  20  22
ATOM     22  C   UNL     1       1.580   4.702  20.183  0.00  0.00    +0.000 C 
BRANCH  22  23
ATOM     23  C   UNL     1       2.194   3.286  20.300  0.00  0.00    +0.000 C 
BRANCH  23  24
ATOM     24  O   UNL     1       2.825   3.157  21.578  0.00  0.00    +0.000 OA
ATOM     25  H   UNL     1       2.845   4.034  22.000  0.00  0.00    +0.000 HD
ENDBRANCH  23  24
BRANCH  23  26
ATOM     26  C   UNL     1       3.195   3.064  19.152  0.00  0.00    +0.000 C 
BRANCH  26  27
ATOM     27  O   UNL     1       4.410   3.784  19.345  0.00  0.00    +0.000 OA
BRANCH  27  33
ATOM     28  C   UNL     1       6.371   4.814  18.139  0.00  0.00    +0.000 A 
ATOM     29  C   UNL     1       6.923   5.109  16.879  0.00  0.00    +0.000 A 
ATOM     30  C   UNL     1       6.207   4.851  15.714  0.00  0.00    +0.000 A 
ATOM     31  C   UNL     1       4.944   4.281  15.799  0.00  0.00    +0.000 A 
ATOM     32  C   UNL     1       4.413   3.942  17.046  0.00  0.00    +0.000 A 
ATOM     33  C   UNL     1       5.114   4.191  18.236  0.00  0.00    +0.000 A 
BRANCH  28  35
ATOM     34  N   UNL     1       7.770   5.600  20.167  0.00  0.00    +0.000 NA
ATOM     35  C   UNL     1       7.125   5.280  19.257  0.00  0.00    +0.000 C 
ENDBRANCH  28  35
ENDBRANCH  27  33
ENDBRANCH  26  27
ENDBRANCH  23  26
ENDBRANCH  22  23
ENDBRANCH  20  22
ENDBRANCH  19  20
ENDBRANCH   1  19
TORSDOF 11
ENDMDL
MODEL 3
REMARK VINA RESULT:      -7.3      2.571      4.822
REMARK  Name = 
REMARK  11 active torsions:
REMARK  status: ('A' for Active; 'I' for Inactive)
REMARK    1  A    between atoms: C_2  and  C_3
REMARK    2  A    between atoms: C_8  and  O_9
REMARK    3  A    between atoms: O_9  and  C_10
REMARK    4  A    between atoms: C_10  and  C_11
REMARK    5  A    between atoms: C_11  and  O_12
REMARK    6  A    between atoms: C_11  and  C_13
REMARK    7  A    between atoms: C_13  and  N_14
REMARK    8  A    between atoms: N_14  and  C_15
REMARK    9  A    between atoms: C_15  and  C_16
REMARK   10  A    between atoms: N_18  and  C_19
REMARK   11  A    between atoms: C_22  and  C_23
REMARK                            x       y       z     vdW  Elec       q    Type
REMARK                         _______ _______ _______ _____ _____    ______ ____
ROOT
ATOM      1  C   UNL     1       4.719   7.080  16.944  0.00  0.00    +0.000 C 
ATOM      2  O   UNL     1       5.509   7.669  17.686  0.00  0.00    +0.000 OA
ATOM      3  N   UNL     1       3.356   6.947  17.151  0.00  0.00    +0.000 N 
ATOM      4  H   UNL     1       2.874   6.264  16.569  0.00  0.00    +0.000 HD
ENDROOT
BRANCH   3   5
ATOM      5  C   UNL     1       2.599   7.654  18.109  0.00  0.00    +0.000 A 
ATOM      6  C   UNL     1       2.420   7.197  19.414  0.00  0.00    +0.000 A 
ATOM      7  C   UNL     1       1.682   7.934  20.338  0.00  0.00    +0.000 A 
ATOM      8  C   UNL     1       1.112   9.151  19.959  0.00  0.00    +0.000 A 
ATOM      9  C   UNL     1       1.294   9.630  18.664  0.00  0.00    +0.000 A 
ATOM     10  C   UNL     1       2.031   8.879  17.753  0.00  0.00    +0.000 A 
BRANCH   8  11
ATOM     11  C   UNL     1       0.365   9.952  20.959  0.00  0.00    +0.000 C 
ATOM     12  N   UNL     1       0.088   9.411  22.106  0.00  0.00    +0.000 NA
ATOM     13  N   UNL     1      -0.542  10.172  23.037  0.00  0.00    +0.000 N 
ATOM     14  C   UNL     1      -1.092  11.404  22.847  0.00  0.00    +0.000 C 
ATOM     15  O   UNL     1      -1.611  12.032  23.759  0.00  0.00    +0.000 OA
ATOM     16  C   UNL     1      -1.117  11.909  21.426  0.00  0.00    +0.000 C 
ATOM     17  C   UNL     1       0.042  11.386  20.612  0.00  0.00    +0.000 C 
ATOM     18  H   UNL     1      -0.601   9.782  23.971  0.00  0.00    +0.000 HD
ENDBRANCH   8  11
ENDBRANCH   3   5
BRANCH   1  19
ATOM     19  C   UNL     1       5.253   6.372  15.698  0.00  0.00    +0.000 C 
BRANCH  19  20
ATOM     20  N   UNL     1       6.590   5.781  15.884  0.00  0.00    +0.000 NA
ATOM     21  H   UNL     1       7.060   5.795  14.975  0.00  0.00    +0.000 HD
BRANCH  20  22
ATOM     22  C   UNL     1       6.535   4.386  16.350  0.00  0.00    +0.000 C 
BRANCH  22  23
ATOM     23  C   UNL     1       5.503   4.223  17.492  0.00  0.00    +0.000 C 
BRANCH  23  24
ATOM     24  O   UNL     1       6.152   3.641  18.627  0.00  0.00    +0.000 OA
ATOM     25  H   UNL     1       5.529   3.646  19.373  0.00  0.00    +0.000 HD
ENDBRANCH  23  24
BRANCH  23  26
ATOM     26  C   UNL     1       4.332   3.350  17.004  0.00  0.00    +0.000 C 
BRANCH  26  27
ATOM     27  O   UNL     1       3.973   2.346  17.950  0.00  0.00    +0.000 OA
BRANCH  27  33
ATOM     28  C   UNL     1       3.371   2.560  20.390  0.00  0.00    +0.000 A 
ATOM     29  C   UNL     1       2.409   3.033  21.301  0.00  0.00    +0.000 A 
ATOM     30  C   UNL     1       1.214   3.582  20.849  0.00  0.00    +0.000 A 
ATOM     31  C   UNL     1       0.978   3.678  19.484  0.00  0.00    +0.000 A 
ATOM     32  C   UNL     1       1.950   3.254  18.576  0.00  0.00    +0.000 A 
ATOM     33  C   UNL     1       3.165   2.697  19.005  0.00  0.00    +0.000 A 
BRANCH  28  35
ATOM     34  N   UNL     1       5.406   1.322  21.396  0.00  0.00    +0.000 NA
ATOM     35  C   UNL     1       4.472   1.866  20.974  0.00  0.00    +0.000 C 
ENDBRANCH  28  35
ENDBRANCH  27  33
ENDBRANCH  26  27
ENDBRANCH  23  26
ENDBRANCH  22  23
ENDBRANCH  20  22
ENDBRANCH  19  20
ENDBRANCH   1  19
TORSDOF 11
ENDMDL
MODEL 4
REMARK VINA RESULT:      -7.3      2.622      4.910
REMARK  Name = 
REMARK  11 active torsions:
REMARK  status: ('A' for Active; 'I' for Inactive)
REMARK    1  A    between atoms: C_2  and  C_3
REMARK    2  A    between atoms: C_8  and  O_9
REMARK    3  A    between atoms: O_9  and  C_10
REMARK    4  A    between atoms: C_10  and  C_11
REMARK    5  A    between atoms: C_11  and  O_12
REMARK    6  A    between atoms: C_11  and  C_13
REMARK    7  A    between atoms: C_13  and  N_14
REMARK    8  A    between atoms: N_14  and  C_15
REMARK    9  A    between atoms: C_15  and  C_16
REMARK   10  A    between atoms: N_18  and  C_19
REMARK   11  A    between atoms: C_22  and  C_23
REMARK                            x       y       z     vdW  Elec       q    Type
REMARK                         _______ _______ _______ _____ _____    ______ ____
ROOT
ATOM      1  C   UNL     1       5.069   7.077  16.990  0.00  0.00    +0.000 C 
ATOM      2  O   UNL     1       5.781   7.758  17.731  0.00  0.00    +0.000 OA
ATOM      3  N   UNL     1       3.724   6.805  17.182  0.00  0.00    +0.000 N 
ATOM      4  H   UNL     1       3.325   6.066  16.605  0.00  0.00    +0.000 HD
ENDROOT
BRANCH   3   5
ATOM      5  C   UNL     1       2.883   7.443  18.117  0.00  0.00    +0.000 A 
ATOM      6  C   UNL     1       2.591   6.894  19.365  0.00  0.00    +0.000 A 
ATOM      7  C   UNL     1       1.773   7.565  20.271  0.00  0.00    +0.000 A 
ATOM      8  C   UNL     1       1.234   8.809  19.932  0.00  0.00    +0.000 A 
ATOM      9  C   UNL     1       1.528   9.379  18.695  0.00  0.00    +0.000 A 
ATOM     10  C   UNL     1       2.345   8.692  17.802  0.00  0.00    +0.000 A 
BRANCH   8  11
ATOM     11  C   UNL     1       0.399   9.538  20.917  0.00  0.00    +0.000 C 
ATOM     12  N   UNL     1       0.033  10.752  20.643  0.00  0.00    +0.000 NA
ATOM     13  N   UNL     1      -0.782  11.389  21.522  0.00  0.00    +0.000 N 
ATOM     14  C   UNL     1      -1.122  10.966  22.772  0.00  0.00    +0.000 C 
ATOM     15  O   UNL     1      -1.895  11.593  23.482  0.00  0.00    +0.000 OA
ATOM     16  C   UNL     1      -0.413   9.732  23.272  0.00  0.00    +0.000 C 
ATOM     17  C   UNL     1      -0.045   8.790  22.152  0.00  0.00    +0.000 C 
ATOM     18  H   UNL     1      -1.182  12.267  21.210  0.00  0.00    +0.000 HD
ENDBRANCH   8  11
ENDBRANCH   3   5
BRANCH   1  19
ATOM     19  C   UNL     1       5.692   6.410  15.763  0.00  0.00    +0.000 C 
BRANCH  19  20
ATOM     20  N   UNL     1       6.995   5.778  16.035  0.00  0.00    +0.000 NA
ATOM     21  H   UNL     1       7.453   5.620  15.133  0.00  0.00    +0.000 HD
BRANCH  20  22
ATOM     22  C   UNL     1       6.866   4.480  16.718  0.00  0.00    +0.000 C 
BRANCH  22  23
ATOM     23  C   UNL     1       6.136   3.452  15.821  0.00  0.00    +0.000 C 
BRANCH  23  24
ATOM     24  O   UNL     1       6.059   3.968  14.489  0.00  0.00    +0.000 OA
ATOM     25  H   UNL     1       6.945   3.918  14.090  0.00  0.00    +0.000 HD
ENDBRANCH  23  24
BRANCH  23  26
ATOM     26  C   UNL     1       4.737   3.170  16.398  0.00  0.00    +0.000 C 
BRANCH  26  27
ATOM     27  O   UNL     1       4.580   3.687  17.717  0.00  0.00    +0.000 OA
BRANCH  27  33
ATOM     28  C   UNL     1       3.288   2.694  19.642  0.00  0.00    +0.000 A 
ATOM     29  C   UNL     1       2.008   2.508  20.197  0.00  0.00    +0.000 A 
ATOM     30  C   UNL     1       0.872   2.926  19.512  0.00  0.00    +0.000 A 
ATOM     31  C   UNL     1       1.006   3.548  18.277  0.00  0.00    +0.000 A 
ATOM     32  C   UNL     1       2.277   3.777  17.746  0.00  0.00    +0.000 A 
ATOM     33  C   UNL     1       3.440   3.366  18.416  0.00  0.00    +0.000 A 
BRANCH  28  35
ATOM     34  N   UNL     1       5.244   1.627  20.955  0.00  0.00    +0.000 NA
ATOM     35  C   UNL     1       4.356   2.072  20.356  0.00  0.00    +0.000 C 
ENDBRANCH  28  35
ENDBRANCH  27  33
ENDBRANCH  26  27
ENDBRANCH  23  26
ENDBRANCH  22  23
ENDBRANCH  20  22
ENDBRANCH  19  20
ENDBRANCH   1  19
TORSDOF 11
ENDMDL
MODEL 5
REMARK VINA RESULT:      -7.3      5.275      7.543
REMARK  Name = 
REMARK  11 active torsions:
REMARK  status: ('A' for Active; 'I' for Inactive)
REMARK    1  A    between atoms: C_2  and  C_3
REMARK    2  A    between atoms: C_8  and  O_9
REMARK    3  A    between atoms: O_9  and  C_10
REMARK    4  A    between atoms: C_10  and  C_11
REMARK    5  A    between atoms: C_11  and  O_12
REMARK    6  A    between atoms: C_11  and  C_13
REMARK    7  A    between atoms: C_13  and  N_14
REMARK    8  A    between atoms: N_14  and  C_15
REMARK    9  A    between atoms: C_15  and  C_16
REMARK   10  A    between atoms: N_18  and  C_19
REMARK   11  A    between atoms: C_22  and  C_23
REMARK                            x       y       z     vdW  Elec       q    Type
REMARK                         _______ _______ _______ _____ _____    ______ ____
ROOT
ATOM      1  C   UNL     1       8.030   7.491  18.006  0.00  0.00    +0.000 C 
ATOM      2  O   UNL     1       7.910   7.705  16.797  0.00  0.00    +0.000 OA
ATOM      3  N   UNL     1       8.594   8.354  18.931  0.00  0.00    +0.000 N 
ATOM      4  H   UNL     1       8.811   7.959  19.845  0.00  0.00    +0.000 HD
ENDROOT
BRANCH   3   5
ATOM      5  C   UNL     1       8.912   9.709  18.702  0.00  0.00    +0.000 A 
ATOM      6  C   UNL     1      10.024  10.328  19.270  0.00  0.00    +0.000 A 
ATOM      7  C   UNL     1      10.318  11.664  19.003  0.00  0.00    +0.000 A 
ATOM      8  C   UNL     1       9.490  12.399  18.152  0.00  0.00    +0.000 A 
ATOM      9  C   UNL     1       8.383  11.792  17.564  0.00  0.00    +0.000 A 
ATOM     10  C   UNL     1       8.104  10.458  17.845  0.00  0.00    +0.000 A 
BRANCH   8  11
ATOM     11  C   UNL     1       9.831  13.808  17.837  0.00  0.00    +0.000 C 
ATOM     12  N   UNL     1      10.776  14.040  16.979  0.00  0.00    +0.000 NA
ATOM     13  N   UNL     1      11.040  15.331  16.651  0.00  0.00    +0.000 N 
ATOM     14  C   UNL     1      10.546  16.445  17.262  0.00  0.00    +0.000 C 
ATOM     15  O   UNL     1      10.813  17.573  16.872  0.00  0.00    +0.000 OA
ATOM     16  C   UNL     1       9.730  16.212  18.509  0.00  0.00    +0.000 C 
ATOM     17  C   UNL     1       8.998  14.893  18.477  0.00  0.00    +0.000 C 
ATOM     18  H   UNL     1      11.664  15.477  15.866  0.00  0.00    +0.000 HD
ENDBRANCH   8  11
ENDBRANCH   3   5
BRANCH   1  19
ATOM     19  C   UNL     1       7.576   6.145  18.573  0.00  0.00    +0.000 C 
BRANCH  19  20
ATOM     20  N   UNL     1       7.868   5.004  17.687  0.00  0.00    +0.000 NA
ATOM     21  H   UNL     1       8.480   5.345  16.941  0.00  0.00    +0.000 HD
BRANCH  20  22
ATOM     22  C   UNL     1       6.658   4.442  17.067  0.00  0.00    +0.000 C 
BRANCH  22  23
ATOM     23  C   UNL     1       5.442   4.556  18.018  0.00  0.00    +0.000 C 
BRANCH  23  24
ATOM     24  O   UNL     1       5.422   3.418  18.885  0.00  0.00    +0.000 OA
ATOM     25  H   UNL     1       4.544   3.002  18.825  0.00  0.00    +0.000 HD
ENDBRANCH  23  24
BRANCH  23  26
ATOM     26  C   UNL     1       4.149   4.657  17.189  0.00  0.00    +0.000 C 
BRANCH  26  27
ATOM     27  O   UNL     1       2.981   4.444  17.978  0.00  0.00    +0.000 OA
BRANCH  27  33
ATOM     28  C   UNL     1       2.058   5.416  20.114  0.00  0.00    +0.000 A 
ATOM     29  C   UNL     1       1.708   6.603  20.783  0.00  0.00    +0.000 A 
ATOM     30  C   UNL     1       1.781   7.831  20.132  0.00  0.00    +0.000 A 
ATOM     31  C   UNL     1       2.219   7.882  18.816  0.00  0.00    +0.000 A 
ATOM     32  C   UNL     1       2.613   6.711  18.164  0.00  0.00    +0.000 A 
ATOM     33  C   UNL     1       2.550   5.461  18.798  0.00  0.00    +0.000 A 
BRANCH  28  35
ATOM     34  N   UNL     1       1.493   3.261  21.428  0.00  0.00    +0.000 NA
ATOM     35  C   UNL     1       1.778   4.212  20.827  0.00  0.00    +0.000 C 
ENDBRANCH  28  35
ENDBRANCH  27  33
ENDBRANCH  26  27
ENDBRANCH  23  26
ENDBRANCH  22  23
ENDBRANCH  20  22
ENDBRANCH  19  20
ENDBRANCH   1  19
TORSDOF 11
ENDMDL
MODEL 6
REMARK VINA RESULT:      -7.3      2.281      4.612
REMARK  Name = 
REMARK  11 active torsions:
REMARK  status: ('A' for Active; 'I' for Inactive)
REMARK    1  A    between atoms: C_2  and  C_3
REMARK    2  A    between atoms: C_8  and  O_9
REMARK    3  A    between atoms: O_9  and  C_10
REMARK    4  A    between atoms: C_10  and  C_11
REMARK    5  A    between atoms: C_11  and  O_12
REMARK    6  A    between atoms: C_11  and  C_13
REMARK    7  A    between atoms: C_13  and  N_14
REMARK    8  A    between atoms: N_14  and  C_15
REMARK    9  A    between atoms: C_15  and  C_16
REMARK   10  A    between atoms: N_18  and  C_19
REMARK   11  A    between atoms: C_22  and  C_23
REMARK                            x       y       z     vdW  Elec       q    Type
REMARK                         _______ _______ _______ _____ _____    ______ ____
ROOT
ATOM      1  C   UNL     1       6.521   5.769  18.347  0.00  0.00    +0.000 C 
ATOM      2  O   UNL     1       7.034   6.889  18.276  0.00  0.00    +0.000 OA
ATOM      3  N   UNL     1       5.193   5.502  18.638  0.00  0.00    +0.000 N 
ATOM      4  H   UNL     1       4.965   4.536  18.865  0.00  0.00    +0.000 HD
ENDROOT
BRANCH   3   5
ATOM      5  C   UNL     1       4.152   6.454  18.671  0.00  0.00    +0.000 A 
ATOM      6  C   UNL     1       3.912   7.344  17.625  0.00  0.00    +0.000 A 
ATOM      7  C   UNL     1       2.861   8.256  17.685  0.00  0.00    +0.000 A 
ATOM      8  C   UNL     1       2.029   8.284  18.806  0.00  0.00    +0.000 A 
ATOM      9  C   UNL     1       2.245   7.392  19.854  0.00  0.00    +0.000 A 
ATOM     10  C   UNL     1       3.302   6.490  19.778  0.00  0.00    +0.000 A 
BRANCH   8  11
ATOM     11  C   UNL     1       0.885   9.227  18.846  0.00  0.00    +0.000 C 
ATOM     12  N   UNL     1       0.618   9.833  19.962  0.00  0.00    +0.000 NA
ATOM     13  N   UNL     1      -0.392  10.741  19.972  0.00  0.00    +0.000 N 
ATOM     14  C   UNL     1      -1.296  10.965  18.978  0.00  0.00    +0.000 C 
ATOM     15  O   UNL     1      -2.153  11.833  19.063  0.00  0.00    +0.000 OA
ATOM     16  C   UNL     1      -1.246  10.016  17.807  0.00  0.00    +0.000 C 
ATOM     17  C   UNL     1       0.146   9.490  17.555  0.00  0.00    +0.000 C 
ATOM     18  H   UNL     1      -0.473  11.313  20.805  0.00  0.00    +0.000 HD
ENDBRANCH   8  11
ENDBRANCH   3   5
BRANCH   1  19
ATOM     19  C   UNL     1       7.399   4.533  18.155  0.00  0.00    +0.000 C 
BRANCH  19  20
ATOM     20  N   UNL     1       7.914   4.383  16.782  0.00  0.00    +0.000 NA
ATOM     21  H   UNL     1       8.730   4.994  16.693  0.00  0.00    +0.000 HD
BRANCH  20  22
ATOM     22  C   UNL     1       6.931   4.779  15.761  0.00  0.00    +0.000 C 
BRANCH  22  23
ATOM     23  C   UNL     1       6.051   3.577  15.342  0.00  0.00    +0.000 C 
BRANCH  23  24
ATOM     24  O   UNL     1       5.934   3.562  13.915  0.00  0.00    +0.000 OA
ATOM     25  H   UNL     1       5.417   2.779  13.659  0.00  0.00    +0.000 HD
ENDBRANCH  23  24
BRANCH  23  26
ATOM     26  C   UNL     1       4.673   3.688  16.019  0.00  0.00    +0.000 C 
BRANCH  26  27
ATOM     27  O   UNL     1       4.533   2.789  17.116  0.00  0.00    +0.000 OA
BRANCH  27  33
ATOM     28  C   UNL     1       3.415   2.747  19.376  0.00  0.00    +0.000 A 
ATOM     29  C   UNL     1       2.240   3.057  20.086  0.00  0.00    +0.000 A 
ATOM     30  C   UNL     1       1.116   3.534  19.420  0.00  0.00    +0.000 A 
ATOM     31  C   UNL     1       1.162   3.721  18.046  0.00  0.00    +0.000 A 
ATOM     32  C   UNL     1       2.341   3.461  17.344  0.00  0.00    +0.000 A 
ATOM     33  C   UNL     1       3.490   2.979  17.991  0.00  0.00    +0.000 A 
BRANCH  28  35
ATOM     34  N   UNL     1       5.242   1.527  20.740  0.00  0.00    +0.000 NA
ATOM     35  C   UNL     1       4.436   2.107  20.140  0.00  0.00    +0.000 C 
ENDBRANCH  28  35
ENDBRANCH  27  33
ENDBRANCH  26  27
ENDBRANCH  23  26
ENDBRANCH  22  23
ENDBRANCH  20  22
ENDBRANCH  19  20
ENDBRANCH   1  19
TORSDOF 11
ENDMDL
MODEL 7
REMARK VINA RESULT:      -7.2      1.756      2.537
REMARK  Name = 
REMARK  11 active torsions:
REMARK  status: ('A' for Active; 'I' for Inactive)
REMARK    1  A    between atoms: C_2  and  C_3
REMARK    2  A    between atoms: C_8  and  O_9
REMARK    3  A    between atoms: O_9  and  C_10
REMARK    4  A    between atoms: C_10  and  C_11
REMARK    5  A    between atoms: C_11  and  O_12
REMARK    6  A    between atoms: C_11  and  C_13
REMARK    7  A    between atoms: C_13  and  N_14
REMARK    8  A    between atoms: N_14  and  C_15
REMARK    9  A    between atoms: C_15  and  C_16
REMARK   10  A    between atoms: N_18  and  C_19
REMARK   11  A    between atoms: C_22  and  C_23
REMARK                            x       y       z     vdW  Elec       q    Type
REMARK                         _______ _______ _______ _____ _____    ______ ____
ROOT
ATOM      1  C   UNL     1       2.163   6.060  20.105  0.00  0.00    +0.000 C 
ATOM      2  O   UNL     1       2.546   6.271  18.951  0.00  0.00    +0.000 OA
ATOM      3  N   UNL     1       1.699   7.017  20.993  0.00  0.00    +0.000 N 
ATOM      4  H   UNL     1       1.617   6.728  21.966  0.00  0.00    +0.000 HD
ENDROOT
BRANCH   3   5
ATOM      5  C   UNL     1       1.361   8.347  20.664  0.00  0.00    +0.000 A 
ATOM      6  C   UNL     1       0.957   9.279  21.618  0.00  0.00    +0.000 A 
ATOM      7  C   UNL     1       0.651  10.590  21.258  0.00  0.00    +0.000 A 
ATOM      8  C   UNL     1       0.753  10.983  19.921  0.00  0.00    +0.000 A 
ATOM      9  C   UNL     1       1.170  10.068  18.957  0.00  0.00    +0.000 A 
ATOM     10  C   UNL     1       1.467   8.763  19.336  0.00  0.00    +0.000 A 
BRANCH   8  11
ATOM     11  C   UNL     1       0.468  12.391  19.550  0.00  0.00    +0.000 C 
ATOM     12  N   UNL     1      -0.741  12.709  19.203  0.00  0.00    +0.000 NA
ATOM     13  N   UNL     1      -1.005  14.012  18.925  0.00  0.00    +0.000 N 
ATOM     14  C   UNL     1      -0.095  15.016  18.786  0.00  0.00    +0.000 C 
ATOM     15  O   UNL     1      -0.431  16.172  18.569  0.00  0.00    +0.000 OA
ATOM     16  C   UNL     1       1.357  14.607  18.814  0.00  0.00    +0.000 C 
ATOM     17  C   UNL     1       1.592  13.392  19.677  0.00  0.00    +0.000 C 
ATOM     18  H   UNL     1      -1.982  14.259  18.816  0.00  0.00    +0.000 HD
ENDBRANCH   8  11
ENDBRANCH   3   5
BRANCH   1  19
ATOM     19  C   UNL     1       2.238   4.641  20.667  0.00  0.00    +0.000 C 
BRANCH  19  20
ATOM     20  N   UNL     1       1.981   3.594  19.662  0.00  0.00    +0.000 NA
ATOM     21  H   UNL     1       0.967   3.486  19.585  0.00  0.00    +0.000 HD
BRANCH  20  22
ATOM     22  C   UNL     1       2.556   2.292  20.038  0.00  0.00    +0.000 C 
BRANCH  22  23
ATOM     23  C   UNL     1       3.698   1.890  19.074  0.00  0.00    +0.000 C 
BRANCH  23  24
ATOM     24  O   UNL     1       4.938   1.916  19.786  0.00  0.00    +0.000 OA
ATOM     25  H   UNL     1       4.774   2.277  20.675  0.00  0.00    +0.000 HD
ENDBRANCH  23  24
BRANCH  23  26
ATOM     26  C   UNL     1       3.717   2.851  17.871  0.00  0.00    +0.000 C 
BRANCH  26  27
ATOM     27  O   UNL     1       4.619   3.938  18.061  0.00  0.00    +0.000 OA
BRANCH  27  33
ATOM     28  C   UNL     1       6.803   4.727  17.077  0.00  0.00    +0.000 A 
ATOM     29  C   UNL     1       7.509   4.966  15.884  0.00  0.00    +0.000 A 
ATOM     30  C   UNL     1       6.885   4.816  14.649  0.00  0.00    +0.000 A 
ATOM     31  C   UNL     1       5.559   4.410  14.598  0.00  0.00    +0.000 A 
ATOM     32  C   UNL     1       4.869   4.125  15.778  0.00  0.00    +0.000 A 
ATOM     33  C   UNL     1       5.474   4.268  17.036  0.00  0.00    +0.000 A 
BRANCH  28  35
ATOM     34  N   UNL     1       8.000   5.391  19.271  0.00  0.00    +0.000 NA
ATOM     35  C   UNL     1       7.495   5.079  18.274  0.00  0.00    +0.000 C 
ENDBRANCH  28  35
ENDBRANCH  27  33
ENDBRANCH  26  27
ENDBRANCH  23  26
ENDBRANCH  22  23
ENDBRANCH  20  22
ENDBRANCH  19  20
ENDBRANCH   1  19
TORSDOF 11
ENDMDL
MODEL 8
REMARK VINA RESULT:      -7.2      3.001      4.880
REMARK  Name = 
REMARK  11 active torsions:
REMARK  status: ('A' for Active; 'I' for Inactive)
REMARK    1  A    between atoms: C_2  and  C_3
REMARK    2  A    between atoms: C_8  and  O_9
REMARK    3  A    between atoms: O_9  and  C_10
REMARK    4  A    between atoms: C_10  and  C_11
REMARK    5  A    between atoms: C_11  and  O_12
REMARK    6  A    between atoms: C_11  and  C_13
REMARK    7  A    between atoms: C_13  and  N_14
REMARK    8  A    between atoms: N_14  and  C_15
REMARK    9  A    between atoms: C_15  and  C_16
REMARK   10  A    between atoms: N_18  and  C_19
REMARK   11  A    between atoms: C_22  and  C_23
REMARK                            x       y       z     vdW  Elec       q    Type
REMARK                         _______ _______ _______ _____ _____    ______ ____
ROOT
ATOM      1  C   UNL     1       2.242   7.556  19.397  0.00  0.00    +0.000 C 
ATOM      2  O   UNL     1       1.882   8.166  18.387  0.00  0.00    +0.000 OA
ATOM      3  N   UNL     1       1.960   7.915  20.705  0.00  0.00    +0.000 N 
ATOM      4  H   UNL     1       2.494   7.438  21.430  0.00  0.00    +0.000 HD
ENDROOT
BRANCH   3   5
ATOM      5  C   UNL     1       1.026   8.893  21.105  0.00  0.00    +0.000 A 
ATOM      6  C   UNL     1       0.329   8.822  22.310  0.00  0.00    +0.000 A 
ATOM      7  C   UNL     1      -0.571   9.819  22.680  0.00  0.00    +0.000 A 
ATOM      8  C   UNL     1      -0.782  10.912  21.836  0.00  0.00    +0.000 A 
ATOM      9  C   UNL     1      -0.083  11.006  20.634  0.00  0.00    +0.000 A 
ATOM     10  C   UNL     1       0.810   9.999  20.280  0.00  0.00    +0.000 A 
BRANCH   8  11
ATOM     11  C   UNL     1      -1.708  11.991  22.254  0.00  0.00    +0.000 C 
ATOM     12  N   UNL     1      -2.322  11.876  23.392  0.00  0.00    +0.000 NA
ATOM     13  N   UNL     1      -3.120  12.898  23.795  0.00  0.00    +0.000 N 
ATOM     14  C   UNL     1      -3.507  13.972  23.052  0.00  0.00    +0.000 C 
ATOM     15  O   UNL     1      -4.202  14.866  23.514  0.00  0.00    +0.000 OA
ATOM     16  C   UNL     1      -3.112  13.950  21.596  0.00  0.00    +0.000 C 
ATOM     17  C   UNL     1      -1.820  13.206  21.365  0.00  0.00    +0.000 C 
ATOM     18  H   UNL     1      -3.456  12.855  24.751  0.00  0.00    +0.000 HD
ENDBRANCH   8  11
ENDBRANCH   3   5
BRANCH   1  19
ATOM     19  C   UNL     1       3.123   6.316  19.244  0.00  0.00    +0.000 C 
BRANCH  19  20
ATOM     20  N   UNL     1       3.773   6.214  17.926  0.00  0.00    +0.000 NA
ATOM     21  H   UNL     1       3.315   5.453  17.417  0.00  0.00    +0.000 HD
BRANCH  20  22
ATOM     22  C   UNL     1       5.208   5.903  18.022  0.00  0.00    +0.000 C 
BRANCH  22  23
ATOM     23  C   UNL     1       5.439   4.379  18.164  0.00  0.00    +0.000 C 
BRANCH  23  24
ATOM     24  O   UNL     1       6.821   4.094  17.925  0.00  0.00    +0.000 OA
ATOM     25  H   UNL     1       7.184   3.660  18.716  0.00  0.00    +0.000 HD
ENDBRANCH  23  24
BRANCH  23  26
ATOM     26  C   UNL     1       4.529   3.629  17.175  0.00  0.00    +0.000 C 
BRANCH  26  27
ATOM     27  O   UNL     1       3.923   2.479  17.760  0.00  0.00    +0.000 OA
BRANCH  27  33
ATOM     28  C   UNL     1       3.293   2.471  20.203  0.00  0.00    +0.000 A 
ATOM     29  C   UNL     1       2.274   2.757  21.130  0.00  0.00    +0.000 A 
ATOM     30  C   UNL     1       1.016   3.163  20.698  0.00  0.00    +0.000 A 
ATOM     31  C   UNL     1       0.772   3.304  19.338  0.00  0.00    +0.000 A 
ATOM     32  C   UNL     1       1.794   3.067  18.417  0.00  0.00    +0.000 A 
ATOM     33  C   UNL     1       3.073   2.657  18.826  0.00  0.00    +0.000 A 
BRANCH  28  35
ATOM     34  N   UNL     1       5.402   1.403  21.251  0.00  0.00    +0.000 NA
ATOM     35  C   UNL     1       4.477   1.901  20.757  0.00  0.00    +0.000 C 
ENDBRANCH  28  35
ENDBRANCH  27  33
ENDBRANCH  26  27
ENDBRANCH  23  26
ENDBRANCH  22  23
ENDBRANCH  20  22
ENDBRANCH  19  20
ENDBRANCH   1  19
TORSDOF 11
ENDMDL
MODEL 9
REMARK VINA RESULT:      -7.1      3.377      4.090
REMARK  Name = 
REMARK  11 active torsions:
REMARK  status: ('A' for Active; 'I' for Inactive)
REMARK    1  A    between atoms: C_2  and  C_3
REMARK    2  A    between atoms: C_8  and  O_9
REMARK    3  A    between atoms: O_9  and  C_10
REMARK    4  A    between atoms: C_10  and  C_11
REMARK    5  A    between atoms: C_11  and  O_12
REMARK    6  A    between atoms: C_11  and  C_13
REMARK    7  A    between atoms: C_13  and  N_14
REMARK    8  A    between atoms: N_14  and  C_15
REMARK    9  A    between atoms: C_15  and  C_16
REMARK   10  A    between atoms: N_18  and  C_19
REMARK   11  A    between atoms: C_22  and  C_23
REMARK                            x       y       z     vdW  Elec       q    Type
REMARK                         _______ _______ _______ _____ _____    ______ ____
ROOT
ATOM      1  C   UNL     1       1.894   7.721  19.938  0.00  0.00    +0.000 C 
ATOM      2  O   UNL     1       1.937   8.573  19.047  0.00  0.00    +0.000 OA
ATOM      3  N   UNL     1       1.357   7.895  21.202  0.00  0.00    +0.000 N 
ATOM      4  H   UNL     1       1.578   7.178  21.891  0.00  0.00    +0.000 HD
ENDROOT
BRANCH   3   5
ATOM      5  C   UNL     1       0.561   8.985  21.613  0.00  0.00    +0.000 A 
ATOM      6  C   UNL     1       0.008   9.895  20.713  0.00  0.00    +0.000 A 
ATOM      7  C   UNL     1      -0.791  10.947  21.155  0.00  0.00    +0.000 A 
ATOM      8  C   UNL     1      -1.048  11.098  22.520  0.00  0.00    +0.000 A 
ATOM      9  C   UNL     1      -0.516  10.189  23.431  0.00  0.00    +0.000 A 
ATOM     10  C   UNL     1       0.283   9.146  22.972  0.00  0.00    +0.000 A 
BRANCH   8  11
ATOM     11  C   UNL     1      -1.934  12.194  22.981  0.00  0.00    +0.000 C 
ATOM     12  N   UNL     1      -3.121  11.893  23.411  0.00  0.00    +0.000 NA
ATOM     13  N   UNL     1      -3.902  12.896  23.888  0.00  0.00    +0.000 N 
ATOM     14  C   UNL     1      -3.656  14.234  23.800  0.00  0.00    +0.000 C 
ATOM     15  O   UNL     1      -4.404  15.066  24.294  0.00  0.00    +0.000 OA
ATOM     16  C   UNL     1      -2.461  14.636  22.973  0.00  0.00    +0.000 C 
ATOM     17  C   UNL     1      -1.370  13.594  22.998  0.00  0.00    +0.000 C 
ATOM     18  H   UNL     1      -4.753  12.616  24.364  0.00  0.00    +0.000 HD
ENDBRANCH   8  11
ENDBRANCH   3   5
BRANCH   1  19
ATOM     19  C   UNL     1       2.524   6.350  19.689  0.00  0.00    +0.000 C 
BRANCH  19  20
ATOM     20  N   UNL     1       2.239   5.369  20.751  0.00  0.00    +0.000 NA
ATOM     21  H   UNL     1       3.139   5.030  21.103  0.00  0.00    +0.000 HD
BRANCH  20  22
ATOM     22  C   UNL     1       1.471   4.212  20.265  0.00  0.00    +0.000 C 
BRANCH  22  23
ATOM     23  C   UNL     1       2.314   2.916  20.335  0.00  0.00    +0.000 C 
BRANCH  23  24
ATOM     24  O   UNL     1       3.090   2.930  21.537  0.00  0.00    +0.000 OA
ATOM     25  H   UNL     1       3.684   2.160  21.527  0.00  0.00    +0.000 HD
ENDBRANCH  23  24
BRANCH  23  26
ATOM     26  C   UNL     1       3.210   2.820  19.087  0.00  0.00    +0.000 C 
BRANCH  26  27
ATOM     27  O   UNL     1       4.483   3.430  19.284  0.00  0.00    +0.000 OA
BRANCH  27  33
ATOM     28  C   UNL     1       6.304   4.741  18.133  0.00  0.00    +0.000 A 
ATOM     29  C   UNL     1       6.795   5.185  16.892  0.00  0.00    +0.000 A 
ATOM     30  C   UNL     1       6.081   4.946  15.722  0.00  0.00    +0.000 A 
ATOM     31  C   UNL     1       4.883   4.247  15.781  0.00  0.00    +0.000 A 
ATOM     32  C   UNL     1       4.417   3.763  17.005  0.00  0.00    +0.000 A 
ATOM     33  C   UNL     1       5.118   3.990  18.200  0.00  0.00    +0.000 A 
BRANCH  28  35
ATOM     34  N   UNL     1       7.624   5.501  20.223  0.00  0.00    +0.000 NA
ATOM     35  C   UNL     1       7.034   5.195  19.272  0.00  0.00    +0.000 C 
ENDBRANCH  28  35
ENDBRANCH  27  33
ENDBRANCH  26  27
ENDBRANCH  23  26
ENDBRANCH  22  23
ENDBRANCH  20  22
ENDBRANCH  19  20
ENDBRANCH   1  19
TORSDOF 11
ENDMDL
