MODEL 1
REMARK VINA RESULT:      -7.0      0.000      0.000
REMARK  Name = 
REMARK  7 active torsions:
REMARK  status: ('A' for Active; 'I' for Inactive)
REMARK    1  A    between atoms: C_1  and  C_2
REMARK    2  A    between atoms: C_2  and  C_3
REMARK    3  A    between atoms: C_3  and  C_4
REMARK    4  A    between atoms: C_4  and  C_5
REMARK    5  A    between atoms: C_6  and  O_7
REMARK    6  A    between atoms: C_12  and  C_13
REMARK    7  A    between atoms: C_16  and  C_17
REMARK                            x       y       z     vdW  Elec       q    Type
REMARK                         _______ _______ _______ _____ _____    ______ ____
ROOT
ATOM      1  C   UNL     1       2.601   4.151  17.904  0.00  0.00    +0.000 A 
ATOM      2  C   UNL     1       3.392   3.049  17.584  0.00  0.00    +0.000 A 
ATOM      3  N   UNL     1       4.709   3.096  17.328  0.00  0.00    +0.000 NA
ATOM      4  C   UNL     1       5.327   4.281  17.368  0.00  0.00    +0.000 A 
ATOM      5  C   UNL     1       6.686   4.312  17.081  0.00  0.00    +0.000 A 
ATOM      6  C   UNL     1       7.420   5.500  17.087  0.00  0.00    +0.000 A 
ATOM      7  C   UNL     1       6.788   6.700  17.383  0.00  0.00    +0.000 A 
ATOM      8  C   UNL     1       7.535   8.001  17.413  0.00  0.00    +0.000 C 
ATOM      9  C   UNL     1       5.422   6.681  17.683  0.00  0.00    +0.000 A 
ATOM     10  C   UNL     1       4.662   5.482  17.683  0.00  0.00    +0.000 A 
ATOM     11  C   UNL     1       3.267   5.406  17.981  0.00  0.00    +0.000 A 
ATOM     12  C   UNL     1       2.495   6.660  18.331  0.00  0.00    +0.000 C 
ENDROOT
BRANCH   2  13
ATOM     13  O   UNL     1       2.904   1.775  17.500  0.00  0.00    +0.000 OA
ATOM     14  H   UNL     1       3.205   1.374  16.675  0.00  0.00    +0.000 HD
ENDBRANCH   2  13
BRANCH   1  15
ATOM     15  C   UNL     1       1.117   4.022  18.195  0.00  0.00    +0.000 C 
BRANCH  15  16
ATOM     16  C   UNL     1       0.817   3.269  19.498  0.00  0.00    +0.000 C 
BRANCH  16  18
ATOM     17  C   UNL     1       2.200   3.162  21.586  0.00  0.00    +0.000 C 
ATOM     18  C   UNL     1       1.289   4.034  20.734  0.00  0.00    +0.000 C 
ENDBRANCH  16  18
ENDBRANCH  15  16
ENDBRANCH   1  15
TORSDOF 4
ENDMDL
MODEL 2
REMARK VINA RESULT:      -6.8      2.456      5.986
REMARK  Name = 
REMARK  7 active torsions:
REMARK  status: ('A' for Active; 'I' for Inactive)
REMARK    1  A    between atoms: C_1  and  C_2
REMARK    2  A    between atoms: C_2  and  C_3
REMARK    3  A    between atoms: C_3  and  C_4
REMARK    4  A    between atoms: C_4  and  C_5
REMARK    5  A    between atoms: C_6  and  O_7
REMARK    6  A    between atoms: C_12  and  C_13
REMARK    7  A    between atoms: C_16  and  C_17
REMARK                            x       y       z     vdW  Elec       q    Type
REMARK                         _______ _______ _______ _____ _____    ______ ____
ROOT
ATOM      1  C   UNL     1       6.856   6.428  17.901  0.00  0.00    +0.000 A 
ATOM      2  C   UNL     1       7.209   5.735  19.059  0.00  0.00    +0.000 A 
ATOM      3  N   UNL     1       6.429   4.843  19.689  0.00  0.00    +0.000 NA
ATOM      4  C   UNL     1       5.214   4.590  19.191  0.00  0.00    +0.000 A 
ATOM      5  C   UNL     1       4.414   3.677  19.869  0.00  0.00    +0.000 A 
ATOM      6  C   UNL     1       3.127   3.352  19.435  0.00  0.00    +0.000 A 
ATOM      7  C   UNL     1       2.610   3.953  18.295  0.00  0.00    +0.000 A 
ATOM      8  C   UNL     1       1.238   3.630  17.783  0.00  0.00    +0.000 C 
ATOM      9  C   UNL     1       3.409   4.868  17.600  0.00  0.00    +0.000 A 
ATOM     10  C   UNL     1       4.720   5.207  18.025  0.00  0.00    +0.000 A 
ATOM     11  C   UNL     1       5.577   6.132  17.354  0.00  0.00    +0.000 A 
ATOM     12  C   UNL     1       5.107   6.825  16.093  0.00  0.00    +0.000 C 
ENDROOT
BRANCH   2  13
ATOM     13  O   UNL     1       8.413   5.890  19.687  0.00  0.00    +0.000 OA
ATOM     14  H   UNL     1       8.350   5.535  20.582  0.00  0.00    +0.000 HD
ENDBRANCH   2  13
BRANCH   1  15
ATOM     15  C   UNL     1       7.795   7.416  17.235  0.00  0.00    +0.000 C 
BRANCH  15  16
ATOM     16  C   UNL     1       7.636   8.850  17.756  0.00  0.00    +0.000 C 
BRANCH  16  18
ATOM     17  C   UNL     1       9.198  10.718  18.350  0.00  0.00    +0.000 C 
ATOM     18  C   UNL     1       8.800   9.280  18.648  0.00  0.00    +0.000 C 
ENDBRANCH  16  18
ENDBRANCH  15  16
ENDBRANCH   1  15
TORSDOF 4
ENDMDL
MODEL 3
REMARK VINA RESULT:      -6.8      2.338      3.289
REMARK  Name = 
REMARK  7 active torsions:
REMARK  status: ('A' for Active; 'I' for Inactive)
REMARK    1  A    between atoms: C_1  and  C_2
REMARK    2  A    between atoms: C_2  and  C_3
REMARK    3  A    between atoms: C_3  and  C_4
REMARK    4  A    between atoms: C_4  and  C_5
REMARK    5  A    between atoms: C_6  and  O_7
REMARK    6  A    between atoms: C_12  and  C_13
REMARK    7  A    between atoms: C_16  and  C_17
REMARK                            x       y       z     vdW  Elec       q    Type
REMARK                         _______ _______ _______ _____ _____    ______ ____
ROOT
ATOM      1  C   UNL     1       3.028   4.532  20.199  0.00  0.00    +0.000 A 
ATOM      2  C   UNL     1       2.682   5.861  19.958  0.00  0.00    +0.000 A 
ATOM      3  N   UNL     1       3.092   6.582  18.903  0.00  0.00    +0.000 NA
ATOM      4  C   UNL     1       3.902   6.005  18.008  0.00  0.00    +0.000 A 
ATOM      5  C   UNL     1       4.331   6.775  16.934  0.00  0.00    +0.000 A 
ATOM      6  C   UNL     1       5.185   6.269  15.952  0.00  0.00    +0.000 A 
ATOM      7  C   UNL     1       5.635   4.958  16.037  0.00  0.00    +0.000 A 
ATOM      8  C   UNL     1       6.544   4.364  15.002  0.00  0.00    +0.000 C 
ATOM      9  C   UNL     1       5.202   4.171  17.110  0.00  0.00    +0.000 A 
ATOM     10  C   UNL     1       4.332   4.669  18.114  0.00  0.00    +0.000 A 
ATOM     11  C   UNL     1       3.861   3.910  19.229  0.00  0.00    +0.000 A 
ATOM     12  C   UNL     1       4.284   2.466  19.398  0.00  0.00    +0.000 C 
ENDROOT
BRANCH   2  13
ATOM     13  O   UNL     1       1.867   6.585  20.782  0.00  0.00    +0.000 OA
ATOM     14  H   UNL     1       2.394   7.247  21.246  0.00  0.00    +0.000 HD
ENDBRANCH   2  13
BRANCH   1  15
ATOM     15  C   UNL     1       2.516   3.773  21.410  0.00  0.00    +0.000 C 
BRANCH  15  16
ATOM     16  C   UNL     1       1.268   2.930  21.113  0.00  0.00    +0.000 C 
BRANCH  16  18
ATOM     17  C   UNL     1       0.671   2.216  18.786  0.00  0.00    +0.000 C 
ATOM     18  C   UNL     1       0.585   3.340  19.809  0.00  0.00    +0.000 C 
ENDBRANCH  16  18
ENDBRANCH  15  16
ENDBRANCH   1  15
TORSDOF 4
ENDMDL
MODEL 4
REMARK VINA RESULT:      -6.8      2.186      3.068
REMARK  Name = 
REMARK  7 active torsions:
REMARK  status: ('A' for Active; 'I' for Inactive)
REMARK    1  A    between atoms: C_1  and  C_2
REMARK    2  A    between atoms: C_2  and  C_3
REMARK    3  A    between atoms: C_3  and  C_4
REMARK    4  A    between atoms: C_4  and  C_5
REMARK    5  A    between atoms: C_6  and  O_7
REMARK    6  A    between atoms: C_12  and  C_13
REMARK    7  A    between atoms: C_16  and  C_17
REMARK                            x       y       z     vdW  Elec       q    Type
REMARK                         _______ _______ _______ _____ _____    ______ ____
ROOT
ATOM      1  C   UNL     1       1.953   4.626  19.266  0.00  0.00    +0.000 A 
ATOM      2  C   UNL     1       2.415   5.904  19.578  0.00  0.00    +0.000 A 
ATOM      3  N   UNL     1       3.396   6.547  18.926  0.00  0.00    +0.000 NA
ATOM      4  C   UNL     1       3.996   5.931  17.903  0.00  0.00    +0.000 A 
ATOM      5  C   UNL     1       5.023   6.607  17.254  0.00  0.00    +0.000 A 
ATOM      6  C   UNL     1       5.719   6.046  16.180  0.00  0.00    +0.000 A 
ATOM      7  C   UNL     1       5.392   4.771  15.736  0.00  0.00    +0.000 A 
ATOM      8  C   UNL     1       6.102   4.130  14.581  0.00  0.00    +0.000 C 
ATOM      9  C   UNL     1       4.354   4.085  16.377  0.00  0.00    +0.000 A 
ATOM     10  C   UNL     1       3.636   4.642  17.466  0.00  0.00    +0.000 A 
ATOM     11  C   UNL     1       2.570   3.986  18.155  0.00  0.00    +0.000 A 
ATOM     12  C   UNL     1       2.131   2.600  17.732  0.00  0.00    +0.000 C 
ENDROOT
BRANCH   2  13
ATOM     13  O   UNL     1       1.904   6.657  20.598  0.00  0.00    +0.000 OA
ATOM     14  H   UNL     1       0.942   6.678  20.525  0.00  0.00    +0.000 HD
ENDBRANCH   2  13
BRANCH   1  15
ATOM     15  C   UNL     1       0.829   3.963  20.040  0.00  0.00    +0.000 C 
BRANCH  15  16
ATOM     16  C   UNL     1       1.273   2.704  20.797  0.00  0.00    +0.000 C 
BRANCH  16  18
ATOM     17  C   UNL     1       3.716   2.230  21.098  0.00  0.00    +0.000 C 
ATOM     18  C   UNL     1       2.504   2.952  21.668  0.00  0.00    +0.000 C 
ENDBRANCH  16  18
ENDBRANCH  15  16
ENDBRANCH   1  15
TORSDOF 4
ENDMDL
MODEL 5
REMARK VINA RESULT:      -6.8      2.436      5.152
REMARK  Name = 
REMARK  7 active torsions:
REMARK  status: ('A' for Active; 'I' for Inactive)
REMARK    1  A    between atoms: C_1  and  C_2
REMARK    2  A    between atoms: C_2  and  C_3
REMARK    3  A    between atoms: C_3  and  C_4
REMARK    4  A    between atoms: C_4  and  C_5
REMARK    5  A    between atoms: C_6  and  O_7
REMARK    6  A    between atoms: C_12  and  C_13
REMARK    7  A    between atoms: C_16  and  C_17
REMARK                            x       y       z     vdW  Elec       q    Type
REMARK                         _______ _______ _______ _____ _____    ______ ____
ROOT
ATOM      1  C   UNL     1       5.407   4.990  17.386  0.00  0.00    +0.000 A 
ATOM      2  C   UNL     1       5.024   4.409  18.594  0.00  0.00    +0.000 A 
ATOM      3  N   UNL     1       4.077   4.894  19.413  0.00  0.00    +0.000 NA
ATOM      4  C   UNL     1       3.449   6.022  19.068  0.00  0.00    +0.000 A 
ATOM      5  C   UNL     1       2.486   6.518  19.940  0.00  0.00    +0.000 A 
ATOM      6  C   UNL     1       1.780   7.694  19.675  0.00  0.00    +0.000 A 
ATOM      7  C   UNL     1       2.038   8.408  18.513  0.00  0.00    +0.000 A 
ATOM      8  C   UNL     1       1.300   9.670  18.178  0.00  0.00    +0.000 C 
ATOM      9  C   UNL     1       2.999   7.913  17.624  0.00  0.00    +0.000 A 
ATOM     10  C   UNL     1       3.723   6.719  17.876  0.00  0.00    +0.000 A 
ATOM     11  C   UNL     1       4.713   6.171  17.004  0.00  0.00    +0.000 A 
ATOM     12  C   UNL     1       5.051   6.869  15.704  0.00  0.00    +0.000 C 
ENDROOT
BRANCH   2  13
ATOM     13  O   UNL     1       5.577   3.259  19.082  0.00  0.00    +0.000 OA
ATOM     14  H   UNL     1       5.221   2.505  18.595  0.00  0.00    +0.000 HD
ENDBRANCH   2  13
BRANCH   1  15
ATOM     15  C   UNL     1       6.479   4.378  16.502  0.00  0.00    +0.000 C 
BRANCH  15  16
ATOM     16  C   UNL     1       5.910   3.607  15.304  0.00  0.00    +0.000 C 
BRANCH  16  18
ATOM     17  C   UNL     1       5.663   3.583  12.810  0.00  0.00    +0.000 C 
ATOM     18  C   UNL     1       6.515   4.061  13.977  0.00  0.00    +0.000 C 
ENDBRANCH  16  18
ENDBRANCH  15  16
ENDBRANCH   1  15
TORSDOF 4
ENDMDL
MODEL 6
REMARK VINA RESULT:      -6.8      2.577      3.436
REMARK  Name = 
REMARK  7 active torsions:
REMARK  status: ('A' for Active; 'I' for Inactive)
REMARK    1  A    between atoms: C_1  and  C_2
REMARK    2  A    between atoms: C_2  and  C_3
REMARK    3  A    between atoms: C_3  and  C_4
REMARK    4  A    between atoms: C_4  and  C_5
REMARK    5  A    between atoms: C_6  and  O_7
REMARK    6  A    between atoms: C_12  and  C_13
REMARK    7  A    between atoms: C_16  and  C_17
REMARK                            x       y       z     vdW  Elec       q    Type
REMARK                         _______ _______ _______ _____ _____    ______ ____
ROOT
ATOM      1  C   UNL     1       4.693   4.290  18.567  0.00  0.00    +0.000 A 
ATOM      2  C   UNL     1       5.952   4.875  18.699  0.00  0.00    +0.000 A 
ATOM      3  N   UNL     1       6.807   5.094  17.688  0.00  0.00    +0.000 NA
ATOM      4  C   UNL     1       6.449   4.723  16.454  0.00  0.00    +0.000 A 
ATOM      5  C   UNL     1       7.357   4.942  15.424  0.00  0.00    +0.000 A 
ATOM      6  C   UNL     1       7.082   4.581  14.103  0.00  0.00    +0.000 A 
ATOM      7  C   UNL     1       5.870   3.980  13.789  0.00  0.00    +0.000 A 
ATOM      8  C   UNL     1       5.524   3.584  12.385  0.00  0.00    +0.000 C 
ATOM      9  C   UNL     1       4.945   3.763  14.817  0.00  0.00    +0.000 A 
ATOM     10  C   UNL     1       5.208   4.126  16.163  0.00  0.00    +0.000 A 
ATOM     11  C   UNL     1       4.300   3.927  17.249  0.00  0.00    +0.000 A 
ATOM     12  C   UNL     1       2.948   3.294  17.002  0.00  0.00    +0.000 C 
ENDROOT
BRANCH   2  13
ATOM     13  O   UNL     1       6.459   5.302  19.894  0.00  0.00    +0.000 OA
ATOM     14  H   UNL     1       7.386   5.041  19.956  0.00  0.00    +0.000 HD
ENDBRANCH   2  13
BRANCH   1  15
ATOM     15  C   UNL     1       3.772   4.083  19.755  0.00  0.00    +0.000 C 
BRANCH  15  16
ATOM     16  C   UNL     1       2.915   5.314  20.079  0.00  0.00    +0.000 C 
BRANCH  16  18
ATOM     17  C   UNL     1       1.339   3.429  20.578  0.00  0.00    +0.000 C 
ATOM     18  C   UNL     1       1.490   4.941  20.487  0.00  0.00    +0.000 C 
ENDBRANCH  16  18
ENDBRANCH  15  16
ENDBRANCH   1  15
TORSDOF 4
ENDMDL
MODEL 7
REMARK VINA RESULT:      -6.6      2.026      5.664
REMARK  Name = 
REMARK  7 active torsions:
REMARK  status: ('A' for Active; 'I' for Inactive)
REMARK    1  A    between atoms: C_1  and  C_2
REMARK    2  A    between atoms: C_2  and  C_3
REMARK    3  A    between atoms: C_3  and  C_4
REMARK    4  A    between atoms: C_4  and  C_5
REMARK    5  A    between atoms: C_6  and  O_7
REMARK    6  A    between atoms: C_12  and  C_13
REMARK    7  A    between atoms: C_16  and  C_17
REMARK                            x       y       z     vdW  Elec       q    Type
REMARK                         _______ _______ _______ _____ _____    ______ ____
ROOT
ATOM      1  C   UNL     1       5.912   6.006  17.832  0.00  0.00    +0.000 A 
ATOM      2  C   UNL     1       6.589   4.844  18.198  0.00  0.00    +0.000 A 
ATOM      3  N   UNL     1       6.029   3.788  18.809  0.00  0.00    +0.000 NA
ATOM      4  C   UNL     1       4.727   3.837  19.106  0.00  0.00    +0.000 A 
ATOM      5  C   UNL     1       4.170   2.742  19.756  0.00  0.00    +0.000 A 
ATOM      6  C   UNL     1       2.822   2.699  20.118  0.00  0.00    +0.000 A 
ATOM      7  C   UNL     1       1.996   3.778  19.833  0.00  0.00    +0.000 A 
ATOM      8  C   UNL     1       0.539   3.776  20.191  0.00  0.00    +0.000 C 
ATOM      9  C   UNL     1       2.543   4.883  19.171  0.00  0.00    +0.000 A 
ATOM     10  C   UNL     1       3.910   4.941  18.794  0.00  0.00    +0.000 A 
ATOM     11  C   UNL     1       4.519   6.042  18.118  0.00  0.00    +0.000 A 
ATOM     12  C   UNL     1       3.695   7.257  17.749  0.00  0.00    +0.000 C 
ENDROOT
BRANCH   2  13
ATOM     13  O   UNL     1       7.922   4.648  17.965  0.00  0.00    +0.000 OA
ATOM     14  H   UNL     1       8.313   4.199  18.725  0.00  0.00    +0.000 HD
ENDBRANCH   2  13
BRANCH   1  15
ATOM     15  C   UNL     1       6.608   7.158  17.131  0.00  0.00    +0.000 C 
BRANCH  15  16
ATOM     16  C   UNL     1       7.819   7.696  17.905  0.00  0.00    +0.000 C 
BRANCH  16  18
ATOM     17  C   UNL     1       8.912   9.761  18.812  0.00  0.00    +0.000 C 
ATOM     18  C   UNL     1       8.003   9.202  17.726  0.00  0.00    +0.000 C 
ENDBRANCH  16  18
ENDBRANCH  15  16
ENDBRANCH   1  15
TORSDOF 4
ENDMDL
MODEL 8
REMARK VINA RESULT:      -6.6      1.544      4.737
REMARK  Name = 
REMARK  7 active torsions:
REMARK  status: ('A' for Active; 'I' for Inactive)
REMARK    1  A    between atoms: C_1  and  C_2
REMARK    2  A    between atoms: C_2  and  C_3
REMARK    3  A    between atoms: C_3  and  C_4
REMARK    4  A    between atoms: C_4  and  C_5
REMARK    5  A    between atoms: C_6  and  O_7
REMARK    6  A    between atoms: C_12  and  C_13
REMARK    7  A    between atoms: C_16  and  C_17
REMARK                            x       y       z     vdW  Elec       q    Type
REMARK                         _______ _______ _______ _____ _____    ______ ____
ROOT
ATOM      1  C   UNL     1       4.528   4.459  17.187  0.00  0.00    +0.000 A 
ATOM      2  C   UNL     1       4.049   3.362  17.903  0.00  0.00    +0.000 A 
ATOM      3  N   UNL     1       3.197   3.434  18.938  0.00  0.00    +0.000 NA
ATOM      4  C   UNL     1       2.770   4.637  19.335  0.00  0.00    +0.000 A 
ATOM      5  C   UNL     1       1.904   4.690  20.420  0.00  0.00    +0.000 A 
ATOM      6  C   UNL     1       1.409   5.898  20.917  0.00  0.00    +0.000 A 
ATOM      7  C   UNL     1       1.787   7.095  20.324  0.00  0.00    +0.000 A 
ATOM      8  C   UNL     1       1.275   8.417  20.813  0.00  0.00    +0.000 C 
ATOM      9  C   UNL     1       2.652   7.053  19.225  0.00  0.00    +0.000 A 
ATOM     10  C   UNL     1       3.161   5.835  18.706  0.00  0.00    +0.000 A 
ATOM     11  C   UNL     1       4.046   5.735  17.589  0.00  0.00    +0.000 A 
ATOM     12  C   UNL     1       4.501   6.986  16.866  0.00  0.00    +0.000 C 
ENDROOT
BRANCH   2  13
ATOM     13  O   UNL     1       4.397   2.072  17.620  0.00  0.00    +0.000 OA
ATOM     14  H   UNL     1       3.936   1.788  16.821  0.00  0.00    +0.000 HD
ENDBRANCH   2  13
BRANCH   1  15
ATOM     15  C   UNL     1       5.482   4.303  16.017  0.00  0.00    +0.000 C 
BRANCH  15  16
ATOM     16  C   UNL     1       6.850   4.954  16.260  0.00  0.00    +0.000 C 
BRANCH  16  18
ATOM     17  C   UNL     1       7.662   5.764  18.489  0.00  0.00    +0.000 C 
ATOM     18  C   UNL     1       7.461   4.545  17.599  0.00  0.00    +0.000 C 
ENDBRANCH  16  18
ENDBRANCH  15  16
ENDBRANCH   1  15
TORSDOF 4
ENDMDL
MODEL 9
REMARK VINA RESULT:      -6.6      1.380      1.584
REMARK  Name = 
REMARK  7 active torsions:
REMARK  status: ('A' for Active; 'I' for Inactive)
REMARK    1  A    between atoms: C_1  and  C_2
REMARK    2  A    between atoms: C_2  and  C_3
REMARK    3  A    between atoms: C_3  and  C_4
REMARK    4  A    between atoms: C_4  and  C_5
REMARK    5  A    between atoms: C_6  and  O_7
REMARK    6  A    between atoms: C_12  and  C_13
REMARK    7  A    between atoms: C_16  and  C_17
REMARK                            x       y       z     vdW  Elec       q    Type
REMARK                         _______ _______ _______ _____ _____    ______ ____
ROOT
ATOM      1  C   UNL     1       3.706   4.514  18.227  0.00  0.00    +0.000 A 
ATOM      2  C   UNL     1       4.645   3.652  18.794  0.00  0.00    +0.000 A 
ATOM      3  N   UNL     1       5.932   3.958  19.017  0.00  0.00    +0.000 NA
ATOM      4  C   UNL     1       6.371   5.172  18.668  0.00  0.00    +0.000 A 
ATOM      5  C   UNL     1       7.713   5.463  18.889  0.00  0.00    +0.000 A 
ATOM      6  C   UNL     1       8.270   6.698  18.552  0.00  0.00    +0.000 A 
ATOM      7  C   UNL     1       7.477   7.678  17.971  0.00  0.00    +0.000 A 
ATOM      8  C   UNL     1       8.026   9.024  17.601  0.00  0.00    +0.000 C 
ATOM      9  C   UNL     1       6.123   7.400  17.752  0.00  0.00    +0.000 A 
ATOM     10  C   UNL     1       5.540   6.152  18.092  0.00  0.00    +0.000 A 
ATOM     11  C   UNL     1       4.167   5.816  17.889  0.00  0.00    +0.000 A 
ATOM     12  C   UNL     1       3.220   6.827  17.277  0.00  0.00    +0.000 C 
ENDROOT
BRANCH   2  13
ATOM     13  O   UNL     1       4.348   2.380  19.197  0.00  0.00    +0.000 OA
ATOM     14  H   UNL     1       4.034   1.873  18.438  0.00  0.00    +0.000 HD
ENDBRANCH   2  13
BRANCH   1  15
ATOM     15  C   UNL     1       2.260   4.104  18.016  0.00  0.00    +0.000 C 
BRANCH  15  16
ATOM     16  C   UNL     1       1.386   4.299  19.262  0.00  0.00    +0.000 C 
BRANCH  16  18
ATOM     17  C   UNL     1       1.399   2.820  21.286  0.00  0.00    +0.000 C 
ATOM     18  C   UNL     1       0.908   2.973  19.853  0.00  0.00    +0.000 C 
ENDBRANCH  16  18
ENDBRANCH  15  16
ENDBRANCH   1  15
TORSDOF 4
ENDMDL
