MODEL 1
REMARK VINA RESULT:      -8.5      0.000      0.000
REMARK  Name = 
REMARK  3 active torsions:
REMARK  status: ('A' for Active; 'I' for Inactive)
REMARK    1  A    between atoms: C_1  and  C_2
REMARK    2  A    between atoms: N_4  and  C_5
REMARK    3  A    between atoms: N_12  and  C_13
REMARK                            x       y       z     vdW  Elec       q    Type
REMARK                         _______ _______ _______ _____ _____    ______ ____
ROOT
ATOM      1  C   UNL     1       2.419   7.596  19.220  0.00  0.00    +0.000 A 
ATOM      2  C   UNL     1       2.791   8.387  18.121  0.00  0.00    +0.000 A 
ATOM      3  C   UNL     1       3.616   7.886  17.112  0.00  0.00    +0.000 A 
ATOM      4  C   UNL     1       4.014   6.560  17.179  0.00  0.00    +0.000 A 
ATOM      5  C   UNL     1       3.598   5.741  18.244  0.00  0.00    +0.000 A 
ATOM      6  C   UNL     1       2.887   6.278  19.311  0.00  0.00    +0.000 A 
ATOM      7  C   UNL     1       4.030   4.348  17.910  0.00  0.00    +0.000 C 
ATOM      8  N   UNL     1       3.747   3.181  18.401  0.00  0.00    +0.000 NA
ATOM      9  C   UNL     1       4.890   4.469  16.705  0.00  0.00    +0.000 A 
ATOM     10  C   UNL     1       5.620   3.501  16.040  0.00  0.00    +0.000 A 
ATOM     11  C   UNL     1       6.355   3.903  14.920  0.00  0.00    +0.000 A 
ATOM     12  C   UNL     1       6.334   5.242  14.491  0.00  0.00    +0.000 A 
ATOM     13  C   UNL     1       5.571   6.201  15.169  0.00  0.00    +0.000 A 
ATOM     14  C   UNL     1       4.846   5.804  16.279  0.00  0.00    +0.000 A 
ENDROOT
BRANCH   8  15
ATOM     15  C   UNL     1       2.864   2.944  19.463  0.00  0.00    +0.000 A 
ATOM     16  C   UNL     1       1.475   2.905  19.316  0.00  0.00    +0.000 A 
ATOM     17  C   UNL     1       0.640   2.784  20.430  0.00  0.00    +0.000 A 
ATOM     18  C   UNL     1       1.190   2.562  21.689  0.00  0.00    +0.000 A 
ATOM     19  C   UNL     1       2.570   2.443  21.825  0.00  0.00    +0.000 A 
ATOM     20  C   UNL     1       3.401   2.644  20.718  0.00  0.00    +0.000 A 
ENDBRANCH   8  15
BRANCH   1  24
ATOM     21  C   UNL     1       0.057   9.451  21.515  0.00  0.00    +0.000 C 
ATOM     22  C   UNL     1       0.812   9.226  20.229  0.00  0.00    +0.000 C 
ATOM     23  O   UNL     1       0.719  10.025  19.304  0.00  0.00    +0.000 OA
ATOM     24  N   UNL     1       1.567   8.063  20.249  0.00  0.00    +0.000 N 
ATOM     25  H   UNL     1       1.404   7.428  21.021  0.00  0.00    +0.000 HD
ENDBRANCH   1  24
TORSDOF 2
ENDMDL
MODEL 2
REMARK VINA RESULT:      -7.6      0.985      1.388
REMARK  Name = 
REMARK  3 active torsions:
REMARK  status: ('A' for Active; 'I' for Inactive)
REMARK    1  A    between atoms: C_1  and  C_2
REMARK    2  A    between atoms: N_4  and  C_5
REMARK    3  A    between atoms: N_12  and  C_13
REMARK                            x       y       z     vdW  Elec       q    Type
REMARK                         _______ _______ _______ _____ _____    ______ ____
ROOT
ATOM      1  C   UNL     1       2.544   7.725  18.913  0.00  0.00    +0.000 A 
ATOM      2  C   UNL     1       2.932   8.445  17.771  0.00  0.00    +0.000 A 
ATOM      3  C   UNL     1       3.761   7.877  16.802  0.00  0.00    +0.000 A 
ATOM      4  C   UNL     1       4.147   6.554  16.952  0.00  0.00    +0.000 A 
ATOM      5  C   UNL     1       3.714   5.804  18.061  0.00  0.00    +0.000 A 
ATOM      6  C   UNL     1       2.999   6.411  19.087  0.00  0.00    +0.000 A 
ATOM      7  C   UNL     1       4.136   4.390  17.815  0.00  0.00    +0.000 C 
ATOM      8  N   UNL     1       3.838   3.257  18.373  0.00  0.00    +0.000 NA
ATOM      9  C   UNL     1       5.007   4.431  16.613  0.00  0.00    +0.000 A 
ATOM     10  C   UNL     1       5.734   3.418  16.013  0.00  0.00    +0.000 A 
ATOM     11  C   UNL     1       6.482   3.746  14.878  0.00  0.00    +0.000 A 
ATOM     12  C   UNL     1       6.477   5.057  14.369  0.00  0.00    +0.000 A 
ATOM     13  C   UNL     1       5.717   6.061  14.982  0.00  0.00    +0.000 A 
ATOM     14  C   UNL     1       4.979   5.738  16.107  0.00  0.00    +0.000 A 
ENDROOT
BRANCH   8  15
ATOM     15  C   UNL     1       2.944   3.093  19.439  0.00  0.00    +0.000 A 
ATOM     16  C   UNL     1       3.349   2.959  20.771  0.00  0.00    +0.000 A 
ATOM     17  C   UNL     1       2.420   2.678  21.777  0.00  0.00    +0.000 A 
ATOM     18  C   UNL     1       1.061   2.666  21.482  0.00  0.00    +0.000 A 
ATOM     19  C   UNL     1       0.634   2.952  20.188  0.00  0.00    +0.000 A 
ATOM     20  C   UNL     1       1.574   3.155  19.172  0.00  0.00    +0.000 A 
ENDBRANCH   8  15
BRANCH   1  24
ATOM     21  C   UNL     1       0.194   8.427  21.788  0.00  0.00    +0.000 C 
ATOM     22  C   UNL     1       1.094   7.561  20.944  0.00  0.00    +0.000 C 
ATOM     23  O   UNL     1       1.241   6.372  21.209  0.00  0.00    +0.000 OA
ATOM     24  N   UNL     1       1.687   8.260  19.904  0.00  0.00    +0.000 N 
ATOM     25  H   UNL     1       1.595   9.269  19.924  0.00  0.00    +0.000 HD
ENDBRANCH   1  24
TORSDOF 2
ENDMDL
MODEL 3
REMARK VINA RESULT:      -7.5      4.271      8.329
REMARK  Name = 
REMARK  3 active torsions:
REMARK  status: ('A' for Active; 'I' for Inactive)
REMARK    1  A    between atoms: C_1  and  C_2
REMARK    2  A    between atoms: N_4  and  C_5
REMARK    3  A    between atoms: N_12  and  C_13
REMARK                            x       y       z     vdW  Elec       q    Type
REMARK                         _______ _______ _______ _____ _____    ______ ____
ROOT
ATOM      1  C   UNL     1      -0.932  11.404  22.678  0.00  0.00    +0.000 A 
ATOM      2  C   UNL     1      -0.650  10.131  23.200  0.00  0.00    +0.000 A 
ATOM      3  C   UNL     1       0.037   9.175  22.450  0.00  0.00    +0.000 A 
ATOM      4  C   UNL     1       0.499   9.525  21.191  0.00  0.00    +0.000 A 
ATOM      5  C   UNL     1       0.275  10.817  20.681  0.00  0.00    +0.000 A 
ATOM      6  C   UNL     1      -0.521  11.721  21.376  0.00  0.00    +0.000 A 
ATOM      7  C   UNL     1       1.061  10.921  19.413  0.00  0.00    +0.000 C 
ATOM      8  N   UNL     1       1.396  11.914  18.647  0.00  0.00    +0.000 NA
ATOM      9  C   UNL     1       1.567   9.553  19.136  0.00  0.00    +0.000 A 
ATOM     10  C   UNL     1       2.269   9.074  18.045  0.00  0.00    +0.000 A 
ATOM     11  C   UNL     1       2.617   7.719  18.046  0.00  0.00    +0.000 A 
ATOM     12  C   UNL     1       2.271   6.890  19.128  0.00  0.00    +0.000 A 
ATOM     13  C   UNL     1       1.577   7.402  20.231  0.00  0.00    +0.000 A 
ATOM     14  C   UNL     1       1.230   8.742  20.229  0.00  0.00    +0.000 A 
ENDROOT
BRANCH   8  15
ATOM     15  C   UNL     1       1.068  13.256  18.874  0.00  0.00    +0.000 A 
ATOM     16  C   UNL     1      -0.170  13.814  18.541  0.00  0.00    +0.000 A 
ATOM     17  C   UNL     1      -0.399  15.185  18.682  0.00  0.00    +0.000 A 
ATOM     18  C   UNL     1       0.561  15.990  19.286  0.00  0.00    +0.000 A 
ATOM     19  C   UNL     1       1.737  15.418  19.765  0.00  0.00    +0.000 A 
ATOM     20  C   UNL     1       1.990  14.060  19.549  0.00  0.00    +0.000 A 
ENDBRANCH   8  15
BRANCH   1  24
ATOM     21  C   UNL     1      -3.338  13.866  24.237  0.00  0.00    +0.000 C 
ATOM     22  C   UNL     1      -2.959  12.701  23.359  0.00  0.00    +0.000 C 
ATOM     23  O   UNL     1      -3.810  12.119  22.694  0.00  0.00    +0.000 OA
ATOM     24  N   UNL     1      -1.606  12.406  23.416  0.00  0.00    +0.000 N 
ATOM     25  H   UNL     1      -1.069  12.870  24.139  0.00  0.00    +0.000 HD
ENDBRANCH   1  24
TORSDOF 2
ENDMDL
MODEL 4
REMARK VINA RESULT:      -7.5      4.084      8.204
REMARK  Name = 
REMARK  3 active torsions:
REMARK  status: ('A' for Active; 'I' for Inactive)
REMARK    1  A    between atoms: C_1  and  C_2
REMARK    2  A    between atoms: N_4  and  C_5
REMARK    3  A    between atoms: N_12  and  C_13
REMARK                            x       y       z     vdW  Elec       q    Type
REMARK                         _______ _______ _______ _____ _____    ______ ____
ROOT
ATOM      1  C   UNL     1      -0.852  11.351  22.677  0.00  0.00    +0.000 A 
ATOM      2  C   UNL     1      -0.623  10.101  23.275  0.00  0.00    +0.000 A 
ATOM      3  C   UNL     1       0.033   9.078  22.588  0.00  0.00    +0.000 A 
ATOM      4  C   UNL     1       0.517   9.336  21.315  0.00  0.00    +0.000 A 
ATOM      5  C   UNL     1       0.347  10.604  20.729  0.00  0.00    +0.000 A 
ATOM      6  C   UNL     1      -0.419  11.577  21.363  0.00  0.00    +0.000 A 
ATOM      7  C   UNL     1       1.146  10.605  19.465  0.00  0.00    +0.000 C 
ATOM      8  N   UNL     1       1.524  11.538  18.646  0.00  0.00    +0.000 NA
ATOM      9  C   UNL     1       1.600   9.204  19.272  0.00  0.00    +0.000 A 
ATOM     10  C   UNL     1       2.292   8.637  18.217  0.00  0.00    +0.000 A 
ATOM     11  C   UNL     1       2.587   7.272  18.300  0.00  0.00    +0.000 A 
ATOM     12  C   UNL     1       2.201   6.521  19.424  0.00  0.00    +0.000 A 
ATOM     13  C   UNL     1       1.520   7.122  20.489  0.00  0.00    +0.000 A 
ATOM     14  C   UNL     1       1.225   8.472  20.407  0.00  0.00    +0.000 A 
ENDROOT
BRANCH   8  15
ATOM     15  C   UNL     1       1.246  12.903  18.792  0.00  0.00    +0.000 A 
ATOM     16  C   UNL     1       2.181  13.836  19.250  0.00  0.00    +0.000 A 
ATOM     17  C   UNL     1       1.811  15.162  19.489  0.00  0.00    +0.000 A 
ATOM     18  C   UNL     1       0.538  15.601  19.142  0.00  0.00    +0.000 A 
ATOM     19  C   UNL     1      -0.354  14.718  18.539  0.00  0.00    +0.000 A 
ATOM     20  C   UNL     1      -0.002  13.374  18.376  0.00  0.00    +0.000 A 
ENDBRANCH   8  15
BRANCH   1  24
ATOM     21  C   UNL     1      -3.182  13.966  24.096  0.00  0.00    +0.000 C 
ATOM     22  C   UNL     1      -2.843  12.728  23.305  0.00  0.00    +0.000 C 
ATOM     23  O   UNL     1      -3.719  12.109  22.712  0.00  0.00    +0.000 OA
ATOM     24  N   UNL     1      -1.492  12.419  23.350  0.00  0.00    +0.000 N 
ATOM     25  H   UNL     1      -0.930  12.931  24.019  0.00  0.00    +0.000 HD
ENDBRANCH   1  24
TORSDOF 2
ENDMDL
MODEL 5
REMARK VINA RESULT:      -7.3      2.828      6.864
REMARK  Name = 
REMARK  3 active torsions:
REMARK  status: ('A' for Active; 'I' for Inactive)
REMARK    1  A    between atoms: C_1  and  C_2
REMARK    2  A    between atoms: N_4  and  C_5
REMARK    3  A    between atoms: N_12  and  C_13
REMARK                            x       y       z     vdW  Elec       q    Type
REMARK                         _______ _______ _______ _____ _____    ______ ____
ROOT
ATOM      1  C   UNL     1       3.972   2.521  20.263  0.00  0.00    +0.000 A 
ATOM      2  C   UNL     1       2.856   2.622  21.110  0.00  0.00    +0.000 A 
ATOM      3  C   UNL     1       2.149   3.819  21.239  0.00  0.00    +0.000 A 
ATOM      4  C   UNL     1       2.530   4.902  20.463  0.00  0.00    +0.000 A 
ATOM      5  C   UNL     1       3.608   4.795  19.566  0.00  0.00    +0.000 A 
ATOM      6  C   UNL     1       4.389   3.644  19.535  0.00  0.00    +0.000 A 
ATOM      7  C   UNL     1       3.622   6.053  18.758  0.00  0.00    +0.000 C 
ATOM      8  N   UNL     1       4.238   6.415  17.674  0.00  0.00    +0.000 NA
ATOM      9  C   UNL     1       2.626   6.953  19.393  0.00  0.00    +0.000 A 
ATOM     10  C   UNL     1       2.310   8.268  19.101  0.00  0.00    +0.000 A 
ATOM     11  C   UNL     1       1.320   8.881  19.876  0.00  0.00    +0.000 A 
ATOM     12  C   UNL     1       0.669   8.171  20.901  0.00  0.00    +0.000 A 
ATOM     13  C   UNL     1       0.992   6.834  21.164  0.00  0.00    +0.000 A 
ATOM     14  C   UNL     1       1.973   6.228  20.400  0.00  0.00    +0.000 A 
ENDROOT
BRANCH   8  15
ATOM     15  C   UNL     1       5.112   5.607  16.935  0.00  0.00    +0.000 A 
ATOM     16  C   UNL     1       6.491   5.558  17.158  0.00  0.00    +0.000 A 
ATOM     17  C   UNL     1       7.328   4.826  16.313  0.00  0.00    +0.000 A 
ATOM     18  C   UNL     1       6.779   4.023  15.318  0.00  0.00    +0.000 A 
ATOM     19  C   UNL     1       5.396   3.942  15.185  0.00  0.00    +0.000 A 
ATOM     20  C   UNL     1       4.570   4.738  15.984  0.00  0.00    +0.000 A 
ENDBRANCH   8  15
BRANCH   1  24
ATOM     21  C   UNL     1       6.170  -0.543  20.501  0.00  0.00    +0.000 C 
ATOM     22  C   UNL     1       5.494   0.693  21.036  0.00  0.00    +0.000 C 
ATOM     23  O   UNL     1       5.671   1.047  22.196  0.00  0.00    +0.000 OA
ATOM     24  N   UNL     1       4.698   1.319  20.088  0.00  0.00    +0.000 N 
ATOM     25  H   UNL     1       4.526   0.809  19.230  0.00  0.00    +0.000 HD
ENDBRANCH   1  24
TORSDOF 2
ENDMDL
MODEL 6
REMARK VINA RESULT:      -7.3      2.461      6.398
REMARK  Name = 
REMARK  3 active torsions:
REMARK  status: ('A' for Active; 'I' for Inactive)
REMARK    1  A    between atoms: C_1  and  C_2
REMARK    2  A    between atoms: N_4  and  C_5
REMARK    3  A    between atoms: N_12  and  C_13
REMARK                            x       y       z     vdW  Elec       q    Type
REMARK                         _______ _______ _______ _____ _____    ______ ____
ROOT
ATOM      1  C   UNL     1       3.474   4.038  20.135  0.00  0.00    +0.000 A 
ATOM      2  C   UNL     1       2.289   4.346  20.823  0.00  0.00    +0.000 A 
ATOM      3  C   UNL     1       1.661   5.583  20.669  0.00  0.00    +0.000 A 
ATOM      4  C   UNL     1       2.195   6.491  19.768  0.00  0.00    +0.000 A 
ATOM      5  C   UNL     1       3.347   6.170  19.028  0.00  0.00    +0.000 A 
ATOM      6  C   UNL     1       4.042   4.992  19.279  0.00  0.00    +0.000 A 
ATOM      7  C   UNL     1       3.534   7.265  18.025  0.00  0.00    +0.000 C 
ATOM      8  N   UNL     1       4.279   7.396  16.972  0.00  0.00    +0.000 NA
ATOM      9  C   UNL     1       2.546   8.314  18.384  0.00  0.00    +0.000 A 
ATOM     10  C   UNL     1       2.357   9.572  17.841  0.00  0.00    +0.000 A 
ATOM     11  C   UNL     1       1.341  10.364  18.386  0.00  0.00    +0.000 A 
ATOM     12  C   UNL     1       0.540   9.881  19.437  0.00  0.00    +0.000 A 
ATOM     13  C   UNL     1       0.738   8.596  19.957  0.00  0.00    +0.000 A 
ATOM     14  C   UNL     1       1.745   7.814  19.420  0.00  0.00    +0.000 A 
ENDROOT
BRANCH   8  15
ATOM     15  C   UNL     1       5.163   6.426  16.482  0.00  0.00    +0.000 A 
ATOM     16  C   UNL     1       4.866   5.587  15.403  0.00  0.00    +0.000 A 
ATOM     17  C   UNL     1       5.738   4.559  15.035  0.00  0.00    +0.000 A 
ATOM     18  C   UNL     1       6.979   4.446  15.653  0.00  0.00    +0.000 A 
ATOM     19  C   UNL     1       7.351   5.372  16.624  0.00  0.00    +0.000 A 
ATOM     20  C   UNL     1       6.441   6.350  17.040  0.00  0.00    +0.000 A 
ENDBRANCH   8  15
BRANCH   1  24
ATOM     21  C   UNL     1       4.855   0.538  19.782  0.00  0.00    +0.000 C 
ATOM     22  C   UNL     1       4.096   1.756  19.321  0.00  0.00    +0.000 C 
ATOM     23  O   UNL     1       3.537   1.766  18.230  0.00  0.00    +0.000 OA
ATOM     24  N   UNL     1       4.126   2.787  20.248  0.00  0.00    +0.000 N 
ATOM     25  H   UNL     1       4.769   2.683  21.024  0.00  0.00    +0.000 HD
ENDBRANCH   1  24
TORSDOF 2
ENDMDL
MODEL 7
REMARK VINA RESULT:      -7.2      3.905      7.993
REMARK  Name = 
REMARK  3 active torsions:
REMARK  status: ('A' for Active; 'I' for Inactive)
REMARK    1  A    between atoms: C_1  and  C_2
REMARK    2  A    between atoms: N_4  and  C_5
REMARK    3  A    between atoms: N_12  and  C_13
REMARK                            x       y       z     vdW  Elec       q    Type
REMARK                         _______ _______ _______ _____ _____    ______ ____
ROOT
ATOM      1  C   UNL     1      -0.780  11.161  22.543  0.00  0.00    +0.000 A 
ATOM      2  C   UNL     1      -0.523   9.927  23.163  0.00  0.00    +0.000 A 
ATOM      3  C   UNL     1       0.156   8.907  22.493  0.00  0.00    +0.000 A 
ATOM      4  C   UNL     1       0.635   9.154  21.216  0.00  0.00    +0.000 A 
ATOM      5  C   UNL     1       0.436  10.408  20.609  0.00  0.00    +0.000 A 
ATOM      6  C   UNL     1      -0.351  11.374  21.226  0.00  0.00    +0.000 A 
ATOM      7  C   UNL     1       1.236  10.405  19.345  0.00  0.00    +0.000 C 
ATOM      8  N   UNL     1       1.594  11.332  18.510  0.00  0.00    +0.000 NA
ATOM      9  C   UNL     1       1.722   9.012  19.176  0.00  0.00    +0.000 A 
ATOM     10  C   UNL     1       2.426   8.442  18.131  0.00  0.00    +0.000 A 
ATOM     11  C   UNL     1       2.752   7.086  18.237  0.00  0.00    +0.000 A 
ATOM     12  C   UNL     1       2.382   6.345  19.374  0.00  0.00    +0.000 A 
ATOM     13  C   UNL     1       1.687   6.949  20.428  0.00  0.00    +0.000 A 
ATOM     14  C   UNL     1       1.362   8.290  20.323  0.00  0.00    +0.000 A 
ENDROOT
BRANCH   8  15
ATOM     15  C   UNL     1       1.285  12.693  18.633  0.00  0.00    +0.000 A 
ATOM     16  C   UNL     1       2.230  13.672  18.952  0.00  0.00    +0.000 A 
ATOM     17  C   UNL     1       1.842  14.995  19.179  0.00  0.00    +0.000 A 
ATOM     18  C   UNL     1       0.524  15.380  18.952  0.00  0.00    +0.000 A 
ATOM     19  C   UNL     1      -0.395  14.445  18.483  0.00  0.00    +0.000 A 
ATOM     20  C   UNL     1      -0.016  13.107  18.335  0.00  0.00    +0.000 A 
ENDBRANCH   8  15
BRANCH   1  24
ATOM     21  C   UNL     1      -1.921  14.398  24.124  0.00  0.00    +0.000 C 
ATOM     22  C   UNL     1      -0.991  13.531  23.313  0.00  0.00    +0.000 C 
ATOM     23  O   UNL     1       0.037  13.998  22.834  0.00  0.00    +0.000 OA
ATOM     24  N   UNL     1      -1.444  12.225  23.198  0.00  0.00    +0.000 N 
ATOM     25  H   UNL     1      -2.391  12.043  23.508  0.00  0.00    +0.000 HD
ENDBRANCH   1  24
TORSDOF 2
ENDMDL
MODEL 8
REMARK VINA RESULT:      -7.1      9.492     10.166
REMARK  Name = 
REMARK  3 active torsions:
REMARK  status: ('A' for Active; 'I' for Inactive)
REMARK    1  A    between atoms: C_1  and  C_2
REMARK    2  A    between atoms: N_4  and  C_5
REMARK    3  A    between atoms: N_12  and  C_13
REMARK                            x       y       z     vdW  Elec       q    Type
REMARK                         _______ _______ _______ _____ _____    ______ ____
ROOT
ATOM      1  C   UNL     1       6.288  15.150  19.597  0.00  0.00    +0.000 A 
ATOM      2  C   UNL     1       6.622  14.998  18.242  0.00  0.00    +0.000 A 
ATOM      3  C   UNL     1       7.793  14.346  17.852  0.00  0.00    +0.000 A 
ATOM      4  C   UNL     1       8.600  13.788  18.832  0.00  0.00    +0.000 A 
ATOM      5  C   UNL     1       8.244  13.881  20.190  0.00  0.00    +0.000 A 
ATOM      6  C   UNL     1       7.148  14.643  20.581  0.00  0.00    +0.000 A 
ATOM      7  C   UNL     1       9.204  13.019  20.946  0.00  0.00    +0.000 C 
ATOM      8  N   UNL     1       9.232  12.565  22.162  0.00  0.00    +0.000 NA
ATOM      9  C   UNL     1      10.238  12.607  19.964  0.00  0.00    +0.000 A 
ATOM     10  C   UNL     1      11.401  11.883  20.157  0.00  0.00    +0.000 A 
ATOM     11  C   UNL     1      12.204  11.642  19.038  0.00  0.00    +0.000 A 
ATOM     12  C   UNL     1      11.825  12.113  17.767  0.00  0.00    +0.000 A 
ATOM     13  C   UNL     1      10.632  12.825  17.594  0.00  0.00    +0.000 A 
ATOM     14  C   UNL     1       9.839  13.067  18.702  0.00  0.00    +0.000 A 
ENDROOT
BRANCH   8  15
ATOM     15  C   UNL     1       8.253  12.801  23.135  0.00  0.00    +0.000 A 
ATOM     16  C   UNL     1       8.262  13.910  23.985  0.00  0.00    +0.000 A 
ATOM     17  C   UNL     1       7.326  14.031  25.015  0.00  0.00    +0.000 A 
ATOM     18  C   UNL     1       6.286  13.113  25.119  0.00  0.00    +0.000 A 
ATOM     19  C   UNL     1       6.176  12.089  24.182  0.00  0.00    +0.000 A 
ATOM     20  C   UNL     1       7.161  11.931  23.202  0.00  0.00    +0.000 A 
ENDBRANCH   8  15
BRANCH   1  24
ATOM     21  C   UNL     1       3.503  17.489  20.625  0.00  0.00    +0.000 C 
ATOM     22  C   UNL     1       4.855  17.150  20.052  0.00  0.00    +0.000 C 
ATOM     23  O   UNL     1       5.608  18.037  19.664  0.00  0.00    +0.000 OA
ATOM     24  N   UNL     1       5.099  15.785  20.029  0.00  0.00    +0.000 N 
ATOM     25  H   UNL     1       4.312  15.179  20.228  0.00  0.00    +0.000 HD
ENDBRANCH   1  24
TORSDOF 2
ENDMDL
MODEL 9
REMARK VINA RESULT:      -7.0      8.255     12.028
REMARK  Name = 
REMARK  3 active torsions:
REMARK  status: ('A' for Active; 'I' for Inactive)
REMARK    1  A    between atoms: C_1  and  C_2
REMARK    2  A    between atoms: N_4  and  C_5
REMARK    3  A    between atoms: N_12  and  C_13
REMARK                            x       y       z     vdW  Elec       q    Type
REMARK                         _______ _______ _______ _____ _____    ______ ____
ROOT
ATOM      1  C   UNL     1      -5.147  11.635  17.646  0.00  0.00    +0.000 A 
ATOM      2  C   UNL     1      -6.535  11.815  17.768  0.00  0.00    +0.000 A 
ATOM      3  C   UNL     1      -7.122  12.116  18.999  0.00  0.00    +0.000 A 
ATOM      4  C   UNL     1      -6.299  12.301  20.099  0.00  0.00    +0.000 A 
ATOM      5  C   UNL     1      -4.903  12.183  19.976  0.00  0.00    +0.000 A 
ATOM      6  C   UNL     1      -4.334  11.756  18.781  0.00  0.00    +0.000 A 
ATOM      7  C   UNL     1      -4.316  12.633  21.276  0.00  0.00    +0.000 C 
ATOM      8  N   UNL     1      -3.113  12.931  21.660  0.00  0.00    +0.000 NA
ATOM      9  C   UNL     1      -5.466  12.808  22.199  0.00  0.00    +0.000 A 
ATOM     10  C   UNL     1      -5.478  13.121  23.547  0.00  0.00    +0.000 A 
ATOM     11  C   UNL     1      -6.724  13.218  24.175  0.00  0.00    +0.000 A 
ATOM     12  C   UNL     1      -7.912  13.016  23.450  0.00  0.00    +0.000 A 
ATOM     13  C   UNL     1      -7.875  12.721  22.082  0.00  0.00    +0.000 A 
ATOM     14  C   UNL     1      -6.643  12.621  21.460  0.00  0.00    +0.000 A 
ENDROOT
BRANCH   8  15
ATOM     15  C   UNL     1      -1.976  12.907  20.843  0.00  0.00    +0.000 A 
ATOM     16  C   UNL     1      -1.539  14.006  20.097  0.00  0.00    +0.000 A 
ATOM     17  C   UNL     1      -0.467  13.888  19.209  0.00  0.00    +0.000 A 
ATOM     18  C   UNL     1       0.266  12.707  19.159  0.00  0.00    +0.000 A 
ATOM     19  C   UNL     1      -0.063  11.656  20.011  0.00  0.00    +0.000 A 
ATOM     20  C   UNL     1      -1.185  11.755  20.840  0.00  0.00    +0.000 A 
ENDBRANCH   8  15
BRANCH   1  24
ATOM     21  C   UNL     1      -3.049  10.382  14.763  0.00  0.00    +0.000 C 
ATOM     22  C   UNL     1      -3.554  10.378  16.184  0.00  0.00    +0.000 C 
ATOM     23  O   UNL     1      -3.119   9.570  16.997  0.00  0.00    +0.000 OA
ATOM     24  N   UNL     1      -4.515  11.352  16.412  0.00  0.00    +0.000 N 
ATOM     25  H   UNL     1      -4.885  11.825  15.597  0.00  0.00    +0.000 HD
ENDBRANCH   1  24
TORSDOF 2
ENDMDL
