MODEL 1
REMARK VINA RESULT:      -8.4      0.000      0.000
REMARK  Name = 
REMARK  6 active torsions:
REMARK  status: ('A' for Active; 'I' for Inactive)
REMARK    1  A    between atoms: C_1  and  C_2
REMARK    2  A    between atoms: C_7  and  C_9
REMARK    3  A    between atoms: C_13  and  S_14
REMARK    4  A    between atoms: S_14  and  N_17
REMARK    5  A    between atoms: N_17  and  C_18
REMARK    6  A    between atoms: C_20  and  C_21
REMARK                            x       y       z     vdW  Elec       q    Type
REMARK                         _______ _______ _______ _____ _____    ______ ____
ROOT
ATOM      1  S   UNL     1       0.167   9.215  21.624  0.00  0.00    +0.000 S 
ATOM      2  O   UNL     1      -0.810   8.174  21.843  0.00  0.00    +0.000 OA
ATOM      3  O   UNL     1       0.990   9.712  22.702  0.00  0.00    +0.000 OA
ENDROOT
BRANCH   1   8
ATOM      4  C   UNL     1       2.675   6.909  19.448  0.00  0.00    +0.000 A 
ATOM      5  C   UNL     1       2.694   7.578  18.215  0.00  0.00    +0.000 A 
ATOM      6  C   UNL     1       1.993   8.774  18.038  0.00  0.00    +0.000 A 
ATOM      7  C   UNL     1       1.251   9.307  19.091  0.00  0.00    +0.000 A 
ATOM      8  C   UNL     1       1.254   8.659  20.330  0.00  0.00    +0.000 A 
ATOM      9  C   UNL     1       1.985   7.482  20.521  0.00  0.00    +0.000 A 
BRANCH   4  16
ATOM     10  C   UNL     1       1.191   3.616  17.364  0.00  0.00    +0.000 C 
ATOM     11  C   UNL     1       1.069   3.054  18.783  0.00  0.00    +0.000 C 
ATOM     12  C   UNL     1       1.943   1.812  18.992  0.00  0.00    +0.000 C 
ATOM     13  C   UNL     1       3.430   2.159  19.040  0.00  0.00    +0.000 C 
ATOM     14  C   UNL     1       3.708   3.258  20.064  0.00  0.00    +0.000 C 
ATOM     15  N   UNL     1       2.850   4.428  19.847  0.00  0.00    +0.000 N 
ATOM     16  C   UNL     1       3.463   5.652  19.573  0.00  0.00    +0.000 C 
ATOM     17  O   UNL     1       4.680   5.758  19.415  0.00  0.00    +0.000 OA
ATOM     18  C   UNL     1       1.413   4.135  19.817  0.00  0.00    +0.000 C 
ENDBRANCH   4  16
ENDBRANCH   1   8
BRANCH   1  19
ATOM     19  N   UNL     1      -0.678  10.501  20.902  0.00  0.00    +0.000 N 
ATOM     20  H   UNL     1      -1.541  10.120  20.503  0.00  0.00    +0.000 HD
BRANCH  19  21
ATOM     21  C   UNL     1      -0.844  11.679  21.698  0.00  0.00    +0.000 A 
ATOM     22  C   UNL     1      -1.976  11.772  22.507  0.00  0.00    +0.000 A 
ATOM     23  C   UNL     1      -2.240  12.943  23.233  0.00  0.00    +0.000 A 
ATOM     24  C   UNL     1      -1.327  14.008  23.166  0.00  0.00    +0.000 A 
ATOM     25  C   UNL     1      -0.192  13.920  22.356  0.00  0.00    +0.000 A 
ATOM     26  C   UNL     1       0.042  12.765  21.608  0.00  0.00    +0.000 A 
ATOM     27 CL   UNL     1       1.436  12.705  20.593  0.00  0.00    +0.000 Cl
BRANCH  23  28
ATOM     28  C   UNL     1      -3.508  13.083  24.044  0.00  0.00    +0.000 C 
ATOM     29  F   UNL     1      -3.955  11.904  24.553  0.00  0.00    +0.000 F 
ATOM     30  F   UNL     1      -3.361  13.923  25.104  0.00  0.00    +0.000 F 
ATOM     31  F   UNL     1      -4.533  13.586  23.302  0.00  0.00    +0.000 F 
ENDBRANCH  23  28
ENDBRANCH  19  21
ENDBRANCH   1  19
TORSDOF 5
ENDMDL
MODEL 2
REMARK VINA RESULT:      -8.3      3.477      4.079
REMARK  Name = 
REMARK  6 active torsions:
REMARK  status: ('A' for Active; 'I' for Inactive)
REMARK    1  A    between atoms: C_1  and  C_2
REMARK    2  A    between atoms: C_7  and  C_9
REMARK    3  A    between atoms: C_13  and  S_14
REMARK    4  A    between atoms: S_14  and  N_17
REMARK    5  A    between atoms: N_17  and  C_18
REMARK    6  A    between atoms: C_20  and  C_21
REMARK                            x       y       z     vdW  Elec       q    Type
REMARK                         _______ _______ _______ _____ _____    ______ ____
ROOT
ATOM      1  S   UNL     1       0.458  10.105  20.928  0.00  0.00    +0.000 S 
ATOM      2  O   UNL     1      -0.824   9.517  21.246  0.00  0.00    +0.000 OA
ATOM      3  O   UNL     1       1.333  10.602  21.963  0.00  0.00    +0.000 OA
ENDROOT
BRANCH   1   8
ATOM      4  C   UNL     1       2.030   6.598  19.675  0.00  0.00    +0.000 A 
ATOM      5  C   UNL     1       2.486   6.923  18.388  0.00  0.00    +0.000 A 
ATOM      6  C   UNL     1       2.379   8.229  17.899  0.00  0.00    +0.000 A 
ATOM      7  C   UNL     1       1.798   9.221  18.687  0.00  0.00    +0.000 A 
ATOM      8  C   UNL     1       1.369   8.907  19.981  0.00  0.00    +0.000 A 
ATOM      9  C   UNL     1       1.510   7.610  20.487  0.00  0.00    +0.000 A 
BRANCH   4  16
ATOM     10  C   UNL     1       4.063   4.050  17.074  0.00  0.00    +0.000 C 
ATOM     11  C   UNL     1       2.711   3.330  17.079  0.00  0.00    +0.000 C 
ATOM     12  C   UNL     1       2.813   1.909  17.644  0.00  0.00    +0.000 C 
ATOM     13  C   UNL     1       3.046   1.908  19.154  0.00  0.00    +0.000 C 
ATOM     14  C   UNL     1       2.002   2.759  19.875  0.00  0.00    +0.000 C 
ATOM     15  N   UNL     1       1.919   4.108  19.306  0.00  0.00    +0.000 N 
ATOM     16  C   UNL     1       2.197   5.193  20.140  0.00  0.00    +0.000 C 
ATOM     17  O   UNL     1       2.596   5.050  21.296  0.00  0.00    +0.000 OA
ATOM     18  C   UNL     1       1.673   4.147  17.859  0.00  0.00    +0.000 C 
ENDBRANCH   4  16
ENDBRANCH   1   8
BRANCH   1  19
ATOM     19  N   UNL     1       0.137  11.336  19.801  0.00  0.00    +0.000 N 
ATOM     20  H   UNL     1       0.831  11.261  19.052  0.00  0.00    +0.000 HD
BRANCH  19  21
ATOM     21  C   UNL     1      -1.220  11.457  19.362  0.00  0.00    +0.000 A 
ATOM     22  C   UNL     1      -1.565  10.901  18.130  0.00  0.00    +0.000 A 
ATOM     23  C   UNL     1      -2.855  11.074  17.604  0.00  0.00    +0.000 A 
ATOM     24  C   UNL     1      -3.808  11.782  18.355  0.00  0.00    +0.000 A 
ATOM     25  C   UNL     1      -3.467  12.342  19.589  0.00  0.00    +0.000 A 
ATOM     26  C   UNL     1      -2.170  12.196  20.085  0.00  0.00    +0.000 A 
ATOM     27 CL   UNL     1      -1.776  12.930  21.597  0.00  0.00    +0.000 Cl
BRANCH  23  28
ATOM     28  C   UNL     1      -3.210  10.549  16.233  0.00  0.00    +0.000 C 
ATOM     29  F   UNL     1      -2.912   9.232  16.067  0.00  0.00    +0.000 F 
ATOM     30  F   UNL     1      -4.534  10.677  15.951  0.00  0.00    +0.000 F 
ATOM     31  F   UNL     1      -2.546  11.212  15.247  0.00  0.00    +0.000 F 
ENDBRANCH  23  28
ENDBRANCH  19  21
ENDBRANCH   1  19
TORSDOF 5
ENDMDL
MODEL 3
REMARK VINA RESULT:      -8.2      2.756      3.286
REMARK  Name = 
REMARK  6 active torsions:
REMARK  status: ('A' for Active; 'I' for Inactive)
REMARK    1  A    between atoms: C_1  and  C_2
REMARK    2  A    between atoms: C_7  and  C_9
REMARK    3  A    between atoms: C_13  and  S_14
REMARK    4  A    between atoms: S_14  and  N_17
REMARK    5  A    between atoms: N_17  and  C_18
REMARK    6  A    between atoms: C_20  and  C_21
REMARK                            x       y       z     vdW  Elec       q    Type
REMARK                         _______ _______ _______ _____ _____    ______ ____
ROOT
ATOM      1  S   UNL     1       0.519   9.528  21.423  0.00  0.00    +0.000 S 
ATOM      2  O   UNL     1      -0.795   8.927  21.398  0.00  0.00    +0.000 OA
ATOM      3  O   UNL     1       1.317   9.538  22.627  0.00  0.00    +0.000 OA
ENDROOT
BRANCH   1   8
ATOM      4  C   UNL     1       2.737   6.818  19.404  0.00  0.00    +0.000 A 
ATOM      5  C   UNL     1       2.711   7.331  18.097  0.00  0.00    +0.000 A 
ATOM      6  C   UNL     1       2.070   8.541  17.817  0.00  0.00    +0.000 A 
ATOM      7  C   UNL     1       1.433   9.244  18.838  0.00  0.00    +0.000 A 
ATOM      8  C   UNL     1       1.482   8.750  20.145  0.00  0.00    +0.000 A 
ATOM      9  C   UNL     1       2.155   7.559  20.436  0.00  0.00    +0.000 A 
BRANCH   4  16
ATOM     10  C   UNL     1       1.332   3.527  17.261  0.00  0.00    +0.000 C 
ATOM     11  C   UNL     1       1.049   3.009  18.674  0.00  0.00    +0.000 C 
ATOM     12  C   UNL     1       1.847   1.741  18.998  0.00  0.00    +0.000 C 
ATOM     13  C   UNL     1       3.335   2.033  19.185  0.00  0.00    +0.000 C 
ATOM     14  C   UNL     1       3.556   3.148  20.205  0.00  0.00    +0.000 C 
ATOM     15  N   UNL     1       2.772   4.343  19.876  0.00  0.00    +0.000 N 
ATOM     16  C   UNL     1       3.458   5.535  19.635  0.00  0.00    +0.000 C 
ATOM     17  O   UNL     1       4.688   5.591  19.597  0.00  0.00    +0.000 OA
ATOM     18  C   UNL     1       1.333   4.104  19.711  0.00  0.00    +0.000 C 
ENDBRANCH   4  16
ENDBRANCH   1   8
BRANCH   1  19
ATOM     19  N   UNL     1       0.316  11.115  20.851  0.00  0.00    +0.000 N 
ATOM     20  H   UNL     1       1.026  11.281  20.132  0.00  0.00    +0.000 HD
BRANCH  19  21
ATOM     21  C   UNL     1      -1.016  11.493  20.488  0.00  0.00    +0.000 A 
ATOM     22  C   UNL     1      -1.477  11.140  19.219  0.00  0.00    +0.000 A 
ATOM     23  C   UNL     1      -2.737  11.568  18.773  0.00  0.00    +0.000 A 
ATOM     24  C   UNL     1      -3.546  12.325  19.637  0.00  0.00    +0.000 A 
ATOM     25  C   UNL     1      -3.088  12.682  20.907  0.00  0.00    +0.000 A 
ATOM     26  C   UNL     1      -1.818  12.283  21.327  0.00  0.00    +0.000 A 
ATOM     27 CL   UNL     1      -1.273  12.772  22.891  0.00  0.00    +0.000 Cl
BRANCH  23  28
ATOM     28  C   UNL     1      -3.207  11.262  17.370  0.00  0.00    +0.000 C 
ATOM     29  F   UNL     1      -2.276  11.535  16.418  0.00  0.00    +0.000 F 
ATOM     30  F   UNL     1      -3.547   9.955  17.205  0.00  0.00    +0.000 F 
ATOM     31  F   UNL     1      -4.311  11.985  17.035  0.00  0.00    +0.000 F 
ENDBRANCH  23  28
ENDBRANCH  19  21
ENDBRANCH   1  19
TORSDOF 5
ENDMDL
MODEL 4
REMARK VINA RESULT:      -8.1      3.485      4.378
REMARK  Name = 
REMARK  6 active torsions:
REMARK  status: ('A' for Active; 'I' for Inactive)
REMARK    1  A    between atoms: C_1  and  C_2
REMARK    2  A    between atoms: C_7  and  C_9
REMARK    3  A    between atoms: C_13  and  S_14
REMARK    4  A    between atoms: S_14  and  N_17
REMARK    5  A    between atoms: N_17  and  C_18
REMARK    6  A    between atoms: C_20  and  C_21
REMARK                            x       y       z     vdW  Elec       q    Type
REMARK                         _______ _______ _______ _____ _____    ______ ____
ROOT
ATOM      1  S   UNL     1       0.846   9.249  21.774  0.00  0.00    +0.000 S 
ATOM      2  O   UNL     1      -0.544   9.054  22.117  0.00  0.00    +0.000 OA
ATOM      3  O   UNL     1       1.850   9.450  22.792  0.00  0.00    +0.000 OA
ENDROOT
BRANCH   1   8
ATOM      4  C   UNL     1       2.659   7.015  18.934  0.00  0.00    +0.000 A 
ATOM      5  C   UNL     1       2.444   5.710  19.404  0.00  0.00    +0.000 A 
ATOM      6  C   UNL     1       1.692   5.481  20.561  0.00  0.00    +0.000 A 
ATOM      7  C   UNL     1       1.162   6.557  21.270  0.00  0.00    +0.000 A 
ATOM      8  C   UNL     1       1.349   7.856  20.788  0.00  0.00    +0.000 A 
ATOM      9  C   UNL     1       2.068   8.087  19.610  0.00  0.00    +0.000 A 
BRANCH   4  16
ATOM     10  C   UNL     1       3.678   3.500  16.935  0.00  0.00    +0.000 C 
ATOM     11  C   UNL     1       5.092   3.986  17.264  0.00  0.00    +0.000 C 
ATOM     12  C   UNL     1       5.916   4.271  16.003  0.00  0.00    +0.000 C 
ATOM     13  C   UNL     1       5.436   5.527  15.277  0.00  0.00    +0.000 C 
ATOM     14  C   UNL     1       5.371   6.723  16.225  0.00  0.00    +0.000 C 
ATOM     15  N   UNL     1       4.587   6.417  17.427  0.00  0.00    +0.000 N 
ATOM     16  C   UNL     1       3.449   7.184  17.683  0.00  0.00    +0.000 C 
ATOM     17  O   UNL     1       3.036   8.034  16.893  0.00  0.00    +0.000 OA
ATOM     18  C   UNL     1       5.034   5.229  18.163  0.00  0.00    +0.000 C 
ENDBRANCH   4  16
ENDBRANCH   1   8
BRANCH   1  19
ATOM     19  N   UNL     1       0.874  10.541  20.671  0.00  0.00    +0.000 N 
ATOM     20  H   UNL     1       1.576  10.327  19.957  0.00  0.00    +0.000 HD
BRANCH  19  21
ATOM     21  C   UNL     1      -0.394  10.974  20.167  0.00  0.00    +0.000 A 
ATOM     22  C   UNL     1      -0.839  10.437  18.958  0.00  0.00    +0.000 A 
ATOM     23  C   UNL     1      -2.026  10.896  18.367  0.00  0.00    +0.000 A 
ATOM     24  C   UNL     1      -2.783  11.876  19.030  0.00  0.00    +0.000 A 
ATOM     25  C   UNL     1      -2.341  12.417  20.239  0.00  0.00    +0.000 A 
ATOM     26  C   UNL     1      -1.139  11.981  20.800  0.00  0.00    +0.000 A 
ATOM     27 CL   UNL     1      -0.608  12.697  22.278  0.00  0.00    +0.000 Cl
BRANCH  23  28
ATOM     28  C   UNL     1      -2.469  10.381  17.018  0.00  0.00    +0.000 C 
ATOM     29  F   UNL     1      -1.721   9.339  16.566  0.00  0.00    +0.000 F 
ATOM     30  F   UNL     1      -3.759   9.949  17.020  0.00  0.00    +0.000 F 
ATOM     31  F   UNL     1      -2.394  11.343  16.057  0.00  0.00    +0.000 F 
ENDBRANCH  23  28
ENDBRANCH  19  21
ENDBRANCH   1  19
TORSDOF 5
ENDMDL
MODEL 5
REMARK VINA RESULT:      -7.9      2.770      3.222
REMARK  Name = 
REMARK  6 active torsions:
REMARK  status: ('A' for Active; 'I' for Inactive)
REMARK    1  A    between atoms: C_1  and  C_2
REMARK    2  A    between atoms: C_7  and  C_9
REMARK    3  A    between atoms: C_13  and  S_14
REMARK    4  A    between atoms: S_14  and  N_17
REMARK    5  A    between atoms: N_17  and  C_18
REMARK    6  A    between atoms: C_20  and  C_21
REMARK                            x       y       z     vdW  Elec       q    Type
REMARK                         _______ _______ _______ _____ _____    ______ ____
ROOT
ATOM      1  S   UNL     1       0.183   9.329  21.611  0.00  0.00    +0.000 S 
ATOM      2  O   UNL     1      -0.789   8.303  21.913  0.00  0.00    +0.000 OA
ATOM      3  O   UNL     1       1.037   9.880  22.638  0.00  0.00    +0.000 OA
ENDROOT
BRANCH   1   8
ATOM      4  C   UNL     1       2.619   6.900  19.487  0.00  0.00    +0.000 A 
ATOM      5  C   UNL     1       2.609   7.507  18.222  0.00  0.00    +0.000 A 
ATOM      6  C   UNL     1       1.911   8.699  18.005  0.00  0.00    +0.000 A 
ATOM      7  C   UNL     1       1.200   9.288  19.049  0.00  0.00    +0.000 A 
ATOM      8  C   UNL     1       1.232   8.702  20.318  0.00  0.00    +0.000 A 
ATOM      9  C   UNL     1       1.961   7.530  20.548  0.00  0.00    +0.000 A 
BRANCH   4  16
ATOM     10  C   UNL     1       1.259   3.606  17.321  0.00  0.00    +0.000 C 
ATOM     11  C   UNL     1       1.062   3.041  18.731  0.00  0.00    +0.000 C 
ATOM     12  C   UNL     1       1.927   1.802  18.985  0.00  0.00    +0.000 C 
ATOM     13  C   UNL     1       3.408   2.153  19.115  0.00  0.00    +0.000 C 
ATOM     14  C   UNL     1       3.627   3.251  20.154  0.00  0.00    +0.000 C 
ATOM     15  N   UNL     1       2.779   4.419  19.892  0.00  0.00    +0.000 N 
ATOM     16  C   UNL     1       3.403   5.645  19.653  0.00  0.00    +0.000 C 
ATOM     17  O   UNL     1       4.626   5.755  19.563  0.00  0.00    +0.000 OA
ATOM     18  C   UNL     1       1.346   4.122  19.783  0.00  0.00    +0.000 C 
ENDBRANCH   4  16
ENDBRANCH   1   8
BRANCH   1  19
ATOM     19  N   UNL     1      -0.681  10.576  20.846  0.00  0.00    +0.000 N 
ATOM     20  H   UNL     1      -1.677  10.342  20.898  0.00  0.00    +0.000 HD
BRANCH  19  21
ATOM     21  C   UNL     1      -0.349  11.912  21.237  0.00  0.00    +0.000 A 
ATOM     22  C   UNL     1       0.702  12.549  20.575  0.00  0.00    +0.000 A 
ATOM     23  C   UNL     1       1.135  13.820  20.982  0.00  0.00    +0.000 A 
ATOM     24  C   UNL     1       0.471  14.461  22.041  0.00  0.00    +0.000 A 
ATOM     25  C   UNL     1      -0.580  13.827  22.707  0.00  0.00    +0.000 A 
ATOM     26  C   UNL     1      -0.979  12.546  22.319  0.00  0.00    +0.000 A 
ATOM     27 CL   UNL     1      -2.259  11.781  23.188  0.00  0.00    +0.000 Cl
BRANCH  23  28
ATOM     28  C   UNL     1       2.326  14.479  20.326  0.00  0.00    +0.000 C 
ATOM     29  F   UNL     1       2.000  15.583  19.602  0.00  0.00    +0.000 F 
ATOM     30  F   UNL     1       3.264  14.878  21.226  0.00  0.00    +0.000 F 
ATOM     31  F   UNL     1       2.962  13.638  19.464  0.00  0.00    +0.000 F 
ENDBRANCH  23  28
ENDBRANCH  19  21
ENDBRANCH   1  19
TORSDOF 5
ENDMDL
MODEL 6
REMARK VINA RESULT:      -7.9      1.143      1.357
REMARK  Name = 
REMARK  6 active torsions:
REMARK  status: ('A' for Active; 'I' for Inactive)
REMARK    1  A    between atoms: C_1  and  C_2
REMARK    2  A    between atoms: C_7  and  C_9
REMARK    3  A    between atoms: C_13  and  S_14
REMARK    4  A    between atoms: S_14  and  N_17
REMARK    5  A    between atoms: N_17  and  C_18
REMARK    6  A    between atoms: C_20  and  C_21
REMARK                            x       y       z     vdW  Elec       q    Type
REMARK                         _______ _______ _______ _____ _____    ______ ____
ROOT
ATOM      1  S   UNL     1       0.453   9.535  21.414  0.00  0.00    +0.000 S 
ATOM      2  O   UNL     1      -0.885   9.001  21.288  0.00  0.00    +0.000 OA
ATOM      3  O   UNL     1       1.185   9.439  22.656  0.00  0.00    +0.000 OA
ENDROOT
BRANCH   1   8
ATOM      4  C   UNL     1       2.733   6.874  19.400  0.00  0.00    +0.000 A 
ATOM      5  C   UNL     1       2.724   7.403  18.100  0.00  0.00    +0.000 A 
ATOM      6  C   UNL     1       2.075   8.610  17.823  0.00  0.00    +0.000 A 
ATOM      7  C   UNL     1       1.413   9.293  18.842  0.00  0.00    +0.000 A 
ATOM      8  C   UNL     1       1.445   8.784  20.143  0.00  0.00    +0.000 A 
ATOM      9  C   UNL     1       2.126   7.596  20.432  0.00  0.00    +0.000 A 
BRANCH   4  16
ATOM     10  C   UNL     1       1.280   3.553  17.338  0.00  0.00    +0.000 C 
ATOM     11  C   UNL     1       1.037   3.052  18.765  0.00  0.00    +0.000 C 
ATOM     12  C   UNL     1       1.848   1.790  19.082  0.00  0.00    +0.000 C 
ATOM     13  C   UNL     1       3.340   2.089  19.225  0.00  0.00    +0.000 C 
ATOM     14  C   UNL     1       3.585   3.217  20.225  0.00  0.00    +0.000 C 
ATOM     15  N   UNL     1       2.788   4.406  19.903  0.00  0.00    +0.000 N 
ATOM     16  C   UNL     1       3.464   5.596  19.628  0.00  0.00    +0.000 C 
ATOM     17  O   UNL     1       4.692   5.655  19.555  0.00  0.00    +0.000 OA
ATOM     18  C   UNL     1       1.346   4.161  19.780  0.00  0.00    +0.000 C 
ENDBRANCH   4  16
ENDBRANCH   1   8
BRANCH   1  19
ATOM     19  N   UNL     1       0.352  11.159  20.926  0.00  0.00    +0.000 N 
ATOM     20  H   UNL     1       0.853  11.249  20.037  0.00  0.00    +0.000 HD
BRANCH  19  21
ATOM     21  C   UNL     1      -0.951  11.751  20.952  0.00  0.00    +0.000 A 
ATOM     22  C   UNL     1      -1.487  12.107  22.190  0.00  0.00    +0.000 A 
ATOM     23  C   UNL     1      -2.797  12.600  22.286  0.00  0.00    +0.000 A 
ATOM     24  C   UNL     1      -3.551  12.767  21.112  0.00  0.00    +0.000 A 
ATOM     25  C   UNL     1      -3.019  12.411  19.870  0.00  0.00    +0.000 A 
ATOM     26  C   UNL     1      -1.728  11.886  19.790  0.00  0.00    +0.000 A 
ATOM     27 CL   UNL     1      -1.117  11.425  18.243  0.00  0.00    +0.000 Cl
BRANCH  23  28
ATOM     28  C   UNL     1      -3.414  12.907  23.631  0.00  0.00    +0.000 C 
ATOM     29  F   UNL     1      -3.653  11.797  24.380  0.00  0.00    +0.000 F 
ATOM     30  F   UNL     1      -2.631  13.717  24.392  0.00  0.00    +0.000 F 
ATOM     31  F   UNL     1      -4.611  13.543  23.508  0.00  0.00    +0.000 F 
ENDBRANCH  23  28
ENDBRANCH  19  21
ENDBRANCH   1  19
TORSDOF 5
ENDMDL
MODEL 7
REMARK VINA RESULT:      -7.8      3.150      3.643
REMARK  Name = 
REMARK  6 active torsions:
REMARK  status: ('A' for Active; 'I' for Inactive)
REMARK    1  A    between atoms: C_1  and  C_2
REMARK    2  A    between atoms: C_7  and  C_9
REMARK    3  A    between atoms: C_13  and  S_14
REMARK    4  A    between atoms: S_14  and  N_17
REMARK    5  A    between atoms: N_17  and  C_18
REMARK    6  A    between atoms: C_20  and  C_21
REMARK                            x       y       z     vdW  Elec       q    Type
REMARK                         _______ _______ _______ _____ _____    ______ ____
ROOT
ATOM      1  S   UNL     1       0.358   9.489  21.418  0.00  0.00    +0.000 S 
ATOM      2  O   UNL     1      -0.662   8.529  21.777  0.00  0.00    +0.000 OA
ATOM      3  O   UNL     1       1.253  10.039  22.409  0.00  0.00    +0.000 OA
ENDROOT
BRANCH   1   8
ATOM      4  C   UNL     1       2.675   6.868  19.394  0.00  0.00    +0.000 A 
ATOM      5  C   UNL     1       2.641   7.389  18.091  0.00  0.00    +0.000 A 
ATOM      6  C   UNL     1       1.963   8.580  17.815  0.00  0.00    +0.000 A 
ATOM      7  C   UNL     1       1.296   9.254  18.837  0.00  0.00    +0.000 A 
ATOM      8  C   UNL     1       1.353   8.753  20.141  0.00  0.00    +0.000 A 
ATOM      9  C   UNL     1       2.063   7.582  20.428  0.00  0.00    +0.000 A 
BRANCH   4  16
ATOM     10  C   UNL     1       1.313   3.517  17.317  0.00  0.00    +0.000 C 
ATOM     11  C   UNL     1       1.078   3.007  18.742  0.00  0.00    +0.000 C 
ATOM     12  C   UNL     1       1.918   1.765  19.059  0.00  0.00    +0.000 C 
ATOM     13  C   UNL     1       3.401   2.099  19.209  0.00  0.00    +0.000 C 
ATOM     14  C   UNL     1       3.614   3.231  20.212  0.00  0.00    +0.000 C 
ATOM     15  N   UNL     1       2.790   4.400  19.890  0.00  0.00    +0.000 N 
ATOM     16  C   UNL     1       3.437   5.608  19.621  0.00  0.00    +0.000 C 
ATOM     17  O   UNL     1       4.663   5.697  19.554  0.00  0.00    +0.000 OA
ATOM     18  C   UNL     1       1.355   4.120  19.761  0.00  0.00    +0.000 C 
ENDBRANCH   4  16
ENDBRANCH   1   8
BRANCH   1  19
ATOM     19  N   UNL     1      -0.452  10.745  20.610  0.00  0.00    +0.000 N 
ATOM     20  H   UNL     1      -1.450  10.661  20.824  0.00  0.00    +0.000 HD
BRANCH  19  21
ATOM     21  C   UNL     1       0.095  12.058  20.767  0.00  0.00    +0.000 A 
ATOM     22  C   UNL     1       1.064  12.480  19.855  0.00  0.00    +0.000 A 
ATOM     23  C   UNL     1       1.705  13.718  20.017  0.00  0.00    +0.000 A 
ATOM     24  C   UNL     1       1.331  14.545  21.089  0.00  0.00    +0.000 A 
ATOM     25  C   UNL     1       0.363  14.127  22.004  0.00  0.00    +0.000 A 
ATOM     26  C   UNL     1      -0.243  12.877  21.856  0.00  0.00    +0.000 A 
ATOM     27 CL   UNL     1      -1.410  12.380  23.026  0.00  0.00    +0.000 Cl
BRANCH  23  28
ATOM     28  C   UNL     1       2.815  14.143  19.084  0.00  0.00    +0.000 C 
ATOM     29  F   UNL     1       3.231  13.150  18.253  0.00  0.00    +0.000 F 
ATOM     30  F   UNL     1       2.455  15.182  18.284  0.00  0.00    +0.000 F 
ATOM     31  F   UNL     1       3.921  14.554  19.763  0.00  0.00    +0.000 F 
ENDBRANCH  23  28
ENDBRANCH  19  21
ENDBRANCH   1  19
TORSDOF 5
ENDMDL
MODEL 8
REMARK VINA RESULT:      -7.8      3.066      3.579
REMARK  Name = 
REMARK  6 active torsions:
REMARK  status: ('A' for Active; 'I' for Inactive)
REMARK    1  A    between atoms: C_1  and  C_2
REMARK    2  A    between atoms: C_7  and  C_9
REMARK    3  A    between atoms: C_13  and  S_14
REMARK    4  A    between atoms: S_14  and  N_17
REMARK    5  A    between atoms: N_17  and  C_18
REMARK    6  A    between atoms: C_20  and  C_21
REMARK                            x       y       z     vdW  Elec       q    Type
REMARK                         _______ _______ _______ _____ _____    ______ ____
ROOT
ATOM      1  S   UNL     1       0.448  10.251  20.854  0.00  0.00    +0.000 S 
ATOM      2  O   UNL     1      -0.759   9.617  21.335  0.00  0.00    +0.000 OA
ATOM      3  O   UNL     1       1.374  10.888  21.762  0.00  0.00    +0.000 OA
ENDROOT
BRANCH   1   8
ATOM      4  C   UNL     1       1.991   6.715  19.650  0.00  0.00    +0.000 A 
ATOM      5  C   UNL     1       2.459   7.021  18.363  0.00  0.00    +0.000 A 
ATOM      6  C   UNL     1       2.368   8.321  17.859  0.00  0.00    +0.000 A 
ATOM      7  C   UNL     1       1.792   9.328  18.632  0.00  0.00    +0.000 A 
ATOM      8  C   UNL     1       1.353   9.033  19.926  0.00  0.00    +0.000 A 
ATOM      9  C   UNL     1       1.477   7.741  20.448  0.00  0.00    +0.000 A 
BRANCH   4  16
ATOM     10  C   UNL     1       4.017   4.117  17.093  0.00  0.00    +0.000 C 
ATOM     11  C   UNL     1       2.658   3.410  17.096  0.00  0.00    +0.000 C 
ATOM     12  C   UNL     1       2.741   1.995  17.678  0.00  0.00    +0.000 C 
ATOM     13  C   UNL     1       2.964   2.009  19.190  0.00  0.00    +0.000 C 
ATOM     14  C   UNL     1       1.924   2.879  19.894  0.00  0.00    +0.000 C 
ATOM     15  N   UNL     1       1.858   4.222  19.309  0.00  0.00    +0.000 N 
ATOM     16  C   UNL     1       2.141   5.313  20.132  0.00  0.00    +0.000 C 
ATOM     17  O   UNL     1       2.531   5.179  21.293  0.00  0.00    +0.000 OA
ATOM     18  C   UNL     1       1.623   4.247  17.860  0.00  0.00    +0.000 C 
ENDBRANCH   4  16
ENDBRANCH   1   8
BRANCH   1  19
ATOM     19  N   UNL     1      -0.052  11.359  19.667  0.00  0.00    +0.000 N 
ATOM     20  H   UNL     1       0.314  11.037  18.766  0.00  0.00    +0.000 HD
BRANCH  19  21
ATOM     21  C   UNL     1      -1.439  11.710  19.668  0.00  0.00    +0.000 A 
ATOM     22  C   UNL     1      -2.243  11.217  18.640  0.00  0.00    +0.000 A 
ATOM     23  C   UNL     1      -3.587  11.607  18.536  0.00  0.00    +0.000 A 
ATOM     24  C   UNL     1      -4.125  12.470  19.505  0.00  0.00    +0.000 A 
ATOM     25  C   UNL     1      -3.323  12.967  20.536  0.00  0.00    +0.000 A 
ATOM     26  C   UNL     1      -1.977  12.603  20.609  0.00  0.00    +0.000 A 
ATOM     27 CL   UNL     1      -1.010  13.263  21.877  0.00  0.00    +0.000 Cl
BRANCH  23  28
ATOM     28  C   UNL     1      -4.440  11.145  17.377  0.00  0.00    +0.000 C 
ATOM     29  F   UNL     1      -4.798  12.152  16.536  0.00  0.00    +0.000 F 
ATOM     30  F   UNL     1      -3.818  10.212  16.609  0.00  0.00    +0.000 F 
ATOM     31  F   UNL     1      -5.603  10.576  17.797  0.00  0.00    +0.000 F 
ENDBRANCH  23  28
ENDBRANCH  19  21
ENDBRANCH   1  19
TORSDOF 5
ENDMDL
MODEL 9
REMARK VINA RESULT:      -7.8      6.724     10.317
REMARK  Name = 
REMARK  6 active torsions:
REMARK  status: ('A' for Active; 'I' for Inactive)
REMARK    1  A    between atoms: C_1  and  C_2
REMARK    2  A    between atoms: C_7  and  C_9
REMARK    3  A    between atoms: C_13  and  S_14
REMARK    4  A    between atoms: S_14  and  N_17
REMARK    5  A    between atoms: N_17  and  C_18
REMARK    6  A    between atoms: C_20  and  C_21
REMARK                            x       y       z     vdW  Elec       q    Type
REMARK                         _______ _______ _______ _____ _____    ______ ____
ROOT
ATOM      1  S   UNL     1       2.888   2.986  17.746  0.00  0.00    +0.000 S 
ATOM      2  O   UNL     1       2.402   1.768  18.353  0.00  0.00    +0.000 OA
ATOM      3  O   UNL     1       2.383   3.444  16.473  0.00  0.00    +0.000 OA
ENDROOT
BRANCH   1   8
ATOM      4  C   UNL     1       2.184   6.637  19.330  0.00  0.00    +0.000 A 
ATOM      5  C   UNL     1       1.943   6.331  20.679  0.00  0.00    +0.000 A 
ATOM      6  C   UNL     1       2.049   5.018  21.145  0.00  0.00    +0.000 A 
ATOM      7  C   UNL     1       2.381   3.991  20.262  0.00  0.00    +0.000 A 
ATOM      8  C   UNL     1       2.650   4.297  18.924  0.00  0.00    +0.000 A 
ATOM      9  C   UNL     1       2.583   5.616  18.463  0.00  0.00    +0.000 A 
BRANCH   4  16
ATOM     10  C   UNL     1       1.495   9.394  22.383  0.00  0.00    +0.000 C 
ATOM     11  C   UNL     1       0.204   9.615  21.589  0.00  0.00    +0.000 C 
ATOM     12  C   UNL     1       0.093  11.043  21.046  0.00  0.00    +0.000 C 
ATOM     13  C   UNL     1       1.077  11.300  19.905  0.00  0.00    +0.000 C 
ATOM     14  C   UNL     1       0.946  10.240  18.813  0.00  0.00    +0.000 C 
ATOM     15  N   UNL     1       1.044   8.884  19.363  0.00  0.00    +0.000 N 
ATOM     16  C   UNL     1       2.076   8.061  18.908  0.00  0.00    +0.000 C 
ATOM     17  O   UNL     1       2.951   8.466  18.141  0.00  0.00    +0.000 OA
ATOM     18  C   UNL     1       0.098   8.594  20.447  0.00  0.00    +0.000 C 
ENDBRANCH   4  16
ENDBRANCH   1   8
BRANCH   1  19
ATOM     19  N   UNL     1       4.579   2.825  17.673  0.00  0.00    +0.000 N 
ATOM     20  H   UNL     1       4.793   1.829  17.572  0.00  0.00    +0.000 HD
BRANCH  19  21
ATOM     21  C   UNL     1       5.260   3.689  16.758  0.00  0.00    +0.000 A 
ATOM     22  C   UNL     1       5.224   3.369  15.401  0.00  0.00    +0.000 A 
ATOM     23  C   UNL     1       5.955   4.123  14.470  0.00  0.00    +0.000 A 
ATOM     24  C   UNL     1       6.692   5.232  14.918  0.00  0.00    +0.000 A 
ATOM     25  C   UNL     1       6.731   5.556  16.277  0.00  0.00    +0.000 A 
ATOM     26  C   UNL     1       6.032   4.776  17.199  0.00  0.00    +0.000 A 
ATOM     27 CL   UNL     1       6.131   5.187  18.873  0.00  0.00    +0.000 Cl
BRANCH  23  28
ATOM     28  C   UNL     1       5.990   3.731  13.011  0.00  0.00    +0.000 C 
ATOM     29  F   UNL     1       6.296   2.421  12.812  0.00  0.00    +0.000 F 
ATOM     30  F   UNL     1       4.802   3.943  12.384  0.00  0.00    +0.000 F 
ATOM     31  F   UNL     1       6.918   4.444  12.315  0.00  0.00    +0.000 F 
ENDBRANCH  23  28
ENDBRANCH  19  21
ENDBRANCH   1  19
TORSDOF 5
ENDMDL
