MODEL 1
REMARK VINA RESULT:      -8.7      0.000      0.000
REMARK  Name = 
REMARK  10 active torsions:
REMARK  status: ('A' for Active; 'I' for Inactive)
REMARK    1  A    between atoms: C_1  and  C_2
REMARK    2  A    between atoms: C_2  and  C_3
REMARK    3  A    between atoms: N_10  and  C_11
REMARK    4  A    between atoms: C_11  and  C_12
REMARK    5  A    between atoms: C_11  and  C_16
REMARK    6  A    between atoms: N_14  and  C_15
REMARK    7  A    between atoms: C_22  and  C_23
REMARK    8  A    between atoms: C_23  and  C_24
REMARK    9  A    between atoms: C_24  and  C_25
REMARK   10  A    between atoms: C_28  and  C_29
REMARK                            x       y       z     vdW  Elec       q    Type
REMARK                         _______ _______ _______ _____ _____    ______ ____
ROOT
ATOM      1  C   UNL     1       2.481   2.261  19.645  0.00  0.00    +0.000 A 
ATOM      2  N   UNL     1       3.065   2.279  20.827  0.00  0.00    +0.000 NA
ATOM      3  C   UNL     1       4.274   2.905  20.638  0.00  0.00    +0.000 A 
ATOM      4  C   UNL     1       4.388   3.368  19.339  0.00  0.00    +0.000 A 
ATOM      5  N   UNL     1       3.350   2.746  18.703  0.00  0.00    +0.000 N 
ATOM      6  C   UNL     1       3.306   2.587  17.278  0.00  0.00    +0.000 C 
ATOM      7  C   UNL     1       4.156   3.637  16.566  0.00  0.00    +0.000 C 
ATOM      8  N   UNL     1       5.408   4.121  17.212  0.00  0.00    +0.000 NA
ATOM      9  C   UNL     1       5.266   4.415  18.663  0.00  0.00    +0.000 C 
ENDROOT
BRANCH   1  11
ATOM     10  C   UNL     1       0.193   2.908  18.854  0.00  0.00    +0.000 C 
ATOM     11  C   UNL     1       1.093   1.786  19.359  0.00  0.00    +0.000 C 
ENDBRANCH   1  11
BRANCH   8  12
ATOM     12  C   UNL     1       6.076   5.113  16.280  0.00  0.00    +0.000 C 
BRANCH  12  13
ATOM     13  C   UNL     1       6.486   4.687  14.854  0.00  0.00    +0.000 A 
ATOM     14  C   UNL     1       5.730   3.796  14.081  0.00  0.00    +0.000 A 
ATOM     15  C   UNL     1       6.044   3.561  12.732  0.00  0.00    +0.000 A 
ATOM     16  C   UNL     1       7.110   4.226  12.124  0.00  0.00    +0.000 A 
ATOM     17  C   UNL     1       7.854   5.149  12.854  0.00  0.00    +0.000 A 
ATOM     18  C   UNL     1       7.526   5.386  14.190  0.00  0.00    +0.000 A 
ENDBRANCH  12  13
BRANCH  12  19
ATOM     19  C   UNL     1       7.087   6.057  17.017  0.00  0.00    +0.000 C 
ATOM     20  O   UNL     1       8.087   5.610  17.582  0.00  0.00    +0.000 OA
ATOM     21  N   UNL     1       6.842   7.413  16.986  0.00  0.00    +0.000 N 
ATOM     22  C   UNL     1       7.787   8.370  17.499  0.00  0.00    +0.000 C 
ATOM     23  H   UNL     1       5.988   7.750  16.558  0.00  0.00    +0.000 HD
ENDBRANCH  12  19
ENDBRANCH   8  12
BRANCH   9  24
ATOM     24  C   UNL     1       4.774   5.847  19.102  0.00  0.00    +0.000 C 
BRANCH  24  25
ATOM     25  C   UNL     1       3.370   6.157  18.541  0.00  0.00    +0.000 C 
BRANCH  25  26
ATOM     26  C   UNL     1       2.510   7.331  18.915  0.00  0.00    +0.000 A 
ATOM     27  C   UNL     1       1.958   7.585  20.164  0.00  0.00    +0.000 A 
ATOM     28  C   UNL     1       1.188   8.744  20.358  0.00  0.00    +0.000 A 
ATOM     29  C   UNL     1       0.966   9.655  19.309  0.00  0.00    +0.000 A 
ATOM     30  C   UNL     1       1.566   9.421  18.072  0.00  0.00    +0.000 A 
ATOM     31  C   UNL     1       2.322   8.274  17.881  0.00  0.00    +0.000 A 
BRANCH  29  32
ATOM     32  C   UNL     1       0.083  10.858  19.466  0.00  0.00    +0.000 C 
ATOM     33  F   UNL     1      -0.161  11.522  18.301  0.00  0.00    +0.000 F 
ATOM     34  F   UNL     1      -1.144  10.559  19.983  0.00  0.00    +0.000 F 
ATOM     35  F   UNL     1       0.618  11.789  20.311  0.00  0.00    +0.000 F 
ENDBRANCH  29  32
ENDBRANCH  25  26
ENDBRANCH  24  25
ENDBRANCH   9  24
TORSDOF 8
ENDMDL
MODEL 2
REMARK VINA RESULT:      -8.6      1.257      1.774
REMARK  Name = 
REMARK  10 active torsions:
REMARK  status: ('A' for Active; 'I' for Inactive)
REMARK    1  A    between atoms: C_1  and  C_2
REMARK    2  A    between atoms: C_2  and  C_3
REMARK    3  A    between atoms: N_10  and  C_11
REMARK    4  A    between atoms: C_11  and  C_12
REMARK    5  A    between atoms: C_11  and  C_16
REMARK    6  A    between atoms: N_14  and  C_15
REMARK    7  A    between atoms: C_22  and  C_23
REMARK    8  A    between atoms: C_23  and  C_24
REMARK    9  A    between atoms: C_24  and  C_25
REMARK   10  A    between atoms: C_28  and  C_29
REMARK                            x       y       z     vdW  Elec       q    Type
REMARK                         _______ _______ _______ _____ _____    ______ ____
ROOT
ATOM      1  C   UNL     1       1.873   3.332  20.249  0.00  0.00    +0.000 A 
ATOM      2  N   UNL     1       1.395   4.265  21.050  0.00  0.00    +0.000 NA
ATOM      3  C   UNL     1       2.141   5.392  20.796  0.00  0.00    +0.000 A 
ATOM      4  C   UNL     1       3.021   5.173  19.752  0.00  0.00    +0.000 A 
ATOM      5  N   UNL     1       2.976   3.815  19.597  0.00  0.00    +0.000 N 
ATOM      6  C   UNL     1       4.013   3.084  18.928  0.00  0.00    +0.000 C 
ATOM      7  C   UNL     1       4.788   3.966  17.953  0.00  0.00    +0.000 C 
ATOM      8  N   UNL     1       5.000   5.403  18.282  0.00  0.00    +0.000 NA
ATOM      9  C   UNL     1       3.790   6.090  18.806  0.00  0.00    +0.000 C 
ENDROOT
BRANCH   1  11
ATOM     10  C   UNL     1       0.574   1.804  18.747  0.00  0.00    +0.000 C 
ATOM     11  C   UNL     1       1.312   1.958  20.071  0.00  0.00    +0.000 C 
ENDBRANCH   1  11
BRANCH   8  12
ATOM     12  C   UNL     1       5.833   6.030  17.180  0.00  0.00    +0.000 C 
BRANCH  12  13
ATOM     13  C   UNL     1       6.095   5.259  15.869  0.00  0.00    +0.000 A 
ATOM     14  C   UNL     1       5.080   4.613  15.151  0.00  0.00    +0.000 A 
ATOM     15  C   UNL     1       5.326   4.065  13.881  0.00  0.00    +0.000 A 
ATOM     16  C   UNL     1       6.589   4.167  13.296  0.00  0.00    +0.000 A 
ATOM     17  C   UNL     1       7.608   4.840  13.965  0.00  0.00    +0.000 A 
ATOM     18  C   UNL     1       7.350   5.393  15.221  0.00  0.00    +0.000 A 
ENDBRANCH  12  13
BRANCH  12  19
ATOM     19  C   UNL     1       7.046   6.858  17.727  0.00  0.00    +0.000 C 
ATOM     20  O   UNL     1       7.917   6.335  18.425  0.00  0.00    +0.000 OA
ATOM     21  N   UNL     1       7.128   8.188  17.377  0.00  0.00    +0.000 N 
ATOM     22  C   UNL     1       8.278   8.993  17.700  0.00  0.00    +0.000 C 
ATOM     23  H   UNL     1       6.374   8.605  16.844  0.00  0.00    +0.000 HD
ENDBRANCH  12  19
ENDBRANCH   8  12
BRANCH   9  24
ATOM     24  C   UNL     1       2.774   6.726  17.782  0.00  0.00    +0.000 C 
BRANCH  24  25
ATOM     25  C   UNL     1       2.734   8.263  17.911  0.00  0.00    +0.000 C 
BRANCH  25  26
ATOM     26  C   UNL     1       1.755   9.055  18.733  0.00  0.00    +0.000 A 
ATOM     27  C   UNL     1       1.340   8.765  20.026  0.00  0.00    +0.000 A 
ATOM     28  C   UNL     1       0.428   9.620  20.668  0.00  0.00    +0.000 A 
ATOM     29  C   UNL     1      -0.072  10.767  20.026  0.00  0.00    +0.000 A 
ATOM     30  C   UNL     1       0.389  11.080  18.747  0.00  0.00    +0.000 A 
ATOM     31  C   UNL     1       1.286  10.232  18.113  0.00  0.00    +0.000 A 
BRANCH  29  32
ATOM     32  C   UNL     1      -1.106  11.652  20.656  0.00  0.00    +0.000 C 
ATOM     33  F   UNL     1      -2.247  11.781  19.922  0.00  0.00    +0.000 F 
ATOM     34  F   UNL     1      -1.507  11.218  21.886  0.00  0.00    +0.000 F 
ATOM     35  F   UNL     1      -0.651  12.926  20.849  0.00  0.00    +0.000 F 
ENDBRANCH  29  32
ENDBRANCH  25  26
ENDBRANCH  24  25
ENDBRANCH   9  24
TORSDOF 8
ENDMDL
MODEL 3
REMARK VINA RESULT:      -8.6      1.363      2.210
REMARK  Name = 
REMARK  10 active torsions:
REMARK  status: ('A' for Active; 'I' for Inactive)
REMARK    1  A    between atoms: C_1  and  C_2
REMARK    2  A    between atoms: C_2  and  C_3
REMARK    3  A    between atoms: N_10  and  C_11
REMARK    4  A    between atoms: C_11  and  C_12
REMARK    5  A    between atoms: C_11  and  C_16
REMARK    6  A    between atoms: N_14  and  C_15
REMARK    7  A    between atoms: C_22  and  C_23
REMARK    8  A    between atoms: C_23  and  C_24
REMARK    9  A    between atoms: C_24  and  C_25
REMARK   10  A    between atoms: C_28  and  C_29
REMARK                            x       y       z     vdW  Elec       q    Type
REMARK                         _______ _______ _______ _____ _____    ______ ____
ROOT
ATOM      1  C   UNL     1       1.981   3.311  20.216  0.00  0.00    +0.000 A 
ATOM      2  N   UNL     1       1.444   4.203  21.027  0.00  0.00    +0.000 NA
ATOM      3  C   UNL     1       2.131   5.372  20.804  0.00  0.00    +0.000 A 
ATOM      4  C   UNL     1       3.036   5.220  19.768  0.00  0.00    +0.000 A 
ATOM      5  N   UNL     1       3.066   3.865  19.589  0.00  0.00    +0.000 N 
ATOM      6  C   UNL     1       4.149   3.202  18.921  0.00  0.00    +0.000 C 
ATOM      7  C   UNL     1       4.888   4.143  17.973  0.00  0.00    +0.000 C 
ATOM      8  N   UNL     1       5.019   5.583  18.331  0.00  0.00    +0.000 NA
ATOM      9  C   UNL     1       3.766   6.193  18.850  0.00  0.00    +0.000 C 
ENDROOT
BRANCH   1  11
ATOM     10  C   UNL     1       0.669   1.774  18.735  0.00  0.00    +0.000 C 
ATOM     11  C   UNL     1       1.498   1.913  20.007  0.00  0.00    +0.000 C 
ENDBRANCH   1  11
BRANCH   8  12
ATOM     12  C   UNL     1       5.830   6.273  17.251  0.00  0.00    +0.000 C 
BRANCH  12  13
ATOM     13  C   UNL     1       6.046   5.592  15.884  0.00  0.00    +0.000 A 
ATOM     14  C   UNL     1       7.317   5.319  15.363  0.00  0.00    +0.000 A 
ATOM     15  C   UNL     1       7.474   4.551  14.197  0.00  0.00    +0.000 A 
ATOM     16  C   UNL     1       6.362   4.027  13.537  0.00  0.00    +0.000 A 
ATOM     17  C   UNL     1       5.087   4.245  14.052  0.00  0.00    +0.000 A 
ATOM     18  C   UNL     1       4.942   4.997  15.220  0.00  0.00    +0.000 A 
ENDBRANCH  12  13
BRANCH  12  19
ATOM     19  C   UNL     1       7.071   7.045  17.821  0.00  0.00    +0.000 C 
ATOM     20  O   UNL     1       7.898   6.485  18.544  0.00  0.00    +0.000 OA
ATOM     21  N   UNL     1       7.228   8.366  17.461  0.00  0.00    +0.000 N 
ATOM     22  C   UNL     1       8.409   9.114  17.805  0.00  0.00    +0.000 C 
ATOM     23  H   UNL     1       6.509   8.815  16.906  0.00  0.00    +0.000 HD
ENDBRANCH  12  19
ENDBRANCH   8  12
BRANCH   9  24
ATOM     24  C   UNL     1       2.732   6.793  17.823  0.00  0.00    +0.000 C 
BRANCH  24  25
ATOM     25  C   UNL     1       2.689   8.334  17.903  0.00  0.00    +0.000 C 
BRANCH  25  26
ATOM     26  C   UNL     1       1.755   9.148  18.755  0.00  0.00    +0.000 A 
ATOM     27  C   UNL     1       1.040  10.269  18.354  0.00  0.00    +0.000 A 
ATOM     28  C   UNL     1       0.189  10.910  19.270  0.00  0.00    +0.000 A 
ATOM     29  C   UNL     1       0.048  10.438  20.587  0.00  0.00    +0.000 A 
ATOM     30  C   UNL     1       0.729   9.282  20.968  0.00  0.00    +0.000 A 
ATOM     31  C   UNL     1       1.572   8.652  20.063  0.00  0.00    +0.000 A 
BRANCH  29  32
ATOM     32  C   UNL     1      -0.790  11.149  21.610  0.00  0.00    +0.000 C 
ATOM     33  F   UNL     1      -1.935  11.691  21.108  0.00  0.00    +0.000 F 
ATOM     34  F   UNL     1      -1.184  10.342  22.637  0.00  0.00    +0.000 F 
ATOM     35  F   UNL     1      -0.122  12.187  22.196  0.00  0.00    +0.000 F 
ENDBRANCH  29  32
ENDBRANCH  25  26
ENDBRANCH  24  25
ENDBRANCH   9  24
TORSDOF 8
ENDMDL
MODEL 4
REMARK VINA RESULT:      -8.5      0.890      1.486
REMARK  Name = 
REMARK  10 active torsions:
REMARK  status: ('A' for Active; 'I' for Inactive)
REMARK    1  A    between atoms: C_1  and  C_2
REMARK    2  A    between atoms: C_2  and  C_3
REMARK    3  A    between atoms: N_10  and  C_11
REMARK    4  A    between atoms: C_11  and  C_12
REMARK    5  A    between atoms: C_11  and  C_16
REMARK    6  A    between atoms: N_14  and  C_15
REMARK    7  A    between atoms: C_22  and  C_23
REMARK    8  A    between atoms: C_23  and  C_24
REMARK    9  A    between atoms: C_24  and  C_25
REMARK   10  A    between atoms: C_28  and  C_29
REMARK                            x       y       z     vdW  Elec       q    Type
REMARK                         _______ _______ _______ _____ _____    ______ ____
ROOT
ATOM      1  C   UNL     1       2.341   2.362  19.430  0.00  0.00    +0.000 A 
ATOM      2  N   UNL     1       2.970   2.238  20.582  0.00  0.00    +0.000 NA
ATOM      3  C   UNL     1       4.228   2.755  20.379  0.00  0.00    +0.000 A 
ATOM      4  C   UNL     1       4.336   3.296  19.110  0.00  0.00    +0.000 A 
ATOM      5  N   UNL     1       3.216   2.825  18.483  0.00  0.00    +0.000 N 
ATOM      6  C   UNL     1       3.099   2.773  17.054  0.00  0.00    +0.000 C 
ATOM      7  C   UNL     1       4.021   3.783  16.375  0.00  0.00    +0.000 C 
ATOM      8  N   UNL     1       5.340   4.095  16.992  0.00  0.00    +0.000 NA
ATOM      9  C   UNL     1       5.287   4.298  18.464  0.00  0.00    +0.000 C 
ENDROOT
BRANCH   1  11
ATOM     10  C   UNL     1      -0.018   3.195  19.577  0.00  0.00    +0.000 C 
ATOM     11  C   UNL     1       0.902   2.046  19.179  0.00  0.00    +0.000 C 
ENDBRANCH   1  11
BRANCH   8  12
ATOM     12  C   UNL     1       6.066   5.081  16.098  0.00  0.00    +0.000 C 
BRANCH  12  13
ATOM     13  C   UNL     1       6.508   4.665  14.679  0.00  0.00    +0.000 A 
ATOM     14  C   UNL     1       5.825   3.706  13.921  0.00  0.00    +0.000 A 
ATOM     15  C   UNL     1       6.156   3.474  12.575  0.00  0.00    +0.000 A 
ATOM     16  C   UNL     1       7.166   4.211  11.956  0.00  0.00    +0.000 A 
ATOM     17  C   UNL     1       7.836   5.201  12.669  0.00  0.00    +0.000 A 
ATOM     18  C   UNL     1       7.491   5.433  14.002  0.00  0.00    +0.000 A 
ENDBRANCH  12  13
BRANCH  12  19
ATOM     19  C   UNL     1       7.083   5.982  16.882  0.00  0.00    +0.000 C 
ATOM     20  O   UNL     1       8.072   5.500  17.437  0.00  0.00    +0.000 OA
ATOM     21  N   UNL     1       6.853   7.341  16.904  0.00  0.00    +0.000 N 
ATOM     22  C   UNL     1       7.805   8.265  17.464  0.00  0.00    +0.000 C 
ATOM     23  H   UNL     1       6.008   7.706  16.482  0.00  0.00    +0.000 HD
ENDBRANCH  12  19
ENDBRANCH   8  12
BRANCH   9  24
ATOM     24  C   UNL     1       4.960   5.736  19.021  0.00  0.00    +0.000 C 
BRANCH  24  25
ATOM     25  C   UNL     1       3.636   6.277  18.441  0.00  0.00    +0.000 C 
BRANCH  25  26
ATOM     26  C   UNL     1       2.666   7.182  19.148  0.00  0.00    +0.000 A 
ATOM     27  C   UNL     1       2.196   8.406  18.689  0.00  0.00    +0.000 A 
ATOM     28  C   UNL     1       1.272   9.126  19.464  0.00  0.00    +0.000 A 
ATOM     29  C   UNL     1       0.812   8.631  20.697  0.00  0.00    +0.000 A 
ATOM     30  C   UNL     1       1.248   7.378  21.127  0.00  0.00    +0.000 A 
ATOM     31  C   UNL     1       2.164   6.669  20.363  0.00  0.00    +0.000 A 
BRANCH  29  32
ATOM     32  C   UNL     1      -0.112   9.415  21.582  0.00  0.00    +0.000 C 
ATOM     33  F   UNL     1       0.528  10.212  22.483  0.00  0.00    +0.000 F 
ATOM     34  F   UNL     1      -0.947  10.241  20.888  0.00  0.00    +0.000 F 
ATOM     35  F   UNL     1      -0.929   8.609  22.324  0.00  0.00    +0.000 F 
ENDBRANCH  29  32
ENDBRANCH  25  26
ENDBRANCH  24  25
ENDBRANCH   9  24
TORSDOF 8
ENDMDL
MODEL 5
REMARK VINA RESULT:      -8.5      0.385      1.405
REMARK  Name = 
REMARK  10 active torsions:
REMARK  status: ('A' for Active; 'I' for Inactive)
REMARK    1  A    between atoms: C_1  and  C_2
REMARK    2  A    between atoms: C_2  and  C_3
REMARK    3  A    between atoms: N_10  and  C_11
REMARK    4  A    between atoms: C_11  and  C_12
REMARK    5  A    between atoms: C_11  and  C_16
REMARK    6  A    between atoms: N_14  and  C_15
REMARK    7  A    between atoms: C_22  and  C_23
REMARK    8  A    between atoms: C_23  and  C_24
REMARK    9  A    between atoms: C_24  and  C_25
REMARK   10  A    between atoms: C_28  and  C_29
REMARK                            x       y       z     vdW  Elec       q    Type
REMARK                         _______ _______ _______ _____ _____    ______ ____
ROOT
ATOM      1  C   UNL     1       2.447   2.257  19.457  0.00  0.00    +0.000 A 
ATOM      2  N   UNL     1       3.044   2.209  20.632  0.00  0.00    +0.000 NA
ATOM      3  C   UNL     1       4.248   2.850  20.467  0.00  0.00    +0.000 A 
ATOM      4  C   UNL     1       4.347   3.388  19.196  0.00  0.00    +0.000 A 
ATOM      5  N   UNL     1       3.304   2.800  18.536  0.00  0.00    +0.000 N 
ATOM      6  C   UNL     1       3.246   2.723  17.104  0.00  0.00    +0.000 C 
ATOM      7  C   UNL     1       4.084   3.816  16.446  0.00  0.00    +0.000 C 
ATOM      8  N   UNL     1       5.341   4.267  17.105  0.00  0.00    +0.000 NA
ATOM      9  C   UNL     1       5.214   4.476  18.572  0.00  0.00    +0.000 C 
ENDROOT
BRANCH   1  11
ATOM     10  C   UNL     1       0.038   2.920  19.277  0.00  0.00    +0.000 C 
ATOM     11  C   UNL     1       1.058   1.794  19.159  0.00  0.00    +0.000 C 
ENDBRANCH   1  11
BRANCH   8  12
ATOM     12  C   UNL     1       5.995   5.314  16.225  0.00  0.00    +0.000 C 
BRANCH  12  13
ATOM     13  C   UNL     1       6.321   4.998  14.750  0.00  0.00    +0.000 A 
ATOM     14  C   UNL     1       7.470   5.476  14.107  0.00  0.00    +0.000 A 
ATOM     15  C   UNL     1       7.818   5.034  12.820  0.00  0.00    +0.000 A 
ATOM     16  C   UNL     1       7.031   4.091  12.156  0.00  0.00    +0.000 A 
ATOM     17  C   UNL     1       5.905   3.565  12.784  0.00  0.00    +0.000 A 
ATOM     18  C   UNL     1       5.576   4.000  14.070  0.00  0.00    +0.000 A 
ENDBRANCH  12  13
BRANCH  12  19
ATOM     19  C   UNL     1       7.073   6.163  16.984  0.00  0.00    +0.000 C 
ATOM     20  O   UNL     1       8.052   5.632  17.512  0.00  0.00    +0.000 OA
ATOM     21  N   UNL     1       6.909   7.531  17.016  0.00  0.00    +0.000 N 
ATOM     22  C   UNL     1       7.918   8.406  17.554  0.00  0.00    +0.000 C 
ATOM     23  H   UNL     1       6.072   7.937  16.618  0.00  0.00    +0.000 HD
ENDBRANCH  12  19
ENDBRANCH   8  12
BRANCH   9  24
ATOM     24  C   UNL     1       4.722   5.878  19.099  0.00  0.00    +0.000 C 
BRANCH  24  25
ATOM     25  C   UNL     1       3.232   6.110  18.773  0.00  0.00    +0.000 C 
BRANCH  25  26
ATOM     26  C   UNL     1       2.490   7.411  18.910  0.00  0.00    +0.000 A 
ATOM     27  C   UNL     1       2.270   8.345  17.906  0.00  0.00    +0.000 A 
ATOM     28  C   UNL     1       1.537   9.508  18.192  0.00  0.00    +0.000 A 
ATOM     29  C   UNL     1       1.019   9.746  19.478  0.00  0.00    +0.000 A 
ATOM     30  C   UNL     1       1.200   8.780  20.468  0.00  0.00    +0.000 A 
ATOM     31  C   UNL     1       1.928   7.633  20.185  0.00  0.00    +0.000 A 
BRANCH  29  32
ATOM     32  C   UNL     1       0.303  11.016  19.832  0.00  0.00    +0.000 C 
ATOM     33  F   UNL     1       0.305  11.300  21.165  0.00  0.00    +0.000 F 
ATOM     34  F   UNL     1       0.827  12.117  19.220  0.00  0.00    +0.000 F 
ATOM     35  F   UNL     1      -1.014  10.988  19.468  0.00  0.00    +0.000 F 
ENDBRANCH  29  32
ENDBRANCH  25  26
ENDBRANCH  24  25
ENDBRANCH   9  24
TORSDOF 8
ENDMDL
MODEL 6
REMARK VINA RESULT:      -8.4      1.335      2.152
REMARK  Name = 
REMARK  10 active torsions:
REMARK  status: ('A' for Active; 'I' for Inactive)
REMARK    1  A    between atoms: C_1  and  C_2
REMARK    2  A    between atoms: C_2  and  C_3
REMARK    3  A    between atoms: N_10  and  C_11
REMARK    4  A    between atoms: C_11  and  C_12
REMARK    5  A    between atoms: C_11  and  C_16
REMARK    6  A    between atoms: N_14  and  C_15
REMARK    7  A    between atoms: C_22  and  C_23
REMARK    8  A    between atoms: C_23  and  C_24
REMARK    9  A    between atoms: C_24  and  C_25
REMARK   10  A    between atoms: C_28  and  C_29
REMARK                            x       y       z     vdW  Elec       q    Type
REMARK                         _______ _______ _______ _____ _____    ______ ____
ROOT
ATOM      1  C   UNL     1       1.983   3.418  20.209  0.00  0.00    +0.000 A 
ATOM      2  N   UNL     1       1.429   4.325  20.990  0.00  0.00    +0.000 NA
ATOM      3  C   UNL     1       2.114   5.492  20.753  0.00  0.00    +0.000 A 
ATOM      4  C   UNL     1       3.037   5.321  19.736  0.00  0.00    +0.000 A 
ATOM      5  N   UNL     1       3.076   3.963  19.587  0.00  0.00    +0.000 N 
ATOM      6  C   UNL     1       4.174   3.291  18.953  0.00  0.00    +0.000 C 
ATOM      7  C   UNL     1       4.924   4.213  17.997  0.00  0.00    +0.000 C 
ATOM      8  N   UNL     1       5.042   5.662  18.324  0.00  0.00    +0.000 NA
ATOM      9  C   UNL     1       3.779   6.278  18.808  0.00  0.00    +0.000 C 
ENDROOT
BRANCH   1  11
ATOM     10  C   UNL     1       0.735   1.834  18.723  0.00  0.00    +0.000 C 
ATOM     11  C   UNL     1       1.510   2.013  20.023  0.00  0.00    +0.000 C 
ENDBRANCH   1  11
BRANCH   8  12
ATOM     12  C   UNL     1       5.869   6.332  17.243  0.00  0.00    +0.000 C 
BRANCH  12  13
ATOM     13  C   UNL     1       6.083   5.636  15.883  0.00  0.00    +0.000 A 
ATOM     14  C   UNL     1       7.353   5.320  15.383  0.00  0.00    +0.000 A 
ATOM     15  C   UNL     1       7.502   4.541  14.224  0.00  0.00    +0.000 A 
ATOM     16  C   UNL     1       6.383   4.047  13.550  0.00  0.00    +0.000 A 
ATOM     17  C   UNL     1       5.108   4.309  14.045  0.00  0.00    +0.000 A 
ATOM     18  C   UNL     1       4.970   5.072  15.206  0.00  0.00    +0.000 A 
ENDBRANCH  12  13
BRANCH  12  19
ATOM     19  C   UNL     1       7.116   7.092  17.813  0.00  0.00    +0.000 C 
ATOM     20  O   UNL     1       7.945   6.522  18.525  0.00  0.00    +0.000 OA
ATOM     21  N   UNL     1       7.277   8.416  17.465  0.00  0.00    +0.000 N 
ATOM     22  C   UNL     1       8.464   9.155  17.810  0.00  0.00    +0.000 C 
ATOM     23  H   UNL     1       6.557   8.874  16.920  0.00  0.00    +0.000 HD
ENDBRANCH  12  19
ENDBRANCH   8  12
BRANCH   9  24
ATOM     24  C   UNL     1       2.758   6.849  17.751  0.00  0.00    +0.000 C 
BRANCH  24  25
ATOM     25  C   UNL     1       2.732   8.392  17.773  0.00  0.00    +0.000 C 
BRANCH  25  26
ATOM     26  C   UNL     1       1.854   9.248  18.642  0.00  0.00    +0.000 A 
ATOM     27  C   UNL     1       1.260   8.870  19.840  0.00  0.00    +0.000 A 
ATOM     28  C   UNL     1       0.479   9.799  20.548  0.00  0.00    +0.000 A 
ATOM     29  C   UNL     1       0.288  11.107  20.068  0.00  0.00    +0.000 A 
ATOM     30  C   UNL     1       0.930  11.496  18.892  0.00  0.00    +0.000 A 
ATOM     31  C   UNL     1       1.697  10.577  18.191  0.00  0.00    +0.000 A 
BRANCH  29  32
ATOM     32  C   UNL     1      -0.605  12.094  20.761  0.00  0.00    +0.000 C 
ATOM     33  F   UNL     1      -0.228  12.381  22.038  0.00  0.00    +0.000 F 
ATOM     34  F   UNL     1      -0.677  13.296  20.119  0.00  0.00    +0.000 F 
ATOM     35  F   UNL     1      -1.895  11.651  20.852  0.00  0.00    +0.000 F 
ENDBRANCH  29  32
ENDBRANCH  25  26
ENDBRANCH  24  25
ENDBRANCH   9  24
TORSDOF 8
ENDMDL
MODEL 7
REMARK VINA RESULT:      -8.4      3.875      7.177
REMARK  Name = 
REMARK  10 active torsions:
REMARK  status: ('A' for Active; 'I' for Inactive)
REMARK    1  A    between atoms: C_1  and  C_2
REMARK    2  A    between atoms: C_2  and  C_3
REMARK    3  A    between atoms: N_10  and  C_11
REMARK    4  A    between atoms: C_11  and  C_12
REMARK    5  A    between atoms: C_11  and  C_16
REMARK    6  A    between atoms: N_14  and  C_15
REMARK    7  A    between atoms: C_22  and  C_23
REMARK    8  A    between atoms: C_23  and  C_24
REMARK    9  A    between atoms: C_24  and  C_25
REMARK   10  A    between atoms: C_28  and  C_29
REMARK                            x       y       z     vdW  Elec       q    Type
REMARK                         _______ _______ _______ _____ _____    ______ ____
ROOT
ATOM      1  C   UNL     1      -0.089  10.873  22.009  0.00  0.00    +0.000 A 
ATOM      2  N   UNL     1       0.329  11.970  21.408  0.00  0.00    +0.000 NA
ATOM      3  C   UNL     1       1.182  11.551  20.415  0.00  0.00    +0.000 A 
ATOM      4  C   UNL     1       1.209  10.170  20.343  0.00  0.00    +0.000 A 
ATOM      5  N   UNL     1       0.581   9.793  21.498  0.00  0.00    +0.000 N 
ATOM      6  C   UNL     1       0.734   8.483  22.063  0.00  0.00    +0.000 C 
ATOM      7  C   UNL     1       1.132   7.455  21.008  0.00  0.00    +0.000 C 
ATOM      8  N   UNL     1       2.010   7.873  19.879  0.00  0.00    +0.000 NA
ATOM      9  C   UNL     1       1.631   9.175  19.267  0.00  0.00    +0.000 C 
ENDROOT
BRANCH   1  11
ATOM     10  C   UNL     1      -2.131  11.943  22.990  0.00  0.00    +0.000 C 
ATOM     11  C   UNL     1      -1.125  10.802  23.084  0.00  0.00    +0.000 C 
ENDBRANCH   1  11
BRANCH   8  12
ATOM     12  C   UNL     1       2.287   6.659  19.013  0.00  0.00    +0.000 C 
BRANCH  12  13
ATOM     13  C   UNL     1       2.095   5.238  19.581  0.00  0.00    +0.000 A 
ATOM     14  C   UNL     1       2.372   4.908  20.914  0.00  0.00    +0.000 A 
ATOM     15  C   UNL     1       2.030   3.650  21.437  0.00  0.00    +0.000 A 
ATOM     16  C   UNL     1       1.386   2.702  20.640  0.00  0.00    +0.000 A 
ATOM     17  C   UNL     1       1.059   3.013  19.323  0.00  0.00    +0.000 A 
ATOM     18  C   UNL     1       1.391   4.271  18.817  0.00  0.00    +0.000 A 
ENDBRANCH  12  13
BRANCH  12  19
ATOM     19  C   UNL     1       3.533   6.848  18.079  0.00  0.00    +0.000 C 
ATOM     20  O   UNL     1       3.546   7.703  17.192  0.00  0.00    +0.000 OA
ATOM     21  N   UNL     1       4.631   6.046  18.302  0.00  0.00    +0.000 N 
ATOM     22  C   UNL     1       5.874   6.245  17.603  0.00  0.00    +0.000 C 
ATOM     23  H   UNL     1       4.577   5.319  19.005  0.00  0.00    +0.000 HD
ENDBRANCH  12  19
ENDBRANCH   8  12
BRANCH   9  24
ATOM     24  C   UNL     1       0.555   9.188  18.116  0.00  0.00    +0.000 C 
BRANCH  24  25
ATOM     25  C   UNL     1      -0.214  10.526  18.080  0.00  0.00    +0.000 C 
BRANCH  25  26
ATOM     26  C   UNL     1      -1.706  10.685  17.997  0.00  0.00    +0.000 A 
ATOM     27  C   UNL     1      -2.573   9.933  17.214  0.00  0.00    +0.000 A 
ATOM     28  C   UNL     1      -3.953  10.194  17.264  0.00  0.00    +0.000 A 
ATOM     29  C   UNL     1      -4.474  11.203  18.094  0.00  0.00    +0.000 A 
ATOM     30  C   UNL     1      -3.604  11.920  18.915  0.00  0.00    +0.000 A 
ATOM     31  C   UNL     1      -2.241  11.663  18.862  0.00  0.00    +0.000 A 
BRANCH  29  32
ATOM     32  C   UNL     1      -5.932  11.558  18.106  0.00  0.00    +0.000 C 
ATOM     33  F   UNL     1      -6.288  12.404  19.113  0.00  0.00    +0.000 F 
ATOM     34  F   UNL     1      -6.348  12.161  16.955  0.00  0.00    +0.000 F 
ATOM     35  F   UNL     1      -6.732  10.459  18.253  0.00  0.00    +0.000 F 
ENDBRANCH  29  32
ENDBRANCH  25  26
ENDBRANCH  24  25
ENDBRANCH   9  24
TORSDOF 8
ENDMDL
MODEL 8
REMARK VINA RESULT:      -8.4      2.191      5.934
REMARK  Name = 
REMARK  10 active torsions:
REMARK  status: ('A' for Active; 'I' for Inactive)
REMARK    1  A    between atoms: C_1  and  C_2
REMARK    2  A    between atoms: C_2  and  C_3
REMARK    3  A    between atoms: N_10  and  C_11
REMARK    4  A    between atoms: C_11  and  C_12
REMARK    5  A    between atoms: C_11  and  C_16
REMARK    6  A    between atoms: N_14  and  C_15
REMARK    7  A    between atoms: C_22  and  C_23
REMARK    8  A    between atoms: C_23  and  C_24
REMARK    9  A    between atoms: C_24  and  C_25
REMARK   10  A    between atoms: C_28  and  C_29
REMARK                            x       y       z     vdW  Elec       q    Type
REMARK                         _______ _______ _______ _____ _____    ______ ____
ROOT
ATOM      1  C   UNL     1       7.630   6.741  17.560  0.00  0.00    +0.000 A 
ATOM      2  N   UNL     1       7.665   6.610  16.247  0.00  0.00    +0.000 NA
ATOM      3  C   UNL     1       6.997   5.441  15.971  0.00  0.00    +0.000 A 
ATOM      4  C   UNL     1       6.458   4.899  17.125  0.00  0.00    +0.000 A 
ATOM      5  N   UNL     1       7.069   5.620  18.112  0.00  0.00    +0.000 N 
ATOM      6  C   UNL     1       7.148   5.154  19.467  0.00  0.00    +0.000 C 
ATOM      7  C   UNL     1       6.037   4.157  19.787  0.00  0.00    +0.000 C 
ATOM      8  N   UNL     1       5.558   3.234  18.721  0.00  0.00    +0.000 NA
ATOM      9  C   UNL     1       5.351   3.888  17.402  0.00  0.00    +0.000 C 
ENDROOT
BRANCH   1  11
ATOM     10  C   UNL     1       7.820   9.238  17.637  0.00  0.00    +0.000 C 
ATOM     11  C   UNL     1       8.124   7.918  18.336  0.00  0.00    +0.000 C 
ENDBRANCH   1  11
BRANCH   8  12
ATOM     12  C   UNL     1       4.497   2.327  19.314  0.00  0.00    +0.000 C 
BRANCH  12  13
ATOM     13  C   UNL     1       3.071   2.858  19.567  0.00  0.00    +0.000 A 
ATOM     14  C   UNL     1       2.026   2.694  18.648  0.00  0.00    +0.000 A 
ATOM     15  C   UNL     1       0.706   3.043  18.982  0.00  0.00    +0.000 A 
ATOM     16  C   UNL     1       0.403   3.546  20.248  0.00  0.00    +0.000 A 
ATOM     17  C   UNL     1       1.412   3.682  21.197  0.00  0.00    +0.000 A 
ATOM     18  C   UNL     1       2.718   3.320  20.861  0.00  0.00    +0.000 A 
ENDBRANCH  12  13
BRANCH  12  19
ATOM     19  C   UNL     1       5.063   1.367  20.418  0.00  0.00    +0.000 C 
ATOM     20  O   UNL     1       5.026   1.671  21.612  0.00  0.00    +0.000 OA
ATOM     21  N   UNL     1       5.576   0.154  20.014  0.00  0.00    +0.000 N 
ATOM     22  C   UNL     1       5.978  -0.856  20.959  0.00  0.00    +0.000 C 
ATOM     23  H   UNL     1       5.640  -0.050  19.024  0.00  0.00    +0.000 HD
ENDBRANCH  12  19
ENDBRANCH   8  12
BRANCH   9  24
ATOM     24  C   UNL     1       3.960   4.566  17.101  0.00  0.00    +0.000 C 
BRANCH  24  25
ATOM     25  C   UNL     1       4.047   6.103  17.211  0.00  0.00    +0.000 C 
BRANCH  25  26
ATOM     26  C   UNL     1       3.171   6.978  18.063  0.00  0.00    +0.000 A 
ATOM     27  C   UNL     1       2.576   8.173  17.678  0.00  0.00    +0.000 A 
ATOM     28  C   UNL     1       1.764   8.867  18.591  0.00  0.00    +0.000 A 
ATOM     29  C   UNL     1       1.542   8.373  19.889  0.00  0.00    +0.000 A 
ATOM     30  C   UNL     1       2.100   7.148  20.252  0.00  0.00    +0.000 A 
ATOM     31  C   UNL     1       2.905   6.466  19.351  0.00  0.00    +0.000 A 
BRANCH  29  32
ATOM     32  C   UNL     1       0.746   9.133  20.910  0.00  0.00    +0.000 C 
ATOM     33  F   UNL     1       0.867   8.649  22.178  0.00  0.00    +0.000 F 
ATOM     34  F   UNL     1       1.090  10.452  20.985  0.00  0.00    +0.000 F 
ATOM     35  F   UNL     1      -0.593   9.119  20.640  0.00  0.00    +0.000 F 
ENDBRANCH  29  32
ENDBRANCH  25  26
ENDBRANCH  24  25
ENDBRANCH   9  24
TORSDOF 8
ENDMDL
MODEL 9
REMARK VINA RESULT:      -8.4      1.408      1.995
REMARK  Name = 
REMARK  10 active torsions:
REMARK  status: ('A' for Active; 'I' for Inactive)
REMARK    1  A    between atoms: C_1  and  C_2
REMARK    2  A    between atoms: C_2  and  C_3
REMARK    3  A    between atoms: N_10  and  C_11
REMARK    4  A    between atoms: C_11  and  C_12
REMARK    5  A    between atoms: C_11  and  C_16
REMARK    6  A    between atoms: N_14  and  C_15
REMARK    7  A    between atoms: C_22  and  C_23
REMARK    8  A    between atoms: C_23  and  C_24
REMARK    9  A    between atoms: C_24  and  C_25
REMARK   10  A    between atoms: C_28  and  C_29
REMARK                            x       y       z     vdW  Elec       q    Type
REMARK                         _______ _______ _______ _____ _____    ______ ____
ROOT
ATOM      1  C   UNL     1       1.915   3.481  20.267  0.00  0.00    +0.000 A 
ATOM      2  N   UNL     1       1.432   4.426  21.051  0.00  0.00    +0.000 NA
ATOM      3  C   UNL     1       2.174   5.551  20.781  0.00  0.00    +0.000 A 
ATOM      4  C   UNL     1       3.059   5.317  19.743  0.00  0.00    +0.000 A 
ATOM      5  N   UNL     1       3.019   3.957  19.611  0.00  0.00    +0.000 N 
ATOM      6  C   UNL     1       4.060   3.217  18.957  0.00  0.00    +0.000 C 
ATOM      7  C   UNL     1       4.835   4.086  17.969  0.00  0.00    +0.000 C 
ATOM      8  N   UNL     1       5.042   5.529  18.275  0.00  0.00    +0.000 NA
ATOM      9  C   UNL     1       3.827   6.220  18.784  0.00  0.00    +0.000 C 
ENDROOT
BRANCH   1  11
ATOM     10  C   UNL     1       0.558   1.946  18.824  0.00  0.00    +0.000 C 
ATOM     11  C   UNL     1       1.359   2.103  20.112  0.00  0.00    +0.000 C 
ENDBRANCH   1  11
BRANCH   8  12
ATOM     12  C   UNL     1       5.875   6.139  17.164  0.00  0.00    +0.000 C 
BRANCH  12  13
ATOM     13  C   UNL     1       6.139   5.350  15.865  0.00  0.00    +0.000 A 
ATOM     14  C   UNL     1       5.124   4.696  15.154  0.00  0.00    +0.000 A 
ATOM     15  C   UNL     1       5.372   4.130  13.893  0.00  0.00    +0.000 A 
ATOM     16  C   UNL     1       6.637   4.221  13.309  0.00  0.00    +0.000 A 
ATOM     17  C   UNL     1       7.656   4.900  13.972  0.00  0.00    +0.000 A 
ATOM     18  C   UNL     1       7.396   5.471  15.219  0.00  0.00    +0.000 A 
ENDBRANCH  12  13
BRANCH  12  19
ATOM     19  C   UNL     1       7.088   6.976  17.701  0.00  0.00    +0.000 C 
ATOM     20  O   UNL     1       7.975   6.456  18.382  0.00  0.00    +0.000 OA
ATOM     21  N   UNL     1       7.151   8.310  17.361  0.00  0.00    +0.000 N 
ATOM     22  C   UNL     1       8.297   9.123  17.675  0.00  0.00    +0.000 C 
ATOM     23  H   UNL     1       6.385   8.723  16.843  0.00  0.00    +0.000 HD
ENDBRANCH  12  19
ENDBRANCH   8  12
BRANCH   9  24
ATOM     24  C   UNL     1       2.813   6.835  17.746  0.00  0.00    +0.000 C 
BRANCH  24  25
ATOM     25  C   UNL     1       2.929   8.373  17.691  0.00  0.00    +0.000 C 
BRANCH  25  26
ATOM     26  C   UNL     1       1.817   9.352  17.948  0.00  0.00    +0.000 A 
ATOM     27  C   UNL     1       0.456   9.074  17.946  0.00  0.00    +0.000 A 
ATOM     28  C   UNL     1      -0.460  10.101  18.226  0.00  0.00    +0.000 A 
ATOM     29  C   UNL     1      -0.025  11.409  18.510  0.00  0.00    +0.000 A 
ATOM     30  C   UNL     1       1.344  11.669  18.561  0.00  0.00    +0.000 A 
ATOM     31  C   UNL     1       2.248  10.655  18.280  0.00  0.00    +0.000 A 
BRANCH  29  32
ATOM     32  C   UNL     1      -0.984  12.542  18.733  0.00  0.00    +0.000 C 
ATOM     33  F   UNL     1      -0.638  13.694  18.092  0.00  0.00    +0.000 F 
ATOM     34  F   UNL     1      -2.254  12.259  18.323  0.00  0.00    +0.000 F 
ATOM     35  F   UNL     1      -1.093  12.878  20.053  0.00  0.00    +0.000 F 
ENDBRANCH  29  32
ENDBRANCH  25  26
ENDBRANCH  24  25
ENDBRANCH   9  24
TORSDOF 8
ENDMDL
