MODEL 1
REMARK VINA RESULT:      -7.0      0.000      0.000
REMARK  Name = 
REMARK  9 active torsions:
REMARK  status: ('A' for Active; 'I' for Inactive)
REMARK    1  A    between atoms: C_1  and  C_2
REMARK    2  A    between atoms: C_2  and  C_3
REMARK    3  A    between atoms: C_2  and  N_4
REMARK    4  A    between atoms: N_4  and  S_5
REMARK    5  A    between atoms: S_5  and  C_8
REMARK    6  A    between atoms: C_11  and  O_12
REMARK    7  A    between atoms: O_12  and  C_13
REMARK    8  A    between atoms: C_13  and  C_14
REMARK    9  A    between atoms: N_19  and  C_20
REMARK                            x       y       z     vdW  Elec       q    Type
REMARK                         _______ _______ _______ _____ _____    ______ ____
ROOT
ATOM      1  C   UNL     1       5.466   5.348  18.560  0.00  0.00    +0.000 A 
ATOM      2  C   UNL     1       5.092   6.280  17.590  0.00  0.00    +0.000 A 
ATOM      3  C   UNL     1       6.025   7.213  17.145  0.00  0.00    +0.000 A 
ATOM      4  C   UNL     1       7.309   7.249  17.692  0.00  0.00    +0.000 A 
ATOM      5  C   UNL     1       7.680   6.324  18.669  0.00  0.00    +0.000 A 
ATOM      6  C   UNL     1       6.754   5.375  19.113  0.00  0.00    +0.000 A 
ENDROOT
BRANCH   1   7
ATOM      7  S   UNL     1       4.320   4.076  19.066  0.00  0.00    +0.000 S 
ATOM      8  O   UNL     1       5.057   3.014  19.700  0.00  0.00    +0.000 OA
ATOM      9  O   UNL     1       3.455   3.846  17.927  0.00  0.00    +0.000 OA
BRANCH   7  10
ATOM     10  N   UNL     1       3.396   4.878  20.255  0.00  0.00    +0.000 NA
ATOM     11  H   UNL     1       3.627   4.547  21.191  0.00  0.00    +0.000 HD
BRANCH  10  13
ATOM     12  C   UNL     1       1.146   3.887  20.619  0.00  0.00    +0.000 C 
ATOM     13  C   UNL     1       1.938   5.038  20.021  0.00  0.00    +0.000 C 
ATOM     14  C   UNL     1       1.471   6.352  20.647  0.00  0.00    +0.000 C 
ENDBRANCH  10  13
ENDBRANCH   7  10
ENDBRANCH   1   7
BRANCH   4  15
ATOM     15  O   UNL     1       8.122   8.216  17.174  0.00  0.00    +0.000 OA
BRANCH  15  16
ATOM     16  C   UNL     1       7.873   9.550  17.609  0.00  0.00    +0.000 C 
BRANCH  16  17
ATOM     17  C   UNL     1       8.969   9.940  18.603  0.00  0.00    +0.000 C 
ATOM     18  O   UNL     1       9.238   9.200  19.554  0.00  0.00    +0.000 OA
ATOM     19  N   UNL     1       9.642  11.145  18.387  0.00  0.00    +0.000 N 
ATOM     20  C   UNL     1      10.731  11.465  19.312  0.00  0.00    +0.000 C 
ATOM     21  C   UNL     1      11.667  12.567  18.781  0.00  0.00    +0.000 C 
ATOM     22  N   UNL     1      10.983  13.783  18.299  0.00  0.00    +0.000 NA
ATOM     23  C   UNL     1      10.420  14.560  19.402  0.00  0.00    +0.000 C 
ATOM     24  C   UNL     1       9.957  13.399  17.312  0.00  0.00    +0.000 C 
ATOM     25  C   UNL     1       8.978  12.301  17.773  0.00  0.00    +0.000 C 
ENDBRANCH  16  17
ENDBRANCH  15  16
ENDBRANCH   4  15
TORSDOF 6
ENDMDL
MODEL 2
REMARK VINA RESULT:      -7.0      1.091      1.244
REMARK  Name = 
REMARK  9 active torsions:
REMARK  status: ('A' for Active; 'I' for Inactive)
REMARK    1  A    between atoms: C_1  and  C_2
REMARK    2  A    between atoms: C_2  and  C_3
REMARK    3  A    between atoms: C_2  and  N_4
REMARK    4  A    between atoms: N_4  and  S_5
REMARK    5  A    between atoms: S_5  and  C_8
REMARK    6  A    between atoms: C_11  and  O_12
REMARK    7  A    between atoms: O_12  and  C_13
REMARK    8  A    between atoms: C_13  and  C_14
REMARK    9  A    between atoms: N_19  and  C_20
REMARK                            x       y       z     vdW  Elec       q    Type
REMARK                         _______ _______ _______ _____ _____    ______ ____
ROOT
ATOM      1  C   UNL     1       6.059   5.608  18.302  0.00  0.00    +0.000 A 
ATOM      2  C   UNL     1       5.893   6.640  17.375  0.00  0.00    +0.000 A 
ATOM      3  C   UNL     1       6.863   7.635  17.283  0.00  0.00    +0.000 A 
ATOM      4  C   UNL     1       7.968   7.631  18.136  0.00  0.00    +0.000 A 
ATOM      5  C   UNL     1       8.128   6.605  19.069  0.00  0.00    +0.000 A 
ATOM      6  C   UNL     1       7.167   5.593  19.160  0.00  0.00    +0.000 A 
ENDROOT
BRANCH   1   7
ATOM      7  S   UNL     1       4.884   4.265  18.362  0.00  0.00    +0.000 S 
ATOM      8  O   UNL     1       5.274   3.355  19.408  0.00  0.00    +0.000 OA
ATOM      9  O   UNL     1       4.702   3.836  16.991  0.00  0.00    +0.000 OA
BRANCH   7  10
ATOM     10  N   UNL     1       3.453   5.061  18.842  0.00  0.00    +0.000 NA
ATOM     11  H   UNL     1       3.649   5.807  19.509  0.00  0.00    +0.000 HD
BRANCH  10  13
ATOM     12  C   UNL     1       1.485   4.848  20.344  0.00  0.00    +0.000 C 
ATOM     13  C   UNL     1       2.276   4.231  19.203  0.00  0.00    +0.000 C 
ATOM     14  C   UNL     1       1.370   4.087  17.980  0.00  0.00    +0.000 C 
ENDBRANCH  10  13
ENDBRANCH   7  10
ENDBRANCH   1   7
BRANCH   4  15
ATOM     15  O   UNL     1       8.838   8.666  17.947  0.00  0.00    +0.000 OA
BRANCH  15  16
ATOM     16  C   UNL     1       8.330   9.972  18.203  0.00  0.00    +0.000 C 
BRANCH  16  17
ATOM     17  C   UNL     1       9.230  10.639  19.245  0.00  0.00    +0.000 C 
ATOM     18  O   UNL     1       9.105  10.365  20.442  0.00  0.00    +0.000 OA
ATOM     19  N   UNL     1      10.185  11.551  18.789  0.00  0.00    +0.000 N 
ATOM     20  C   UNL     1      11.080  12.125  19.796  0.00  0.00    +0.000 C 
ATOM     21  C   UNL     1      12.333  12.780  19.184  0.00  0.00    +0.000 C 
ATOM     22  N   UNL     1      12.064  13.728  18.085  0.00  0.00    +0.000 NA
ATOM     23  C   UNL     1      11.454  14.963  18.573  0.00  0.00    +0.000 C 
ATOM     24  C   UNL     1      11.230  13.062  17.067  0.00  0.00    +0.000 C 
ATOM     25  C   UNL     1       9.953  12.385  17.604  0.00  0.00    +0.000 C 
ENDBRANCH  16  17
ENDBRANCH  15  16
ENDBRANCH   4  15
TORSDOF 6
ENDMDL
MODEL 3
REMARK VINA RESULT:      -6.9      6.965      9.903
REMARK  Name = 
REMARK  9 active torsions:
REMARK  status: ('A' for Active; 'I' for Inactive)
REMARK    1  A    between atoms: C_1  and  C_2
REMARK    2  A    between atoms: C_2  and  C_3
REMARK    3  A    between atoms: C_2  and  N_4
REMARK    4  A    between atoms: N_4  and  S_5
REMARK    5  A    between atoms: S_5  and  C_8
REMARK    6  A    between atoms: C_11  and  O_12
REMARK    7  A    between atoms: O_12  and  C_13
REMARK    8  A    between atoms: C_13  and  C_14
REMARK    9  A    between atoms: N_19  and  C_20
REMARK                            x       y       z     vdW  Elec       q    Type
REMARK                         _______ _______ _______ _____ _____    ______ ____
ROOT
ATOM      1  C   UNL     1      -0.416  10.920  19.082  0.00  0.00    +0.000 A 
ATOM      2  C   UNL     1      -0.489  10.483  20.407  0.00  0.00    +0.000 A 
ATOM      3  C   UNL     1       0.374   9.481  20.844  0.00  0.00    +0.000 A 
ATOM      4  C   UNL     1       1.275   8.885  19.959  0.00  0.00    +0.000 A 
ATOM      5  C   UNL     1       1.342   9.316  18.633  0.00  0.00    +0.000 A 
ATOM      6  C   UNL     1       0.488  10.330  18.188  0.00  0.00    +0.000 A 
ENDROOT
BRANCH   1   7
ATOM      7  S   UNL     1      -1.438  12.276  18.531  0.00  0.00    +0.000 S 
ATOM      8  O   UNL     1      -0.616  13.452  18.403  0.00  0.00    +0.000 OA
ATOM      9  O   UNL     1      -2.621  12.245  19.366  0.00  0.00    +0.000 OA
BRANCH   7  10
ATOM     10  N   UNL     1      -1.900  11.766  16.970  0.00  0.00    +0.000 NA
ATOM     11  H   UNL     1      -1.737  12.495  16.277  0.00  0.00    +0.000 HD
BRANCH  10  13
ATOM     12  C   UNL     1      -3.599  10.943  15.355  0.00  0.00    +0.000 C 
ATOM     13  C   UNL     1      -3.207  11.076  16.816  0.00  0.00    +0.000 C 
ATOM     14  C   UNL     1      -3.116   9.685  17.444  0.00  0.00    +0.000 C 
ENDBRANCH  10  13
ENDBRANCH   7  10
ENDBRANCH   1   7
BRANCH   4  15
ATOM     15  O   UNL     1       2.057   7.913  20.512  0.00  0.00    +0.000 OA
BRANCH  15  16
ATOM     16  C   UNL     1       2.561   6.924  19.618  0.00  0.00    +0.000 C 
BRANCH  16  17
ATOM     17  C   UNL     1       2.024   5.562  20.060  0.00  0.00    +0.000 C 
ATOM     18  O   UNL     1       1.451   5.442  21.146  0.00  0.00    +0.000 OA
ATOM     19  N   UNL     1       2.204   4.481  19.193  0.00  0.00    +0.000 N 
ATOM     20  C   UNL     1       1.622   3.202  19.607  0.00  0.00    +0.000 C 
ATOM     21  C   UNL     1       1.503   2.193  18.449  0.00  0.00    +0.000 C 
ATOM     22  N   UNL     1       2.736   2.004  17.660  0.00  0.00    +0.000 NA
ATOM     23  C   UNL     1       3.753   1.273  18.414  0.00  0.00    +0.000 C 
ATOM     24  C   UNL     1       3.223   3.320  17.205  0.00  0.00    +0.000 C 
ATOM     25  C   UNL     1       3.372   4.385  18.310  0.00  0.00    +0.000 C 
ENDBRANCH  16  17
ENDBRANCH  15  16
ENDBRANCH   4  15
TORSDOF 6
ENDMDL
MODEL 4
REMARK VINA RESULT:      -6.8      5.753      7.710
REMARK  Name = 
REMARK  9 active torsions:
REMARK  status: ('A' for Active; 'I' for Inactive)
REMARK    1  A    between atoms: C_1  and  C_2
REMARK    2  A    between atoms: C_2  and  C_3
REMARK    3  A    between atoms: C_2  and  N_4
REMARK    4  A    between atoms: N_4  and  S_5
REMARK    5  A    between atoms: S_5  and  C_8
REMARK    6  A    between atoms: C_11  and  O_12
REMARK    7  A    between atoms: O_12  and  C_13
REMARK    8  A    between atoms: C_13  and  C_14
REMARK    9  A    between atoms: N_19  and  C_20
REMARK                            x       y       z     vdW  Elec       q    Type
REMARK                         _______ _______ _______ _____ _____    ______ ____
ROOT
ATOM      1  C   UNL     1       5.520   5.214  16.419  0.00  0.00    +0.000 A 
ATOM      2  C   UNL     1       5.232   6.578  16.501  0.00  0.00    +0.000 A 
ATOM      3  C   UNL     1       4.156   7.003  17.277  0.00  0.00    +0.000 A 
ATOM      4  C   UNL     1       3.344   6.075  17.933  0.00  0.00    +0.000 A 
ATOM      5  C   UNL     1       3.627   4.711  17.843  0.00  0.00    +0.000 A 
ATOM      6  C   UNL     1       4.712   4.275  17.077  0.00  0.00    +0.000 A 
ENDROOT
BRANCH   1   7
ATOM      7  S   UNL     1       6.957   4.657  15.518  0.00  0.00    +0.000 S 
ATOM      8  O   UNL     1       7.813   3.927  16.418  0.00  0.00    +0.000 OA
ATOM      9  O   UNL     1       7.422   5.804  14.766  0.00  0.00    +0.000 OA
BRANCH   7  10
ATOM     10  N   UNL     1       6.278   3.557  14.405  0.00  0.00    +0.000 NA
ATOM     11  H   UNL     1       6.735   2.647  14.456  0.00  0.00    +0.000 HD
BRANCH  10  13
ATOM     12  C   UNL     1       7.182   3.659  12.093  0.00  0.00    +0.000 C 
ATOM     13  C   UNL     1       6.033   4.025  13.017  0.00  0.00    +0.000 C 
ATOM     14  C   UNL     1       4.744   3.392  12.495  0.00  0.00    +0.000 C 
ENDBRANCH  10  13
ENDBRANCH   7  10
ENDBRANCH   1   7
BRANCH   4  15
ATOM     15  O   UNL     1       2.321   6.622  18.653  0.00  0.00    +0.000 OA
BRANCH  15  16
ATOM     16  C   UNL     1       2.198   8.041  18.597  0.00  0.00    +0.000 C 
BRANCH  16  17
ATOM     17  C   UNL     1       1.481   8.508  19.865  0.00  0.00    +0.000 C 
ATOM     18  O   UNL     1       1.370   7.749  20.832  0.00  0.00    +0.000 OA
ATOM     19  N   UNL     1       0.973   9.809  19.882  0.00  0.00    +0.000 N 
ATOM     20  C   UNL     1       0.352  10.257  21.129  0.00  0.00    +0.000 C 
ATOM     21  C   UNL     1       0.194  11.788  21.207  0.00  0.00    +0.000 C 
ATOM     22  N   UNL     1      -0.438  12.408  20.027  0.00  0.00    +0.000 NA
ATOM     23  C   UNL     1      -1.865  12.098  19.952  0.00  0.00    +0.000 C 
ATOM     24  C   UNL     1       0.285  11.983  18.813  0.00  0.00    +0.000 C 
ATOM     25  C   UNL     1       0.480  10.461  18.663  0.00  0.00    +0.000 C 
ENDBRANCH  16  17
ENDBRANCH  15  16
ENDBRANCH   4  15
TORSDOF 6
ENDMDL
MODEL 5
REMARK VINA RESULT:      -6.8      6.188      9.341
REMARK  Name = 
REMARK  9 active torsions:
REMARK  status: ('A' for Active; 'I' for Inactive)
REMARK    1  A    between atoms: C_1  and  C_2
REMARK    2  A    between atoms: C_2  and  C_3
REMARK    3  A    between atoms: C_2  and  N_4
REMARK    4  A    between atoms: N_4  and  S_5
REMARK    5  A    between atoms: S_5  and  C_8
REMARK    6  A    between atoms: C_11  and  O_12
REMARK    7  A    between atoms: O_12  and  C_13
REMARK    8  A    between atoms: C_13  and  C_14
REMARK    9  A    between atoms: N_19  and  C_20
REMARK                            x       y       z     vdW  Elec       q    Type
REMARK                         _______ _______ _______ _____ _____    ______ ____
ROOT
ATOM      1  C   UNL     1      -0.262  11.027  19.256  0.00  0.00    +0.000 A 
ATOM      2  C   UNL     1       0.473  10.696  18.115  0.00  0.00    +0.000 A 
ATOM      3  C   UNL     1       1.310   9.583  18.142  0.00  0.00    +0.000 A 
ATOM      4  C   UNL     1       1.450   8.829  19.309  0.00  0.00    +0.000 A 
ATOM      5  C   UNL     1       0.722   9.166  20.451  0.00  0.00    +0.000 A 
ATOM      6  C   UNL     1      -0.131  10.274  20.430  0.00  0.00    +0.000 A 
ENDROOT
BRANCH   1   7
ATOM      7  S   UNL     1      -1.421  12.385  19.208  0.00  0.00    +0.000 S 
ATOM      8  O   UNL     1      -0.690  13.611  19.024  0.00  0.00    +0.000 OA
ATOM      9  O   UNL     1      -2.319  12.178  20.326  0.00  0.00    +0.000 OA
BRANCH   7  10
ATOM     10  N   UNL     1      -2.298  12.058  17.782  0.00  0.00    +0.000 NA
ATOM     11  H   UNL     1      -2.461  12.907  17.242  0.00  0.00    +0.000 HD
BRANCH  10  13
ATOM     12  C   UNL     1      -4.643  11.700  17.043  0.00  0.00    +0.000 C 
ATOM     13  C   UNL     1      -3.488  11.174  17.877  0.00  0.00    +0.000 C 
ATOM     14  C   UNL     1      -3.112   9.774  17.392  0.00  0.00    +0.000 C 
ENDBRANCH  10  13
ENDBRANCH   7  10
ENDBRANCH   1   7
BRANCH   4  15
ATOM     15  O   UNL     1       2.305   7.770  19.203  0.00  0.00    +0.000 OA
BRANCH  15  16
ATOM     16  C   UNL     1       2.709   7.414  17.884  0.00  0.00    +0.000 C 
BRANCH  16  17
ATOM     17  C   UNL     1       3.887   6.444  17.990  0.00  0.00    +0.000 C 
ATOM     18  O   UNL     1       5.010   6.786  17.610  0.00  0.00    +0.000 OA
ATOM     19  N   UNL     1       3.640   5.180  18.532  0.00  0.00    +0.000 N 
ATOM     20  C   UNL     1       4.795   4.294  18.686  0.00  0.00    +0.000 C 
ATOM     21  C   UNL     1       4.526   3.115  19.641  0.00  0.00    +0.000 C 
ATOM     22  N   UNL     1       3.290   2.360  19.362  0.00  0.00    +0.000 NA
ATOM     23  C   UNL     1       3.407   1.562  18.143  0.00  0.00    +0.000 C 
ATOM     24  C   UNL     1       2.154   3.300  19.302  0.00  0.00    +0.000 C 
ATOM     25  C   UNL     1       2.348   4.506  18.362  0.00  0.00    +0.000 C 
ENDBRANCH  16  17
ENDBRANCH  15  16
ENDBRANCH   4  15
TORSDOF 6
ENDMDL
MODEL 6
REMARK VINA RESULT:      -6.8      4.709      7.570
REMARK  Name = 
REMARK  9 active torsions:
REMARK  status: ('A' for Active; 'I' for Inactive)
REMARK    1  A    between atoms: C_1  and  C_2
REMARK    2  A    between atoms: C_2  and  C_3
REMARK    3  A    between atoms: C_2  and  N_4
REMARK    4  A    between atoms: N_4  and  S_5
REMARK    5  A    between atoms: S_5  and  C_8
REMARK    6  A    between atoms: C_11  and  O_12
REMARK    7  A    between atoms: O_12  and  C_13
REMARK    8  A    between atoms: C_13  and  C_14
REMARK    9  A    between atoms: N_19  and  C_20
REMARK                            x       y       z     vdW  Elec       q    Type
REMARK                         _______ _______ _______ _____ _____    ______ ____
ROOT
ATOM      1  C   UNL     1       1.148   9.931  19.341  0.00  0.00    +0.000 A 
ATOM      2  C   UNL     1       0.963   9.309  20.579  0.00  0.00    +0.000 A 
ATOM      3  C   UNL     1       1.350   7.981  20.738  0.00  0.00    +0.000 A 
ATOM      4  C   UNL     1       1.876   7.261  19.664  0.00  0.00    +0.000 A 
ATOM      5  C   UNL     1       2.052   7.880  18.425  0.00  0.00    +0.000 A 
ATOM      6  C   UNL     1       1.679   9.217  18.258  0.00  0.00    +0.000 A 
ENDROOT
BRANCH   1   7
ATOM      7  S   UNL     1       0.760  11.663  19.146  0.00  0.00    +0.000 S 
ATOM      8  O   UNL     1       1.896  12.329  18.563  0.00  0.00    +0.000 OA
ATOM      9  O   UNL     1       0.177  12.083  20.403  0.00  0.00    +0.000 OA
BRANCH   7  10
ATOM     10  N   UNL     1      -0.495  11.621  17.991  0.00  0.00    +0.000 NA
ATOM     11  H   UNL     1      -0.717  12.555  17.648  0.00  0.00    +0.000 HD
BRANCH  10  13
ATOM     12  C   UNL     1      -2.907  11.656  18.587  0.00  0.00    +0.000 C 
ATOM     13  C   UNL     1      -1.693  10.794  18.287  0.00  0.00    +0.000 C 
ATOM     14  C   UNL     1      -1.993   9.899  17.084  0.00  0.00    +0.000 C 
ENDBRANCH  10  13
ENDBRANCH   7  10
ENDBRANCH   1   7
BRANCH   4  15
ATOM     15  O   UNL     1       2.207   5.968  19.952  0.00  0.00    +0.000 OA
BRANCH  15  16
ATOM     16  C   UNL     1       2.501   5.129  18.839  0.00  0.00    +0.000 C 
BRANCH  16  17
ATOM     17  C   UNL     1       3.937   4.622  18.989  0.00  0.00    +0.000 C 
ATOM     18  O   UNL     1       4.216   3.792  19.858  0.00  0.00    +0.000 OA
ATOM     19  N   UNL     1       4.899   5.128  18.111  0.00  0.00    +0.000 N 
ATOM     20  C   UNL     1       6.251   4.580  18.228  0.00  0.00    +0.000 C 
ATOM     21  C   UNL     1       7.128   4.870  16.995  0.00  0.00    +0.000 C 
ATOM     22  N   UNL     1       7.145   6.282  16.565  0.00  0.00    +0.000 NA
ATOM     23  C   UNL     1       7.889   7.123  17.500  0.00  0.00    +0.000 C 
ATOM     24  C   UNL     1       5.757   6.748  16.385  0.00  0.00    +0.000 C 
ATOM     25  C   UNL     1       4.818   6.494  17.581  0.00  0.00    +0.000 C 
ENDBRANCH  16  17
ENDBRANCH  15  16
ENDBRANCH   4  15
TORSDOF 6
ENDMDL
MODEL 7
REMARK VINA RESULT:      -6.7      4.317      7.587
REMARK  Name = 
REMARK  9 active torsions:
REMARK  status: ('A' for Active; 'I' for Inactive)
REMARK    1  A    between atoms: C_1  and  C_2
REMARK    2  A    between atoms: C_2  and  C_3
REMARK    3  A    between atoms: C_2  and  N_4
REMARK    4  A    between atoms: N_4  and  S_5
REMARK    5  A    between atoms: S_5  and  C_8
REMARK    6  A    between atoms: C_11  and  O_12
REMARK    7  A    between atoms: O_12  and  C_13
REMARK    8  A    between atoms: C_13  and  C_14
REMARK    9  A    between atoms: N_19  and  C_20
REMARK                            x       y       z     vdW  Elec       q    Type
REMARK                         _______ _______ _______ _____ _____    ______ ____
ROOT
ATOM      1  C   UNL     1       4.563   5.790  17.254  0.00  0.00    +0.000 A 
ATOM      2  C   UNL     1       4.085   4.927  18.243  0.00  0.00    +0.000 A 
ATOM      3  C   UNL     1       3.087   5.368  19.109  0.00  0.00    +0.000 A 
ATOM      4  C   UNL     1       2.598   6.673  19.022  0.00  0.00    +0.000 A 
ATOM      5  C   UNL     1       3.084   7.538  18.040  0.00  0.00    +0.000 A 
ATOM      6  C   UNL     1       4.076   7.101  17.158  0.00  0.00    +0.000 A 
ENDROOT
BRANCH   1   7
ATOM      7  S   UNL     1       5.764   5.209  16.067  0.00  0.00    +0.000 S 
ATOM      8  O   UNL     1       5.586   5.936  14.837  0.00  0.00    +0.000 OA
ATOM      9  O   UNL     1       5.713   3.763  16.127  0.00  0.00    +0.000 OA
BRANCH   7  10
ATOM     10  N   UNL     1       7.236   5.698  16.777  0.00  0.00    +0.000 NA
ATOM     11  H   UNL     1       7.891   4.920  16.849  0.00  0.00    +0.000 HD
BRANCH  10  13
ATOM     12  C   UNL     1       7.908   5.898  19.161  0.00  0.00    +0.000 C 
ATOM     13  C   UNL     1       7.179   6.545  17.996  0.00  0.00    +0.000 C 
ATOM     14  C   UNL     1       7.815   7.902  17.693  0.00  0.00    +0.000 C 
ENDBRANCH  10  13
ENDBRANCH   7  10
ENDBRANCH   1   7
BRANCH   4  15
ATOM     15  O   UNL     1       1.629   6.980  19.933  0.00  0.00    +0.000 OA
BRANCH  15  16
ATOM     16  C   UNL     1       1.880   8.109  20.766  0.00  0.00    +0.000 C 
BRANCH  16  17
ATOM     17  C   UNL     1       0.555   8.839  20.994  0.00  0.00    +0.000 C 
ATOM     18  O   UNL     1      -0.336   8.314  21.668  0.00  0.00    +0.000 OA
ATOM     19  N   UNL     1       0.403  10.103  20.420  0.00  0.00    +0.000 N 
ATOM     20  C   UNL     1      -0.846  10.811  20.708  0.00  0.00    +0.000 C 
ATOM     21  C   UNL     1      -0.770  12.317  20.397  0.00  0.00    +0.000 C 
ATOM     22  N   UNL     1      -0.250  12.649  19.056  0.00  0.00    +0.000 NA
ATOM     23  C   UNL     1      -1.207  12.310  18.005  0.00  0.00    +0.000 C 
ATOM     24  C   UNL     1       1.047  11.973  18.862  0.00  0.00    +0.000 C 
ATOM     25  C   UNL     1       1.050  10.459  19.152  0.00  0.00    +0.000 C 
ENDBRANCH  16  17
ENDBRANCH  15  16
ENDBRANCH   4  15
TORSDOF 6
ENDMDL
MODEL 8
REMARK VINA RESULT:      -6.7      1.341      1.425
REMARK  Name = 
REMARK  9 active torsions:
REMARK  status: ('A' for Active; 'I' for Inactive)
REMARK    1  A    between atoms: C_1  and  C_2
REMARK    2  A    between atoms: C_2  and  C_3
REMARK    3  A    between atoms: C_2  and  N_4
REMARK    4  A    between atoms: N_4  and  S_5
REMARK    5  A    between atoms: S_5  and  C_8
REMARK    6  A    between atoms: C_11  and  O_12
REMARK    7  A    between atoms: O_12  and  C_13
REMARK    8  A    between atoms: C_13  and  C_14
REMARK    9  A    between atoms: N_19  and  C_20
REMARK                            x       y       z     vdW  Elec       q    Type
REMARK                         _______ _______ _______ _____ _____    ______ ____
ROOT
ATOM      1  C   UNL     1       5.653   5.697  18.020  0.00  0.00    +0.000 A 
ATOM      2  C   UNL     1       5.774   6.879  17.286  0.00  0.00    +0.000 A 
ATOM      3  C   UNL     1       6.892   7.688  17.475  0.00  0.00    +0.000 A 
ATOM      4  C   UNL     1       7.862   7.348  18.420  0.00  0.00    +0.000 A 
ATOM      5  C   UNL     1       7.736   6.172  19.161  0.00  0.00    +0.000 A 
ATOM      6  C   UNL     1       6.624   5.346  18.969  0.00  0.00    +0.000 A 
ENDROOT
BRANCH   1   7
ATOM      7  S   UNL     1       4.284   4.593  17.715  0.00  0.00    +0.000 S 
ATOM      8  O   UNL     1       4.730   3.530  16.851  0.00  0.00    +0.000 OA
ATOM      9  O   UNL     1       3.158   5.440  17.382  0.00  0.00    +0.000 OA
BRANCH   7  10
ATOM     10  N   UNL     1       3.994   3.944  19.266  0.00  0.00    +0.000 NA
ATOM     11  H   UNL     1       4.575   3.125  19.441  0.00  0.00    +0.000 HD
BRANCH  10  13
ATOM     12  C   UNL     1       2.165   2.321  19.706  0.00  0.00    +0.000 C 
ATOM     13  C   UNL     1       2.585   3.781  19.706  0.00  0.00    +0.000 C 
ATOM     14  C   UNL     1       2.431   4.351  21.116  0.00  0.00    +0.000 C 
ENDBRANCH  10  13
ENDBRANCH   7  10
ENDBRANCH   1   7
BRANCH   4  15
ATOM     15  O   UNL     1       8.901   8.229  18.512  0.00  0.00    +0.000 OA
BRANCH  15  16
ATOM     16  C   UNL     1       8.581   9.605  18.322  0.00  0.00    +0.000 C 
BRANCH  16  17
ATOM     17  C   UNL     1       9.298  10.416  19.403  0.00  0.00    +0.000 C 
ATOM     18  O   UNL     1       8.996  10.273  20.591  0.00  0.00    +0.000 OA
ATOM     19  N   UNL     1      10.295  11.305  18.993  0.00  0.00    +0.000 N 
ATOM     20  C   UNL     1      11.013  12.020  20.050  0.00  0.00    +0.000 C 
ATOM     21  C   UNL     1      12.333  12.647  19.562  0.00  0.00    +0.000 C 
ATOM     22  N   UNL     1      12.219  13.456  18.333  0.00  0.00    +0.000 NA
ATOM     23  C   UNL     1      11.518  14.715  18.578  0.00  0.00    +0.000 C 
ATOM     24  C   UNL     1      11.563  12.651  17.285  0.00  0.00    +0.000 C 
ATOM     25  C   UNL     1      10.232  11.992  17.699  0.00  0.00    +0.000 C 
ENDBRANCH  16  17
ENDBRANCH  15  16
ENDBRANCH   4  15
TORSDOF 6
ENDMDL
MODEL 9
REMARK VINA RESULT:      -6.7      4.960      6.856
REMARK  Name = 
REMARK  9 active torsions:
REMARK  status: ('A' for Active; 'I' for Inactive)
REMARK    1  A    between atoms: C_1  and  C_2
REMARK    2  A    between atoms: C_2  and  C_3
REMARK    3  A    between atoms: C_2  and  N_4
REMARK    4  A    between atoms: N_4  and  S_5
REMARK    5  A    between atoms: S_5  and  C_8
REMARK    6  A    between atoms: C_11  and  O_12
REMARK    7  A    between atoms: O_12  and  C_13
REMARK    8  A    between atoms: C_13  and  C_14
REMARK    9  A    between atoms: N_19  and  C_20
REMARK                            x       y       z     vdW  Elec       q    Type
REMARK                         _______ _______ _______ _____ _____    ______ ____
ROOT
ATOM      1  C   UNL     1       3.506   5.266  18.674  0.00  0.00    +0.000 A 
ATOM      2  C   UNL     1       2.844   5.374  19.900  0.00  0.00    +0.000 A 
ATOM      3  C   UNL     1       2.155   6.546  20.202  0.00  0.00    +0.000 A 
ATOM      4  C   UNL     1       2.161   7.622  19.312  0.00  0.00    +0.000 A 
ATOM      5  C   UNL     1       2.830   7.518  18.092  0.00  0.00    +0.000 A 
ATOM      6  C   UNL     1       3.514   6.340  17.773  0.00  0.00    +0.000 A 
ENDROOT
BRANCH   1   7
ATOM      7  S   UNL     1       4.303   3.734  18.222  0.00  0.00    +0.000 S 
ATOM      8  O   UNL     1       4.377   3.658  16.785  0.00  0.00    +0.000 OA
ATOM      9  O   UNL     1       3.668   2.706  19.020  0.00  0.00    +0.000 OA
BRANCH   7  10
ATOM     10  N   UNL     1       5.880   3.956  18.834  0.00  0.00    +0.000 NA
ATOM     11  H   UNL     1       5.895   3.900  19.852  0.00  0.00    +0.000 HD
BRANCH  10  13
ATOM     12  C   UNL     1       7.548   5.721  19.361  0.00  0.00    +0.000 C 
ATOM     13  C   UNL     1       6.695   5.071  18.286  0.00  0.00    +0.000 C 
ATOM     14  C   UNL     1       7.601   4.531  17.179  0.00  0.00    +0.000 C 
ENDBRANCH  10  13
ENDBRANCH   7  10
ENDBRANCH   1   7
BRANCH   4  15
ATOM     15  O   UNL     1       1.454   8.712  19.732  0.00  0.00    +0.000 OA
BRANCH  15  16
ATOM     16  C   UNL     1       1.055   9.633  18.721  0.00  0.00    +0.000 C 
BRANCH  16  17
ATOM     17  C   UNL     1       0.244  10.749  19.384  0.00  0.00    +0.000 C 
ATOM     18  O   UNL     1      -0.933  10.557  19.703  0.00  0.00    +0.000 OA
ATOM     19  N   UNL     1       0.885  11.969  19.614  0.00  0.00    +0.000 N 
ATOM     20  C   UNL     1       0.111  12.998  20.310  0.00  0.00    +0.000 C 
ATOM     21  C   UNL     1       0.989  14.129  20.879  0.00  0.00    +0.000 C 
ATOM     22  N   UNL     1       1.943  14.717  19.918  0.00  0.00    +0.000 NA
ATOM     23  C   UNL     1       1.264  15.526  18.908  0.00  0.00    +0.000 C 
ATOM     24  C   UNL     1       2.747  13.637  19.315  0.00  0.00    +0.000 C 
ATOM     25  C   UNL     1       1.937  12.468  18.720  0.00  0.00    +0.000 C 
ENDBRANCH  16  17
ENDBRANCH  15  16
ENDBRANCH   4  15
TORSDOF 6
ENDMDL
