MODEL 1
REMARK VINA RESULT:      -7.9      0.000      0.000
REMARK  Name = 
REMARK  3 active torsions:
REMARK  status: ('A' for Active; 'I' for Inactive)
REMARK    1  A    between atoms: C_2  and  O_3
REMARK    2  A    between atoms: C_2  and  C_4
REMARK    3  A    between atoms: C_8  and  C_9
REMARK                            x       y       z     vdW  Elec       q    Type
REMARK                         _______ _______ _______ _____ _____    ______ ____
ROOT
ATOM      1  C   UNL     1      -3.270  10.344  15.581  0.00  0.00    +0.000 A 
ATOM      2  C   UNL     1      -2.086   9.938  16.162  0.00  0.00    +0.000 A 
ATOM      3  C   UNL     1      -1.804  10.330  17.477  0.00  0.00    +0.000 A 
ATOM      4  C   UNL     1      -2.711  11.114  18.274  0.00  0.00    +0.000 A 
ATOM      5  C   UNL     1      -2.715  11.690  19.662  0.00  0.00    +0.000 A 
ATOM      6  C   UNL     1      -3.941  12.506  19.827  0.00  0.00    +0.000 A 
ATOM      7  N   UNL     1      -4.614  12.204  18.549  0.00  0.00    +0.000 N 
ATOM      8  C   UNL     1      -3.873  11.461  17.644  0.00  0.00    +0.000 A 
ATOM      9  C   UNL     1      -4.197  11.051  16.331  0.00  0.00    +0.000 A 
ATOM     10  C   UNL     1      -5.893  12.643  17.971  0.00  0.00    +0.000 C 
ATOM     11  C   UNL     1      -6.508  13.507  18.942  0.00  0.00    +0.000 C 
ATOM     12  C   UNL     1      -7.438  14.585  18.607  0.00  0.00    +0.000 C 
ATOM     13  C   UNL     1      -7.241  15.548  19.778  0.00  0.00    +0.000 C 
ATOM     14  N   UNL     1      -6.022  15.748  20.701  0.00  0.00    +0.000 N 
ATOM     15  C   UNL     1      -4.743  14.999  21.073  0.00  0.00    +0.000 A 
ATOM     16  C   UNL     1      -4.529  15.685  22.345  0.00  0.00    +0.000 A 
ATOM     17  C   UNL     1      -5.235  15.150  23.420  0.00  0.00    +0.000 A 
ATOM     18  C   UNL     1      -5.664  13.825  23.299  0.00  0.00    +0.000 A 
ATOM     19  C   UNL     1      -5.262  12.998  22.186  0.00  0.00    +0.000 A 
ATOM     20  C   UNL     1      -4.618  13.535  21.051  0.00  0.00    +0.000 A 
ATOM     21  H   UNL     1      -6.483  15.932  21.599  0.00  0.00    +0.000 HD
ENDROOT
BRANCH   5  22
ATOM     22  C   UNL     1      -1.383  11.231  20.416  0.00  0.00    +0.000 C 
ATOM     23  C   UNL     1      -1.127  11.842  21.825  0.00  0.00    +0.000 C 
ATOM     24  C   UNL     1      -0.939  10.830  22.939  0.00  0.00    +0.000 C 
ATOM     25  C   UNL     1       0.064   9.743  22.588  0.00  0.00    +0.000 C 
ATOM     26  C   UNL     1      -0.158   9.104  21.238  0.00  0.00    +0.000 C 
ATOM     27  C   UNL     1      -0.432  10.075  20.093  0.00  0.00    +0.000 C 
ENDBRANCH   5  22
BRANCH   1  29
ATOM     28  O   UNL     1      -4.675   9.765  13.723  0.00  0.00    +0.000 OA
ATOM     29  C   UNL     1      -3.562   9.971  14.152  0.00  0.00    +0.000 C 
BRANCH  29  30
ATOM     30  O   UNL     1      -2.436   9.880  13.409  0.00  0.00    +0.000 OA
ATOM     31  H   UNL     1      -2.543   9.372  12.572  0.00  0.00    +0.000 HD
ENDBRANCH  29  30
ENDBRANCH   1  29
TORSDOF 3
ENDMDL
MODEL 2
REMARK VINA RESULT:      -7.3      4.122      5.760
REMARK  Name = 
REMARK  3 active torsions:
REMARK  status: ('A' for Active; 'I' for Inactive)
REMARK    1  A    between atoms: C_2  and  O_3
REMARK    2  A    between atoms: C_2  and  C_4
REMARK    3  A    between atoms: C_8  and  C_9
REMARK                            x       y       z     vdW  Elec       q    Type
REMARK                         _______ _______ _______ _____ _____    ______ ____
ROOT
ATOM      1  C   UNL     1       1.179  16.071  19.062  0.00  0.00    +0.000 A 
ATOM      2  C   UNL     1       1.262  14.848  18.430  0.00  0.00    +0.000 A 
ATOM      3  C   UNL     1       0.361  13.835  18.786  0.00  0.00    +0.000 A 
ATOM      4  C   UNL     1      -0.679  14.019  19.764  0.00  0.00    +0.000 A 
ATOM      5  C   UNL     1      -1.767  13.172  20.363  0.00  0.00    +0.000 A 
ATOM      6  C   UNL     1      -2.442  13.956  21.424  0.00  0.00    +0.000 A 
ATOM      7  N   UNL     1      -1.766  15.255  21.239  0.00  0.00    +0.000 N 
ATOM      8  C   UNL     1      -0.717  15.260  20.333  0.00  0.00    +0.000 A 
ATOM      9  C   UNL     1       0.157  16.310  19.969  0.00  0.00    +0.000 A 
ATOM     10  C   UNL     1      -1.897  16.550  21.925  0.00  0.00    +0.000 C 
ATOM     11  C   UNL     1      -2.918  16.385  22.924  0.00  0.00    +0.000 C 
ATOM     12  C   UNL     1      -2.981  17.155  24.166  0.00  0.00    +0.000 C 
ATOM     13  C   UNL     1      -3.728  16.197  25.094  0.00  0.00    +0.000 C 
ATOM     14  N   UNL     1      -3.831  14.659  25.055  0.00  0.00    +0.000 N 
ATOM     15  C   UNL     1      -3.570  13.528  24.061  0.00  0.00    +0.000 A 
ATOM     16  C   UNL     1      -4.430  12.546  24.718  0.00  0.00    +0.000 A 
ATOM     17  C   UNL     1      -5.777  12.630  24.372  0.00  0.00    +0.000 A 
ATOM     18  C   UNL     1      -6.082  13.266  23.165  0.00  0.00    +0.000 A 
ATOM     19  C   UNL     1      -5.049  13.678  22.244  0.00  0.00    +0.000 A 
ATOM     20  C   UNL     1      -3.685  13.677  22.604  0.00  0.00    +0.000 A 
ATOM     21  H   UNL     1      -4.802  14.519  25.354  0.00  0.00    +0.000 HD
ENDROOT
BRANCH   5  22
ATOM     22  C   UNL     1      -1.759  11.741  19.652  0.00  0.00    +0.000 C 
ATOM     23  C   UNL     1      -2.803  11.512  18.520  0.00  0.00    +0.000 C 
ATOM     24  C   UNL     1      -2.220  11.094  17.184  0.00  0.00    +0.000 C 
ATOM     25  C   UNL     1      -1.234   9.943  17.303  0.00  0.00    +0.000 C 
ATOM     26  C   UNL     1      -0.185  10.130  18.374  0.00  0.00    +0.000 C 
ATOM     27  C   UNL     1      -0.708  10.629  19.718  0.00  0.00    +0.000 C 
ENDBRANCH   5  22
BRANCH   1  29
ATOM     28  O   UNL     1       2.728  17.245  17.653  0.00  0.00    +0.000 OA
ATOM     29  C   UNL     1       2.172  17.151  18.724  0.00  0.00    +0.000 C 
BRANCH  29  30
ATOM     30  O   UNL     1       2.381  17.994  19.761  0.00  0.00    +0.000 OA
ATOM     31  H   UNL     1       1.857  18.826  19.718  0.00  0.00    +0.000 HD
ENDBRANCH  29  30
ENDBRANCH   1  29
TORSDOF 3
ENDMDL
MODEL 3
REMARK VINA RESULT:      -7.1      2.607      4.268
REMARK  Name = 
REMARK  3 active torsions:
REMARK  status: ('A' for Active; 'I' for Inactive)
REMARK    1  A    between atoms: C_2  and  O_3
REMARK    2  A    between atoms: C_2  and  C_4
REMARK    3  A    between atoms: C_8  and  C_9
REMARK                            x       y       z     vdW  Elec       q    Type
REMARK                         _______ _______ _______ _____ _____    ______ ____
ROOT
ATOM      1  C   UNL     1       0.446  10.445  19.372  0.00  0.00    +0.000 A 
ATOM      2  C   UNL     1       0.841  10.894  20.615  0.00  0.00    +0.000 A 
ATOM      3  C   UNL     1      -0.066  11.623  21.396  0.00  0.00    +0.000 A 
ATOM      4  C   UNL     1      -1.414  11.901  20.977  0.00  0.00    +0.000 A 
ATOM      5  C   UNL     1      -2.598  12.632  21.546  0.00  0.00    +0.000 A 
ATOM      6  C   UNL     1      -3.679  12.634  20.532  0.00  0.00    +0.000 A 
ATOM      7  N   UNL     1      -3.063  11.766  19.511  0.00  0.00    +0.000 N 
ATOM      8  C   UNL     1      -1.745  11.407  19.746  0.00  0.00    +0.000 A 
ATOM      9  C   UNL     1      -0.862  10.641  18.953  0.00  0.00    +0.000 A 
ATOM     10  C   UNL     1      -3.527  11.291  18.198  0.00  0.00    +0.000 C 
ATOM     11  C   UNL     1      -4.846  11.831  18.009  0.00  0.00    +0.000 C 
ATOM     12  C   UNL     1      -5.436  12.113  16.700  0.00  0.00    +0.000 C 
ATOM     13  C   UNL     1      -6.429  13.227  17.034  0.00  0.00    +0.000 C 
ATOM     14  N   UNL     1      -6.418  14.250  18.187  0.00  0.00    +0.000 N 
ATOM     15  C   UNL     1      -5.723  14.435  19.536  0.00  0.00    +0.000 A 
ATOM     16  C   UNL     1      -6.712  15.355  20.093  0.00  0.00    +0.000 A 
ATOM     17  C   UNL     1      -7.818  14.737  20.672  0.00  0.00    +0.000 A 
ATOM     18  C   UNL     1      -7.663  13.406  21.071  0.00  0.00    +0.000 A 
ATOM     19  C   UNL     1      -6.378  12.749  21.032  0.00  0.00    +0.000 A 
ATOM     20  C   UNL     1      -5.267  13.322  20.380  0.00  0.00    +0.000 A 
ATOM     21  H   UNL     1      -7.419  14.315  18.404  0.00  0.00    +0.000 HD
ENDROOT
BRANCH   5  22
ATOM     22  C   UNL     1      -2.228  13.155  23.009  0.00  0.00    +0.000 C 
ATOM     23  C   UNL     1      -0.949  14.034  23.140  0.00  0.00    +0.000 C 
ATOM     24  C   UNL     1      -1.168  15.396  23.769  0.00  0.00    +0.000 C 
ATOM     25  C   UNL     1      -1.959  15.328  25.066  0.00  0.00    +0.000 C 
ATOM     26  C   UNL     1      -3.222  14.505  24.983  0.00  0.00    +0.000 C 
ATOM     27  C   UNL     1      -3.076  13.156  24.285  0.00  0.00    +0.000 C 
ENDBRANCH   5  22
BRANCH   1  29
ATOM     28  O   UNL     1       1.813   8.579  18.731  0.00  0.00    +0.000 OA
ATOM     29  C   UNL     1       1.427   9.704  18.504  0.00  0.00    +0.000 C 
BRANCH  29  30
ATOM     30  O   UNL     1       1.836  10.445  17.450  0.00  0.00    +0.000 OA
ATOM     31  H   UNL     1       2.363   9.947  16.784  0.00  0.00    +0.000 HD
ENDBRANCH  29  30
ENDBRANCH   1  29
TORSDOF 3
ENDMDL
MODEL 4
REMARK VINA RESULT:      -7.1      5.765      8.428
REMARK  Name = 
REMARK  3 active torsions:
REMARK  status: ('A' for Active; 'I' for Inactive)
REMARK    1  A    between atoms: C_2  and  O_3
REMARK    2  A    between atoms: C_2  and  C_4
REMARK    3  A    between atoms: C_8  and  C_9
REMARK                            x       y       z     vdW  Elec       q    Type
REMARK                         _______ _______ _______ _____ _____    ______ ____
ROOT
ATOM      1  C   UNL     1       5.174   5.862  16.664  0.00  0.00    +0.000 A 
ATOM      2  C   UNL     1       4.888   4.746  17.423  0.00  0.00    +0.000 A 
ATOM      3  C   UNL     1       3.919   4.839  18.431  0.00  0.00    +0.000 A 
ATOM      4  C   UNL     1       3.176   6.043  18.695  0.00  0.00    +0.000 A 
ATOM      5  C   UNL     1       2.112   6.469  19.668  0.00  0.00    +0.000 A 
ATOM      6  C   UNL     1       1.846   7.913  19.469  0.00  0.00    +0.000 A 
ATOM      7  N   UNL     1       2.690   8.159  18.284  0.00  0.00    +0.000 N 
ATOM      8  C   UNL     1       3.494   7.101  17.891  0.00  0.00    +0.000 A 
ATOM      9  C   UNL     1       4.442   7.025  16.846  0.00  0.00    +0.000 A 
ATOM     10  C   UNL     1       2.956   9.366  17.486  0.00  0.00    +0.000 C 
ATOM     11  C   UNL     1       2.171  10.423  18.065  0.00  0.00    +0.000 C 
ATOM     12  C   UNL     1       2.528  11.840  17.999  0.00  0.00    +0.000 C 
ATOM     13  C   UNL     1       1.844  12.397  19.248  0.00  0.00    +0.000 C 
ATOM     14  N   UNL     1       1.454  11.690  20.562  0.00  0.00    +0.000 N 
ATOM     15  C   UNL     1       1.275  10.261  21.074  0.00  0.00    +0.000 A 
ATOM     16  C   UNL     1       0.418  10.610  22.204  0.00  0.00    +0.000 A 
ATOM     17  C   UNL     1      -0.933  10.739  21.891  0.00  0.00    +0.000 A 
ATOM     18  C   UNL     1      -1.377  10.099  20.730  0.00  0.00    +0.000 A 
ATOM     19  C   UNL     1      -0.518   9.218  19.976  0.00  0.00    +0.000 A 
ATOM     20  C   UNL     1       0.868   9.133  20.224  0.00  0.00    +0.000 A 
ATOM     21  H   UNL     1       0.566  12.154  20.780  0.00  0.00    +0.000 HD
ENDROOT
BRANCH   5  22
ATOM     22  C   UNL     1       1.699   5.213  20.565  0.00  0.00    +0.000 C 
ATOM     23  C   UNL     1       0.504   4.351  20.062  0.00  0.00    +0.000 C 
ATOM     24  C   UNL     1       0.812   2.878  19.872  0.00  0.00    +0.000 C 
ATOM     25  C   UNL     1       1.506   2.259  21.075  0.00  0.00    +0.000 C 
ATOM     26  C   UNL     1       2.686   3.048  21.587  0.00  0.00    +0.000 C 
ATOM     27  C   UNL     1       2.458   4.551  21.720  0.00  0.00    +0.000 C 
ENDBRANCH   5  22
BRANCH   1  29
ATOM     28  O   UNL     1       6.059   5.396  14.481  0.00  0.00    +0.000 OA
ATOM     29  C   UNL     1       6.248   5.789  15.611  0.00  0.00    +0.000 C 
BRANCH  29  30
ATOM     30  O   UNL     1       7.449   6.199  16.078  0.00  0.00    +0.000 OA
ATOM     31  H   UNL     1       7.410   7.006  16.640  0.00  0.00    +0.000 HD
ENDBRANCH  29  30
ENDBRANCH   1  29
TORSDOF 3
ENDMDL
MODEL 5
REMARK VINA RESULT:      -7.1      0.952      1.251
REMARK  Name = 
REMARK  3 active torsions:
REMARK  status: ('A' for Active; 'I' for Inactive)
REMARK    1  A    between atoms: C_2  and  O_3
REMARK    2  A    between atoms: C_2  and  C_4
REMARK    3  A    between atoms: C_8  and  C_9
REMARK                            x       y       z     vdW  Elec       q    Type
REMARK                         _______ _______ _______ _____ _____    ______ ____
ROOT
ATOM      1  C   UNL     1      -3.550  10.183  14.864  0.00  0.00    +0.000 A 
ATOM      2  C   UNL     1      -2.259   9.965  15.300  0.00  0.00    +0.000 A 
ATOM      3  C   UNL     1      -1.886  10.413  16.574  0.00  0.00    +0.000 A 
ATOM      4  C   UNL     1      -2.799  11.067  17.474  0.00  0.00    +0.000 A 
ATOM      5  C   UNL     1      -2.726  11.657  18.854  0.00  0.00    +0.000 A 
ATOM      6  C   UNL     1      -4.031  12.286  19.165  0.00  0.00    +0.000 A 
ATOM      7  N   UNL     1      -4.797  11.870  17.975  0.00  0.00    +0.000 N 
ATOM      8  C   UNL     1      -4.065  11.230  16.986  0.00  0.00    +0.000 A 
ATOM      9  C   UNL     1      -4.477  10.758  15.720  0.00  0.00    +0.000 A 
ATOM     10  C   UNL     1      -6.186  12.108  17.553  0.00  0.00    +0.000 C 
ATOM     11  C   UNL     1      -6.804  12.886  18.591  0.00  0.00    +0.000 C 
ATOM     12  C   UNL     1      -7.916  13.811  18.371  0.00  0.00    +0.000 C 
ATOM     13  C   UNL     1      -7.728  14.810  19.513  0.00  0.00    +0.000 C 
ATOM     14  N   UNL     1      -6.452  15.201  20.286  0.00  0.00    +0.000 N 
ATOM     15  C   UNL     1      -5.041  14.653  20.503  0.00  0.00    +0.000 A 
ATOM     16  C   UNL     1      -4.783  15.383  21.742  0.00  0.00    +0.000 A 
ATOM     17  C   UNL     1      -5.272  14.766  22.891  0.00  0.00    +0.000 A 
ATOM     18  C   UNL     1      -5.512  13.391  22.819  0.00  0.00    +0.000 A 
ATOM     19  C   UNL     1      -5.125  12.615  21.664  0.00  0.00    +0.000 A 
ATOM     20  C   UNL     1      -4.705  13.224  20.463  0.00  0.00    +0.000 A 
ATOM     21  H   UNL     1      -6.826  15.328  21.233  0.00  0.00    +0.000 HD
ENDROOT
BRANCH   5  22
ATOM     22  C   UNL     1      -1.262  11.411  19.445  0.00  0.00    +0.000 C 
ATOM     23  C   UNL     1      -1.167  10.620  20.782  0.00  0.00    +0.000 C 
ATOM     24  C   UNL     1      -0.294   9.380  20.733  0.00  0.00    +0.000 C 
ATOM     25  C   UNL     1       1.070   9.641  20.116  0.00  0.00    +0.000 C 
ATOM     26  C   UNL     1       1.028  10.387  18.804  0.00  0.00    +0.000 C 
ATOM     27  C   UNL     1       0.102  11.599  18.773  0.00  0.00    +0.000 C 
ENDBRANCH   5  22
BRANCH   1  29
ATOM     28  O   UNL     1      -5.089   9.512  13.149  0.00  0.00    +0.000 OA
ATOM     29  C   UNL     1      -3.949   9.750  13.479  0.00  0.00    +0.000 C 
BRANCH  29  30
ATOM     30  O   UNL     1      -2.885   9.646  12.651  0.00  0.00    +0.000 OA
ATOM     31  H   UNL     1      -2.106   9.193  13.047  0.00  0.00    +0.000 HD
ENDBRANCH  29  30
ENDBRANCH   1  29
TORSDOF 3
ENDMDL
MODEL 6
REMARK VINA RESULT:      -7.0      4.117      5.379
REMARK  Name = 
REMARK  3 active torsions:
REMARK  status: ('A' for Active; 'I' for Inactive)
REMARK    1  A    between atoms: C_2  and  O_3
REMARK    2  A    between atoms: C_2  and  C_4
REMARK    3  A    between atoms: C_8  and  C_9
REMARK                            x       y       z     vdW  Elec       q    Type
REMARK                         _______ _______ _______ _____ _____    ______ ____
ROOT
ATOM      1  C   UNL     1       2.726  14.846  18.288  0.00  0.00    +0.000 A 
ATOM      2  C   UNL     1       3.004  13.496  18.218  0.00  0.00    +0.000 A 
ATOM      3  C   UNL     1       2.056  12.581  18.693  0.00  0.00    +0.000 A 
ATOM      4  C   UNL     1       0.780  12.978  19.225  0.00  0.00    +0.000 A 
ATOM      5  C   UNL     1      -0.419  12.280  19.805  0.00  0.00    +0.000 A 
ATOM      6  C   UNL     1      -1.379  13.308  20.273  0.00  0.00    +0.000 A 
ATOM      7  N   UNL     1      -0.701  14.522  19.782  0.00  0.00    +0.000 N 
ATOM      8  C   UNL     1       0.562  14.327  19.244  0.00  0.00    +0.000 A 
ATOM      9  C   UNL     1       1.485  15.270  18.740  0.00  0.00    +0.000 A 
ATOM     10  C   UNL     1      -1.041  15.952  19.859  0.00  0.00    +0.000 C 
ATOM     11  C   UNL     1      -2.300  16.037  20.549  0.00  0.00    +0.000 C 
ATOM     12  C   UNL     1      -2.725  17.193  21.338  0.00  0.00    +0.000 C 
ATOM     13  C   UNL     1      -3.688  16.555  22.340  0.00  0.00    +0.000 C 
ATOM     14  N   UNL     1      -3.750  15.109  22.870  0.00  0.00    +0.000 N 
ATOM     15  C   UNL     1      -3.200  13.734  22.490  0.00  0.00    +0.000 A 
ATOM     16  C   UNL     1      -4.194  12.962  23.230  0.00  0.00    +0.000 A 
ATOM     17  C   UNL     1      -5.389  12.747  22.548  0.00  0.00    +0.000 A 
ATOM     18  C   UNL     1      -5.351  12.857  21.155  0.00  0.00    +0.000 A 
ATOM     19  C   UNL     1      -4.107  13.028  20.443  0.00  0.00    +0.000 A 
ATOM     20  C   UNL     1      -2.900  13.327  21.110  0.00  0.00    +0.000 A 
ATOM     21  H   UNL     1      -4.764  14.968  22.942  0.00  0.00    +0.000 HD
ENDROOT
BRANCH   5  22
ATOM     22  C   UNL     1      -0.186  10.702  19.726  0.00  0.00    +0.000 C 
ATOM     23  C   UNL     1      -0.077  10.077  18.304  0.00  0.00    +0.000 C 
ATOM     24  C   UNL     1       1.196   9.294  18.044  0.00  0.00    +0.000 C 
ATOM     25  C   UNL     1       1.508   8.291  19.143  0.00  0.00    +0.000 C 
ATOM     26  C   UNL     1       1.437   8.856  20.541  0.00  0.00    +0.000 C 
ATOM     27  C   UNL     1       0.214   9.721  20.833  0.00  0.00    +0.000 C 
ENDBRANCH   5  22
BRANCH   1  29
ATOM     28  O   UNL     1       3.601  17.042  17.870  0.00  0.00    +0.000 OA
ATOM     29  C   UNL     1       3.756  15.842  17.826  0.00  0.00    +0.000 C 
BRANCH  29  30
ATOM     30  O   UNL     1       4.867  15.240  17.345  0.00  0.00    +0.000 OA
ATOM     31  H   UNL     1       5.022  15.383  16.384  0.00  0.00    +0.000 HD
ENDBRANCH  29  30
ENDBRANCH   1  29
TORSDOF 3
ENDMDL
MODEL 7
REMARK VINA RESULT:      -7.0      3.739      5.695
REMARK  Name = 
REMARK  3 active torsions:
REMARK  status: ('A' for Active; 'I' for Inactive)
REMARK    1  A    between atoms: C_2  and  O_3
REMARK    2  A    between atoms: C_2  and  C_4
REMARK    3  A    between atoms: C_8  and  C_9
REMARK                            x       y       z     vdW  Elec       q    Type
REMARK                         _______ _______ _______ _____ _____    ______ ____
ROOT
ATOM      1  C   UNL     1       1.833  14.107  19.200  0.00  0.00    +0.000 A 
ATOM      2  C   UNL     1       1.434  13.091  18.356  0.00  0.00    +0.000 A 
ATOM      3  C   UNL     1       0.173  12.508  18.542  0.00  0.00    +0.000 A 
ATOM      4  C   UNL     1      -0.749  12.941  19.558  0.00  0.00    +0.000 A 
ATOM      5  C   UNL     1      -2.124  12.542  20.016  0.00  0.00    +0.000 A 
ATOM      6  C   UNL     1      -2.470  13.343  21.214  0.00  0.00    +0.000 A 
ATOM      7  N   UNL     1      -1.305  14.246  21.253  0.00  0.00    +0.000 N 
ATOM      8  C   UNL     1      -0.298  13.965  20.342  0.00  0.00    +0.000 A 
ATOM      9  C   UNL     1       0.953  14.594  20.155  0.00  0.00    +0.000 A 
ATOM     10  C   UNL     1      -0.922  15.337  22.163  0.00  0.00    +0.000 C 
ATOM     11  C   UNL     1      -1.974  15.448  23.136  0.00  0.00    +0.000 C 
ATOM     12  C   UNL     1      -1.782  15.948  24.498  0.00  0.00    +0.000 C 
ATOM     13  C   UNL     1      -2.913  15.250  25.253  0.00  0.00    +0.000 C 
ATOM     14  N   UNL     1      -3.647  13.930  24.939  0.00  0.00    +0.000 N 
ATOM     15  C   UNL     1      -3.825  12.983  23.753  0.00  0.00    +0.000 A 
ATOM     16  C   UNL     1      -5.053  12.358  24.240  0.00  0.00    +0.000 A 
ATOM     17  C   UNL     1      -6.219  13.059  23.941  0.00  0.00    +0.000 A 
ATOM     18  C   UNL     1      -6.160  13.962  22.876  0.00  0.00    +0.000 A 
ATOM     19  C   UNL     1      -4.998  14.052  22.023  0.00  0.00    +0.000 A 
ATOM     20  C   UNL     1      -3.782  13.415  22.349  0.00  0.00    +0.000 A 
ATOM     21  H   UNL     1      -4.603  14.163  25.228  0.00  0.00    +0.000 HD
ENDROOT
BRANCH   5  22
ATOM     22  C   UNL     1      -2.673  11.387  19.058  0.00  0.00    +0.000 C 
ATOM     23  C   UNL     1      -4.058  11.626  18.389  0.00  0.00    +0.000 C 
ATOM     24  C   UNL     1      -4.062  11.538  16.874  0.00  0.00    +0.000 C 
ATOM     25  C   UNL     1      -3.376  10.287  16.353  0.00  0.00    +0.000 C 
ATOM     26  C   UNL     1      -2.017  10.023  16.957  0.00  0.00    +0.000 C 
ATOM     27  C   UNL     1      -1.937  10.177  18.473  0.00  0.00    +0.000 C 
ENDBRANCH   5  22
BRANCH   1  29
ATOM     28  O   UNL     1       3.672  15.529  19.799  0.00  0.00    +0.000 OA
ATOM     29  C   UNL     1       3.204  14.708  19.042  0.00  0.00    +0.000 C 
BRANCH  29  30
ATOM     30  O   UNL     1       3.845  14.236  17.949  0.00  0.00    +0.000 OA
ATOM     31  H   UNL     1       3.856  14.857  17.186  0.00  0.00    +0.000 HD
ENDBRANCH  29  30
ENDBRANCH   1  29
TORSDOF 3
ENDMDL
MODEL 8
REMARK VINA RESULT:      -7.0      5.505      8.742
REMARK  Name = 
REMARK  3 active torsions:
REMARK  status: ('A' for Active; 'I' for Inactive)
REMARK    1  A    between atoms: C_2  and  O_3
REMARK    2  A    between atoms: C_2  and  C_4
REMARK    3  A    between atoms: C_8  and  C_9
REMARK                            x       y       z     vdW  Elec       q    Type
REMARK                         _______ _______ _______ _____ _____    ______ ____
ROOT
ATOM      1  C   UNL     1      -0.979  16.300  24.429  0.00  0.00    +0.000 A 
ATOM      2  C   UNL     1      -0.607  17.249  23.499  0.00  0.00    +0.000 A 
ATOM      3  C   UNL     1      -0.296  16.838  22.196  0.00  0.00    +0.000 A 
ATOM      4  C   UNL     1      -0.376  15.468  21.765  0.00  0.00    +0.000 A 
ATOM      5  C   UNL     1      -0.116  14.714  20.491  0.00  0.00    +0.000 A 
ATOM      6  C   UNL     1      -0.296  13.267  20.757  0.00  0.00    +0.000 A 
ATOM      7  N   UNL     1      -0.792  13.330  22.144  0.00  0.00    +0.000 N 
ATOM      8  C   UNL     1      -0.772  14.586  22.731  0.00  0.00    +0.000 A 
ATOM      9  C   UNL     1      -1.125  14.977  24.042  0.00  0.00    +0.000 A 
ATOM     10  C   UNL     1      -1.199  12.291  23.103  0.00  0.00    +0.000 C 
ATOM     11  C   UNL     1      -1.055  11.030  22.428  0.00  0.00    +0.000 C 
ATOM     12  C   UNL     1      -0.785   9.763  23.107  0.00  0.00    +0.000 C 
ATOM     13  C   UNL     1      -0.074   8.964  22.014  0.00  0.00    +0.000 C 
ATOM     14  N   UNL     1       0.738   9.454  20.798  0.00  0.00    +0.000 N 
ATOM     15  C   UNL     1       0.935  10.749  20.010  0.00  0.00    +0.000 A 
ATOM     16  C   UNL     1       1.433  10.113  18.793  0.00  0.00    +0.000 A 
ATOM     17  C   UNL     1       0.441   9.658  17.928  0.00  0.00    +0.000 A 
ATOM     18  C   UNL     1      -0.825  10.236  18.056  0.00  0.00    +0.000 A 
ATOM     19  C   UNL     1      -1.059  11.360  18.931  0.00  0.00    +0.000 A 
ATOM     20  C   UNL     1      -0.097  11.786  19.872  0.00  0.00    +0.000 A 
ATOM     21  H   UNL     1       0.471   8.761  20.090  0.00  0.00    +0.000 HD
ENDROOT
BRANCH   5  22
ATOM     22  C   UNL     1       0.288  15.755  19.348  0.00  0.00    +0.000 C 
ATOM     23  C   UNL     1      -0.876  16.512  18.643  0.00  0.00    +0.000 C 
ATOM     24  C   UNL     1      -0.781  18.025  18.695  0.00  0.00    +0.000 C 
ATOM     25  C   UNL     1       0.584  18.547  18.280  0.00  0.00    +0.000 C 
ATOM     26  C   UNL     1       1.746  17.858  18.955  0.00  0.00    +0.000 C 
ATOM     27  C   UNL     1       1.663  16.335  19.003  0.00  0.00    +0.000 C 
ENDBRANCH   5  22
BRANCH   1  29
ATOM     28  O   UNL     1      -1.708  17.808  26.149  0.00  0.00    +0.000 OA
ATOM     29  C   UNL     1      -1.268  16.722  25.845  0.00  0.00    +0.000 C 
BRANCH  29  30
ATOM     30  O   UNL     1      -0.966  15.752  26.738  0.00  0.00    +0.000 OA
ATOM     31  H   UNL     1      -1.736  15.208  27.021  0.00  0.00    +0.000 HD
ENDBRANCH  29  30
ENDBRANCH   1  29
TORSDOF 3
ENDMDL
MODEL 9
REMARK VINA RESULT:      -7.0      4.902      7.487
REMARK  Name = 
REMARK  3 active torsions:
REMARK  status: ('A' for Active; 'I' for Inactive)
REMARK    1  A    between atoms: C_2  and  O_3
REMARK    2  A    between atoms: C_2  and  C_4
REMARK    3  A    between atoms: C_8  and  C_9
REMARK                            x       y       z     vdW  Elec       q    Type
REMARK                         _______ _______ _______ _____ _____    ______ ____
ROOT
ATOM      1  C   UNL     1      -0.721  10.720  22.635  0.00  0.00    +0.000 A 
ATOM      2  C   UNL     1      -1.741  11.350  23.318  0.00  0.00    +0.000 A 
ATOM      3  C   UNL     1      -2.087  12.662  22.967  0.00  0.00    +0.000 A 
ATOM      4  C   UNL     1      -1.449  13.382  21.897  0.00  0.00    +0.000 A 
ATOM      5  C   UNL     1      -1.568  14.751  21.288  0.00  0.00    +0.000 A 
ATOM      6  C   UNL     1      -0.515  14.898  20.256  0.00  0.00    +0.000 A 
ATOM      7  N   UNL     1       0.033  13.529  20.263  0.00  0.00    +0.000 N 
ATOM      8  C   UNL     1      -0.464  12.691  21.249  0.00  0.00    +0.000 A 
ATOM      9  C   UNL     1      -0.118  11.356  21.559  0.00  0.00    +0.000 A 
ATOM     10  C   UNL     1       1.115  12.887  19.501  0.00  0.00    +0.000 C 
ATOM     11  C   UNL     1       1.637  13.885  18.608  0.00  0.00    +0.000 C 
ATOM     12  C   UNL     1       3.012  13.901  18.110  0.00  0.00    +0.000 C 
ATOM     13  C   UNL     1       3.230  15.388  17.831  0.00  0.00    +0.000 C 
ATOM     14  N   UNL     1       2.550  16.623  18.456  0.00  0.00    +0.000 N 
ATOM     15  C   UNL     1       1.301  16.938  19.279  0.00  0.00    +0.000 A 
ATOM     16  C   UNL     1       1.242  18.355  18.929  0.00  0.00    +0.000 A 
ATOM     17  C   UNL     1       0.599  18.630  17.725  0.00  0.00    +0.000 A 
ATOM     18  C   UNL     1      -0.283  17.659  17.242  0.00  0.00    +0.000 A 
ATOM     19  C   UNL     1      -0.635  16.499  18.026  0.00  0.00    +0.000 A 
ATOM     20  C   UNL     1       0.057  16.158  19.207  0.00  0.00    +0.000 A 
ATOM     21  H   UNL     1       2.485  17.245  17.643  0.00  0.00    +0.000 HD
ENDROOT
BRANCH   5  22
ATOM     22  C   UNL     1      -2.761  15.534  22.007  0.00  0.00    +0.000 C 
ATOM     23  C   UNL     1      -4.188  15.338  21.417  0.00  0.00    +0.000 C 
ATOM     24  C   UNL     1      -5.227  14.836  22.402  0.00  0.00    +0.000 C 
ATOM     25  C   UNL     1      -5.241  15.626  23.700  0.00  0.00    +0.000 C 
ATOM     26  C   UNL     1      -3.880  15.823  24.324  0.00  0.00    +0.000 C 
ATOM     27  C   UNL     1      -2.777  16.251  23.361  0.00  0.00    +0.000 C 
ENDBRANCH   5  22
BRANCH   1  29
ATOM     28  O   UNL     1      -0.648   8.328  22.445  0.00  0.00    +0.000 OA
ATOM     29  C   UNL     1      -0.307   9.329  23.034  0.00  0.00    +0.000 C 
BRANCH  29  30
ATOM     30  O   UNL     1       0.478   9.328  24.135  0.00  0.00    +0.000 OA
ATOM     31  H   UNL     1       0.472  10.174  24.638  0.00  0.00    +0.000 HD
ENDBRANCH  29  30
ENDBRANCH   1  29
TORSDOF 3
ENDMDL
