MODEL 1
REMARK VINA RESULT:      -7.8      0.000      0.000
REMARK  Name = 
REMARK  7 active torsions:
REMARK  status: ('A' for Active; 'I' for Inactive)
REMARK    1  A    between atoms: C_1  and  O_2
REMARK    2  A    between atoms: O_2  and  C_3
REMARK    3  A    between atoms: C_5  and  C_6
REMARK    4  A    between atoms: C_16  and  O_17
REMARK    5  A    between atoms: O_17  and  C_18
REMARK    6  A    between atoms: C_18  and  C_19
REMARK    7  A    between atoms: N_21  and  C_22
REMARK                            x       y       z     vdW  Elec       q    Type
REMARK                         _______ _______ _______ _____ _____    ______ ____
ROOT
ATOM      1  C   UNL     1       6.563   5.606  16.352  0.00  0.00    +0.000 A 
ATOM      2  C   UNL     1       5.771   4.469  16.592  0.00  0.00    +0.000 A 
ATOM      3  C   UNL     1       5.427   4.084  17.888  0.00  0.00    +0.000 A 
ATOM      4  C   UNL     1       5.899   4.814  18.969  0.00  0.00    +0.000 A 
ATOM      5  C   UNL     1       6.675   5.948  18.743  0.00  0.00    +0.000 A 
ATOM      6  C   UNL     1       7.021   6.362  17.442  0.00  0.00    +0.000 A 
ENDROOT
BRANCH   3   7
ATOM      7  C   UNL     1       4.480   2.996  18.121  0.00  0.00    +0.000 C 
ATOM      8  C   UNL     1       3.160   3.119  18.251  0.00  0.00    +0.000 C 
ATOM      9  N   UNL     1       2.323   2.060  18.463  0.00  0.00    +0.000 N 
ATOM     10  C   UNL     1       1.018   2.504  18.572  0.00  0.00    +0.000 C 
ATOM     11  O   UNL     1       0.042   1.796  18.763  0.00  0.00    +0.000 OA
ATOM     12  N   UNL     1       1.025   3.860  18.425  0.00  0.00    +0.000 N 
ATOM     13  C   UNL     1       2.287   4.340  18.206  0.00  0.00    +0.000 C 
ATOM     14  O   UNL     1       2.612   5.492  18.006  0.00  0.00    +0.000 OA
ATOM     15  H   UNL     1       2.585   1.088  18.539  0.00  0.00    +0.000 HD
ATOM     16  H   UNL     1       0.196   4.431  18.453  0.00  0.00    +0.000 HD
ENDBRANCH   3   7
BRANCH   1  18
ATOM     17  C   UNL     1       7.023   4.765  14.146  0.00  0.00    +0.000 C 
ATOM     18  O   UNL     1       6.721   5.843  15.015  0.00  0.00    +0.000 OA
ENDBRANCH   1  18
BRANCH   6  19
ATOM     19  O   UNL     1       7.758   7.506  17.220  0.00  0.00    +0.000 OA
BRANCH  19  20
ATOM     20  C   UNL     1       8.297   8.083  18.405  0.00  0.00    +0.000 C 
BRANCH  20  21
ATOM     21  C   UNL     1       8.629   9.564  18.320  0.00  0.00    +0.000 C 
ATOM     22  O   UNL     1       7.941  10.297  17.610  0.00  0.00    +0.000 OA
ATOM     23  N   UNL     1       9.732   9.935  19.057  0.00  0.00    +0.000 N 
ATOM     24  H   UNL     1      10.303   9.179  19.414  0.00  0.00    +0.000 HD
BRANCH  23  25
ATOM     25  C   UNL     1      10.160  11.256  19.279  0.00  0.00    +0.000 A 
ATOM     26  C   UNL     1      10.933  11.967  18.354  0.00  0.00    +0.000 A 
ATOM     27  C   UNL     1      11.318  13.282  18.613  0.00  0.00    +0.000 A 
ATOM     28  C   UNL     1      10.932  13.885  19.801  0.00  0.00    +0.000 A 
ATOM     29  F   UNL     1      11.305  15.144  20.053  0.00  0.00    +0.000 F 
ATOM     30  C   UNL     1      10.158  13.196  20.729  0.00  0.00    +0.000 A 
ATOM     31  C   UNL     1       9.763  11.883  20.465  0.00  0.00    +0.000 A 
ENDBRANCH  23  25
ENDBRANCH  20  21
ENDBRANCH  19  20
ENDBRANCH   6  19
TORSDOF 6
ENDMDL
MODEL 2
REMARK VINA RESULT:      -7.6      4.345     11.085
REMARK  Name = 
REMARK  7 active torsions:
REMARK  status: ('A' for Active; 'I' for Inactive)
REMARK    1  A    between atoms: C_1  and  O_2
REMARK    2  A    between atoms: O_2  and  C_3
REMARK    3  A    between atoms: C_5  and  C_6
REMARK    4  A    between atoms: C_16  and  O_17
REMARK    5  A    between atoms: O_17  and  C_18
REMARK    6  A    between atoms: C_18  and  C_19
REMARK    7  A    between atoms: N_21  and  C_22
REMARK                            x       y       z     vdW  Elec       q    Type
REMARK                         _______ _______ _______ _____ _____    ______ ____
ROOT
ATOM      1  C   UNL     1       9.511  11.420  20.158  0.00  0.00    +0.000 A 
ATOM      2  C   UNL     1      10.243  12.615  20.051  0.00  0.00    +0.000 A 
ATOM      3  C   UNL     1      10.986  12.912  18.908  0.00  0.00    +0.000 A 
ATOM      4  C   UNL     1      11.032  12.000  17.864  0.00  0.00    +0.000 A 
ATOM      5  C   UNL     1      10.301  10.818  17.953  0.00  0.00    +0.000 A 
ATOM      6  C   UNL     1       9.534  10.506  19.093  0.00  0.00    +0.000 A 
ENDROOT
BRANCH   3   7
ATOM      7  C   UNL     1      11.616  14.219  18.742  0.00  0.00    +0.000 C 
ATOM      8  C   UNL     1      11.032  15.319  18.270  0.00  0.00    +0.000 C 
ATOM      9  N   UNL     1      11.676  16.517  18.142  0.00  0.00    +0.000 N 
ATOM     10  C   UNL     1      10.815  17.460  17.611  0.00  0.00    +0.000 C 
ATOM     11  O   UNL     1      11.096  18.626  17.379  0.00  0.00    +0.000 OA
ATOM     12  N   UNL     1       9.610  16.855  17.401  0.00  0.00    +0.000 N 
ATOM     13  C   UNL     1       9.628  15.544  17.786  0.00  0.00    +0.000 C 
ATOM     14  O   UNL     1       8.707  14.754  17.755  0.00  0.00    +0.000 OA
ATOM     15  H   UNL     1      12.634  16.717  18.386  0.00  0.00    +0.000 HD
ATOM     16  H   UNL     1       8.804  17.328  17.027  0.00  0.00    +0.000 HD
ENDBRANCH   3   7
BRANCH   1  18
ATOM     17  C   UNL     1       8.617  12.538  22.091  0.00  0.00    +0.000 C 
ATOM     18  O   UNL     1       8.801  11.360  21.325  0.00  0.00    +0.000 OA
ENDBRANCH   1  18
BRANCH   6  19
ATOM     19  O   UNL     1       8.781   9.352  19.164  0.00  0.00    +0.000 OA
BRANCH  19  20
ATOM     20  C   UNL     1       8.307   8.897  17.901  0.00  0.00    +0.000 C 
BRANCH  20  21
ATOM     21  C   UNL     1       7.612   7.545  17.911  0.00  0.00    +0.000 C 
ATOM     22  O   UNL     1       8.111   6.616  18.546  0.00  0.00    +0.000 OA
ATOM     23  N   UNL     1       6.466   7.497  17.150  0.00  0.00    +0.000 N 
ATOM     24  H   UNL     1       6.311   8.282  16.529  0.00  0.00    +0.000 HD
BRANCH  23  25
ATOM     25  C   UNL     1       5.554   6.427  17.111  0.00  0.00    +0.000 A 
ATOM     26  C   UNL     1       4.293   6.485  17.716  0.00  0.00    +0.000 A 
ATOM     27  C   UNL     1       3.417   5.404  17.635  0.00  0.00    +0.000 A 
ATOM     28  C   UNL     1       3.804   4.261  16.951  0.00  0.00    +0.000 A 
ATOM     29  F   UNL     1       2.967   3.220  16.877  0.00  0.00    +0.000 F 
ATOM     30  C   UNL     1       5.051   4.187  16.338  0.00  0.00    +0.000 A 
ATOM     31  C   UNL     1       5.925   5.274  16.410  0.00  0.00    +0.000 A 
ENDBRANCH  23  25
ENDBRANCH  20  21
ENDBRANCH  19  20
ENDBRANCH   6  19
TORSDOF 6
ENDMDL
MODEL 3
REMARK VINA RESULT:      -7.6      6.943      8.563
REMARK  Name = 
REMARK  7 active torsions:
REMARK  status: ('A' for Active; 'I' for Inactive)
REMARK    1  A    between atoms: C_1  and  O_2
REMARK    2  A    between atoms: O_2  and  C_3
REMARK    3  A    between atoms: C_5  and  C_6
REMARK    4  A    between atoms: C_16  and  O_17
REMARK    5  A    between atoms: O_17  and  C_18
REMARK    6  A    between atoms: C_18  and  C_19
REMARK    7  A    between atoms: N_21  and  C_22
REMARK                            x       y       z     vdW  Elec       q    Type
REMARK                         _______ _______ _______ _____ _____    ______ ____
ROOT
ATOM      1  C   UNL     1       1.433   8.551  20.002  0.00  0.00    +0.000 A 
ATOM      2  C   UNL     1       2.032   7.288  20.155  0.00  0.00    +0.000 A 
ATOM      3  C   UNL     1       2.747   6.693  19.114  0.00  0.00    +0.000 A 
ATOM      4  C   UNL     1       2.846   7.340  17.892  0.00  0.00    +0.000 A 
ATOM      5  C   UNL     1       2.267   8.597  17.733  0.00  0.00    +0.000 A 
ATOM      6  C   UNL     1       1.553   9.221  18.775  0.00  0.00    +0.000 A 
ENDROOT
BRANCH   3   7
ATOM      7  C   UNL     1       3.493   5.456  19.329  0.00  0.00    +0.000 C 
ATOM      8  C   UNL     1       3.195   4.261  18.823  0.00  0.00    +0.000 C 
ATOM      9  N   UNL     1       3.937   3.138  19.057  0.00  0.00    +0.000 N 
ATOM     10  C   UNL     1       3.370   2.054  18.412  0.00  0.00    +0.000 C 
ATOM     11  O   UNL     1       3.802   0.912  18.430  0.00  0.00    +0.000 OA
ATOM     12  N   UNL     1       2.256   2.494  17.758  0.00  0.00    +0.000 N 
ATOM     13  C   UNL     1       2.065   3.837  17.930  0.00  0.00    +0.000 C 
ATOM     14  O   UNL     1       1.185   4.522  17.450  0.00  0.00    +0.000 OA
ATOM     15  H   UNL     1       4.775   3.073  19.614  0.00  0.00    +0.000 HD
ATOM     16  H   UNL     1       1.663   1.901  17.201  0.00  0.00    +0.000 HD
ENDBRANCH   3   7
BRANCH   1  18
ATOM     17  C   UNL     1      -0.372   8.390  21.584  0.00  0.00    +0.000 C 
ATOM     18  O   UNL     1       0.846   8.979  21.161  0.00  0.00    +0.000 OA
ENDBRANCH   1  18
BRANCH   6  19
ATOM     19  O   UNL     1       1.014  10.482  18.628  0.00  0.00    +0.000 OA
BRANCH  19  20
ATOM     20  C   UNL     1      -0.404  10.489  18.501  0.00  0.00    +0.000 C 
BRANCH  20  21
ATOM     21  C   UNL     1      -1.139  11.454  19.416  0.00  0.00    +0.000 C 
ATOM     22  O   UNL     1      -2.208  11.940  19.048  0.00  0.00    +0.000 OA
ATOM     23  N   UNL     1      -0.483  11.716  20.599  0.00  0.00    +0.000 N 
ATOM     24  H   UNL     1       0.478  11.401  20.653  0.00  0.00    +0.000 HD
BRANCH  23  25
ATOM     25  C   UNL     1      -1.009  12.442  21.683  0.00  0.00    +0.000 A 
ATOM     26  C   UNL     1      -2.087  11.983  22.449  0.00  0.00    +0.000 A 
ATOM     27  C   UNL     1      -2.562  12.731  23.525  0.00  0.00    +0.000 A 
ATOM     28  C   UNL     1      -1.958  13.941  23.834  0.00  0.00    +0.000 A 
ATOM     29  F   UNL     1      -2.416  14.663  24.863  0.00  0.00    +0.000 F 
ATOM     30  C   UNL     1      -0.882  14.410  23.088  0.00  0.00    +0.000 A 
ATOM     31  C   UNL     1      -0.399  13.656  22.016  0.00  0.00    +0.000 A 
ENDBRANCH  23  25
ENDBRANCH  20  21
ENDBRANCH  19  20
ENDBRANCH   6  19
TORSDOF 6
ENDMDL
MODEL 4
REMARK VINA RESULT:      -7.5      7.160     10.323
REMARK  Name = 
REMARK  7 active torsions:
REMARK  status: ('A' for Active; 'I' for Inactive)
REMARK    1  A    between atoms: C_1  and  O_2
REMARK    2  A    between atoms: O_2  and  C_3
REMARK    3  A    between atoms: C_5  and  C_6
REMARK    4  A    between atoms: C_16  and  O_17
REMARK    5  A    between atoms: O_17  and  C_18
REMARK    6  A    between atoms: C_18  and  C_19
REMARK    7  A    between atoms: N_21  and  C_22
REMARK                            x       y       z     vdW  Elec       q    Type
REMARK                         _______ _______ _______ _____ _____    ______ ____
ROOT
ATOM      1  C   UNL     1      -0.021   9.582  20.509  0.00  0.00    +0.000 A 
ATOM      2  C   UNL     1      -1.076  10.508  20.435  0.00  0.00    +0.000 A 
ATOM      3  C   UNL     1      -1.318  11.241  19.272  0.00  0.00    +0.000 A 
ATOM      4  C   UNL     1      -0.486  11.079  18.174  0.00  0.00    +0.000 A 
ATOM      5  C   UNL     1       0.554  10.156  18.232  0.00  0.00    +0.000 A 
ATOM      6  C   UNL     1       0.807   9.397  19.392  0.00  0.00    +0.000 A 
ENDROOT
BRANCH   3   7
ATOM      7  C   UNL     1      -2.505  12.084  19.150  0.00  0.00    +0.000 C 
ATOM      8  C   UNL     1      -3.616  11.784  18.482  0.00  0.00    +0.000 C 
ATOM      9  N   UNL     1      -4.698  12.615  18.409  0.00  0.00    +0.000 N 
ATOM     10  C   UNL     1      -5.687  12.036  17.635  0.00  0.00    +0.000 C 
ATOM     11  O   UNL     1      -6.774  12.533  17.384  0.00  0.00    +0.000 OA
ATOM     12  N   UNL     1      -5.230  10.821  17.214  0.00  0.00    +0.000 N 
ATOM     13  C   UNL     1      -3.975  10.559  17.690  0.00  0.00    +0.000 C 
ATOM     14  O   UNL     1      -3.317   9.554  17.518  0.00  0.00    +0.000 OA
ATOM     15  H   UNL     1      -4.793  13.522  18.839  0.00  0.00    +0.000 HD
ATOM     16  H   UNL     1      -5.764  10.190  16.640  0.00  0.00    +0.000 HD
ENDBRANCH   3   7
BRANCH   1  18
ATOM     17  C   UNL     1       1.057   9.158  22.617  0.00  0.00    +0.000 C 
ATOM     18  O   UNL     1      -0.005   8.925  21.709  0.00  0.00    +0.000 OA
ENDBRANCH   1  18
BRANCH   6  19
ATOM     19  O   UNL     1       1.815   8.456  19.434  0.00  0.00    +0.000 OA
BRANCH  19  20
ATOM     20  C   UNL     1       2.551   8.346  18.221  0.00  0.00    +0.000 C 
BRANCH  20  21
ATOM     21  C   UNL     1       3.102   6.964  17.912  0.00  0.00    +0.000 C 
ATOM     22  O   UNL     1       4.110   6.858  17.213  0.00  0.00    +0.000 OA
ATOM     23  N   UNL     1       2.363   5.932  18.447  0.00  0.00    +0.000 N 
ATOM     24  H   UNL     1       1.454   6.182  18.817  0.00  0.00    +0.000 HD
BRANCH  23  25
ATOM     25  C   UNL     1       2.733   4.575  18.447  0.00  0.00    +0.000 A 
ATOM     26  C   UNL     1       2.164   3.635  17.579  0.00  0.00    +0.000 A 
ATOM     27  C   UNL     1       2.577   2.304  17.606  0.00  0.00    +0.000 A 
ATOM     28  C   UNL     1       3.558   1.912  18.504  0.00  0.00    +0.000 A 
ATOM     29  F   UNL     1       3.952   0.634  18.535  0.00  0.00    +0.000 F 
ATOM     30  C   UNL     1       4.140   2.833  19.369  0.00  0.00    +0.000 A 
ATOM     31  C   UNL     1       3.734   4.169  19.336  0.00  0.00    +0.000 A 
ENDBRANCH  23  25
ENDBRANCH  20  21
ENDBRANCH  19  20
ENDBRANCH   6  19
TORSDOF 6
ENDMDL
MODEL 5
REMARK VINA RESULT:      -7.5      7.259      8.644
REMARK  Name = 
REMARK  7 active torsions:
REMARK  status: ('A' for Active; 'I' for Inactive)
REMARK    1  A    between atoms: C_1  and  O_2
REMARK    2  A    between atoms: O_2  and  C_3
REMARK    3  A    between atoms: C_5  and  C_6
REMARK    4  A    between atoms: C_16  and  O_17
REMARK    5  A    between atoms: O_17  and  C_18
REMARK    6  A    between atoms: C_18  and  C_19
REMARK    7  A    between atoms: N_21  and  C_22
REMARK                            x       y       z     vdW  Elec       q    Type
REMARK                         _______ _______ _______ _____ _____    ______ ____
ROOT
ATOM      1  C   UNL     1       1.224   8.590  19.882  0.00  0.00    +0.000 A 
ATOM      2  C   UNL     1       1.854   7.348  20.069  0.00  0.00    +0.000 A 
ATOM      3  C   UNL     1       2.690   6.803  19.093  0.00  0.00    +0.000 A 
ATOM      4  C   UNL     1       2.882   7.481  17.899  0.00  0.00    +0.000 A 
ATOM      5  C   UNL     1       2.274   8.719  17.708  0.00  0.00    +0.000 A 
ATOM      6  C   UNL     1       1.438   9.292  18.686  0.00  0.00    +0.000 A 
ENDROOT
BRANCH   3   7
ATOM      7  C   UNL     1       3.459   5.590  19.357  0.00  0.00    +0.000 C 
ATOM      8  C   UNL     1       3.204   4.377  18.871  0.00  0.00    +0.000 C 
ATOM      9  N   UNL     1       3.967   3.278  19.151  0.00  0.00    +0.000 N 
ATOM     10  C   UNL     1       3.443   2.166  18.517  0.00  0.00    +0.000 C 
ATOM     11  O   UNL     1       3.902   1.036  18.573  0.00  0.00    +0.000 OA
ATOM     12  N   UNL     1       2.337   2.563  17.823  0.00  0.00    +0.000 N 
ATOM     13  C   UNL     1       2.109   3.904  17.958  0.00  0.00    +0.000 C 
ATOM     14  O   UNL     1       1.227   4.557  17.439  0.00  0.00    +0.000 OA
ATOM     15  H   UNL     1       4.790   3.247  19.732  0.00  0.00    +0.000 HD
ATOM     16  H   UNL     1       1.774   1.943  17.265  0.00  0.00    +0.000 HD
ENDBRANCH   3   7
BRANCH   1  18
ATOM     17  C   UNL     1       1.143   8.995  22.252  0.00  0.00    +0.000 C 
ATOM     18  O   UNL     1       0.510   8.969  20.985  0.00  0.00    +0.000 OA
ENDBRANCH   1  18
BRANCH   6  19
ATOM     19  O   UNL     1       0.866  10.535  18.510  0.00  0.00    +0.000 OA
BRANCH  19  20
ATOM     20  C   UNL     1       1.308  11.510  19.448  0.00  0.00    +0.000 C 
BRANCH  20  21
ATOM     21  C   UNL     1       0.210  12.317  20.121  0.00  0.00    +0.000 C 
ATOM     22  O   UNL     1      -0.549  12.997  19.430  0.00  0.00    +0.000 OA
ATOM     23  N   UNL     1       0.202  12.219  21.495  0.00  0.00    +0.000 N 
ATOM     24  H   UNL     1       1.016  11.788  21.914  0.00  0.00    +0.000 HD
BRANCH  23  25
ATOM     25  C   UNL     1      -0.794  12.732  22.345  0.00  0.00    +0.000 A 
ATOM     26  C   UNL     1      -0.714  14.004  22.923  0.00  0.00    +0.000 A 
ATOM     27  C   UNL     1      -1.736  14.475  23.747  0.00  0.00    +0.000 A 
ATOM     28  C   UNL     1      -2.838  13.670  23.995  0.00  0.00    +0.000 A 
ATOM     29  F   UNL     1      -3.816  14.117  24.789  0.00  0.00    +0.000 F 
ATOM     30  C   UNL     1      -2.938  12.405  23.424  0.00  0.00    +0.000 A 
ATOM     31  C   UNL     1      -1.919  11.937  22.591  0.00  0.00    +0.000 A 
ENDBRANCH  23  25
ENDBRANCH  20  21
ENDBRANCH  19  20
ENDBRANCH   6  19
TORSDOF 6
ENDMDL
MODEL 6
REMARK VINA RESULT:      -7.5      1.763      2.209
REMARK  Name = 
REMARK  7 active torsions:
REMARK  status: ('A' for Active; 'I' for Inactive)
REMARK    1  A    between atoms: C_1  and  O_2
REMARK    2  A    between atoms: O_2  and  C_3
REMARK    3  A    between atoms: C_5  and  C_6
REMARK    4  A    between atoms: C_16  and  O_17
REMARK    5  A    between atoms: O_17  and  C_18
REMARK    6  A    between atoms: C_18  and  C_19
REMARK    7  A    between atoms: N_21  and  C_22
REMARK                            x       y       z     vdW  Elec       q    Type
REMARK                         _______ _______ _______ _____ _____    ______ ____
ROOT
ATOM      1  C   UNL     1       7.353   5.755  18.447  0.00  0.00    +0.000 A 
ATOM      2  C   UNL     1       6.283   4.866  18.243  0.00  0.00    +0.000 A 
ATOM      3  C   UNL     1       5.177   5.226  17.472  0.00  0.00    +0.000 A 
ATOM      4  C   UNL     1       5.110   6.496  16.919  0.00  0.00    +0.000 A 
ATOM      5  C   UNL     1       6.169   7.381  17.104  0.00  0.00    +0.000 A 
ATOM      6  C   UNL     1       7.301   7.033  17.867  0.00  0.00    +0.000 A 
ENDROOT
BRANCH   3   7
ATOM      7  C   UNL     1       4.145   4.247  17.138  0.00  0.00    +0.000 C 
ATOM      8  C   UNL     1       3.126   3.885  17.914  0.00  0.00    +0.000 C 
ATOM      9  N   UNL     1       2.187   2.964  17.543  0.00  0.00    +0.000 N 
ATOM     10  C   UNL     1       1.268   2.789  18.561  0.00  0.00    +0.000 C 
ATOM     11  O   UNL     1       0.310   2.033  18.530  0.00  0.00    +0.000 OA
ATOM     12  N   UNL     1       1.626   3.610  19.591  0.00  0.00    +0.000 N 
ATOM     13  C   UNL     1       2.742   4.340  19.293  0.00  0.00    +0.000 C 
ATOM     14  O   UNL     1       3.283   5.176  19.988  0.00  0.00    +0.000 OA
ATOM     15  H   UNL     1       2.144   2.466  16.667  0.00  0.00    +0.000 HD
ATOM     16  H   UNL     1       1.113   3.681  20.455  0.00  0.00    +0.000 HD
ENDBRANCH   3   7
BRANCH   1  18
ATOM     17  C   UNL     1       8.267   5.134  20.583  0.00  0.00    +0.000 C 
ATOM     18  O   UNL     1       8.361   5.181  19.170  0.00  0.00    +0.000 OA
ENDBRANCH   1  18
BRANCH   6  19
ATOM     19  O   UNL     1       8.365   7.897  18.018  0.00  0.00    +0.000 OA
BRANCH  19  20
ATOM     20  C   UNL     1       8.045   9.257  17.744  0.00  0.00    +0.000 C 
BRANCH  20  21
ATOM     21  C   UNL     1       8.938  10.288  18.415  0.00  0.00    +0.000 C 
ATOM     22  O   UNL     1       9.477  10.013  19.487  0.00  0.00    +0.000 OA
ATOM     23  N   UNL     1       9.026  11.482  17.734  0.00  0.00    +0.000 N 
ATOM     24  H   UNL     1       8.360  11.616  16.984  0.00  0.00    +0.000 HD
BRANCH  23  25
ATOM     25  C   UNL     1       9.900  12.539  18.047  0.00  0.00    +0.000 A 
ATOM     26  C   UNL     1      11.281  12.467  17.833  0.00  0.00    +0.000 A 
ATOM     27  C   UNL     1      12.104  13.549  18.143  0.00  0.00    +0.000 A 
ATOM     28  C   UNL     1      11.545  14.703  18.671  0.00  0.00    +0.000 A 
ATOM     29  F   UNL     1      12.333  15.739  18.974  0.00  0.00    +0.000 F 
ATOM     30  C   UNL     1      10.173  14.795  18.884  0.00  0.00    +0.000 A 
ATOM     31  C   UNL     1       9.347  13.715  18.564  0.00  0.00    +0.000 A 
ENDBRANCH  23  25
ENDBRANCH  20  21
ENDBRANCH  19  20
ENDBRANCH   6  19
TORSDOF 6
ENDMDL
MODEL 7
REMARK VINA RESULT:      -7.4      7.286      9.883
REMARK  Name = 
REMARK  7 active torsions:
REMARK  status: ('A' for Active; 'I' for Inactive)
REMARK    1  A    between atoms: C_1  and  O_2
REMARK    2  A    between atoms: O_2  and  C_3
REMARK    3  A    between atoms: C_5  and  C_6
REMARK    4  A    between atoms: C_16  and  O_17
REMARK    5  A    between atoms: O_17  and  C_18
REMARK    6  A    between atoms: C_18  and  C_19
REMARK    7  A    between atoms: N_21  and  C_22
REMARK                            x       y       z     vdW  Elec       q    Type
REMARK                         _______ _______ _______ _____ _____    ______ ____
ROOT
ATOM      1  C   UNL     1       1.278   8.138  20.192  0.00  0.00    +0.000 A 
ATOM      2  C   UNL     1       1.967   6.914  20.246  0.00  0.00    +0.000 A 
ATOM      3  C   UNL     1       2.767   6.484  19.187  0.00  0.00    +0.000 A 
ATOM      4  C   UNL     1       2.863   7.259  18.041  0.00  0.00    +0.000 A 
ATOM      5  C   UNL     1       2.194   8.479  17.981  0.00  0.00    +0.000 A 
ATOM      6  C   UNL     1       1.393   8.938  19.045  0.00  0.00    +0.000 A 
ENDROOT
BRANCH   3   7
ATOM      7  C   UNL     1       3.599   5.290  19.312  0.00  0.00    +0.000 C 
ATOM      8  C   UNL     1       3.305   4.076  18.852  0.00  0.00    +0.000 C 
ATOM      9  N   UNL     1       4.130   2.996  18.997  0.00  0.00    +0.000 N 
ATOM     10  C   UNL     1       3.545   1.877  18.432  0.00  0.00    +0.000 C 
ATOM     11  O   UNL     1       4.037   0.759  18.402  0.00  0.00    +0.000 OA
ATOM     12  N   UNL     1       2.336   2.250  17.921  0.00  0.00    +0.000 N 
ATOM     13  C   UNL     1       2.097   3.583  18.109  0.00  0.00    +0.000 C 
ATOM     14  O   UNL     1       1.129   4.216  17.740  0.00  0.00    +0.000 OA
ATOM     15  H   UNL     1       5.033   2.981  19.445  0.00  0.00    +0.000 HD
ATOM     16  H   UNL     1       1.711   1.621  17.445  0.00  0.00    +0.000 HD
ENDBRANCH   3   7
BRANCH   1  18
ATOM     17  C   UNL     1       1.233   9.196  22.352  0.00  0.00    +0.000 C 
ATOM     18  O   UNL     1       0.613   8.399  21.358  0.00  0.00    +0.000 OA
ENDBRANCH   1  18
BRANCH   6  19
ATOM     19  O   UNL     1       0.762  10.163  18.999  0.00  0.00    +0.000 OA
BRANCH  19  20
ATOM     20  C   UNL     1      -0.199  10.277  17.954  0.00  0.00    +0.000 C 
BRANCH  20  21
ATOM     21  C   UNL     1      -1.290  11.311  18.177  0.00  0.00    +0.000 C 
ATOM     22  O   UNL     1      -0.986  12.501  18.256  0.00  0.00    +0.000 OA
ATOM     23  N   UNL     1      -2.553  10.776  18.304  0.00  0.00    +0.000 N 
ATOM     24  H   UNL     1      -2.600   9.772  18.423  0.00  0.00    +0.000 HD
BRANCH  23  25
ATOM     25  C   UNL     1      -3.751  11.511  18.358  0.00  0.00    +0.000 A 
ATOM     26  C   UNL     1      -4.182  12.170  19.516  0.00  0.00    +0.000 A 
ATOM     27  C   UNL     1      -5.369  12.902  19.515  0.00  0.00    +0.000 A 
ATOM     28  C   UNL     1      -6.127  12.970  18.355  0.00  0.00    +0.000 A 
ATOM     29  F   UNL     1      -7.269  13.667  18.354  0.00  0.00    +0.000 F 
ATOM     30  C   UNL     1      -5.712  12.327  17.194  0.00  0.00    +0.000 A 
ATOM     31  C   UNL     1      -4.517  11.603  17.191  0.00  0.00    +0.000 A 
ENDBRANCH  23  25
ENDBRANCH  20  21
ENDBRANCH  19  20
ENDBRANCH   6  19
TORSDOF 6
ENDMDL
MODEL 8
REMARK VINA RESULT:      -7.4      6.131      8.740
REMARK  Name = 
REMARK  7 active torsions:
REMARK  status: ('A' for Active; 'I' for Inactive)
REMARK    1  A    between atoms: C_1  and  O_2
REMARK    2  A    between atoms: O_2  and  C_3
REMARK    3  A    between atoms: C_5  and  C_6
REMARK    4  A    between atoms: C_16  and  O_17
REMARK    5  A    between atoms: O_17  and  C_18
REMARK    6  A    between atoms: C_18  and  C_19
REMARK    7  A    between atoms: N_21  and  C_22
REMARK                            x       y       z     vdW  Elec       q    Type
REMARK                         _______ _______ _______ _____ _____    ______ ____
ROOT
ATOM      1  C   UNL     1       2.577   4.789  20.189  0.00  0.00    +0.000 A 
ATOM      2  C   UNL     1       3.202   4.217  19.068  0.00  0.00    +0.000 A 
ATOM      3  C   UNL     1       3.328   4.919  17.869  0.00  0.00    +0.000 A 
ATOM      4  C   UNL     1       2.799   6.196  17.763  0.00  0.00    +0.000 A 
ATOM      5  C   UNL     1       2.187   6.779  18.871  0.00  0.00    +0.000 A 
ATOM      6  C   UNL     1       2.063   6.092  20.095  0.00  0.00    +0.000 A 
ENDROOT
BRANCH   3   7
ATOM      7  C   UNL     1       4.112   4.378  16.762  0.00  0.00    +0.000 C 
ATOM      8  C   UNL     1       5.280   4.845  16.325  0.00  0.00    +0.000 C 
ATOM      9  N   UNL     1       5.970   4.291  15.284  0.00  0.00    +0.000 N 
ATOM     10  C   UNL     1       7.133   5.003  15.056  0.00  0.00    +0.000 C 
ATOM     11  O   UNL     1       7.961   4.754  14.194  0.00  0.00    +0.000 OA
ATOM     12  N   UNL     1       7.184   6.021  15.965  0.00  0.00    +0.000 N 
ATOM     13  C   UNL     1       6.104   6.006  16.802  0.00  0.00    +0.000 C 
ATOM     14  O   UNL     1       5.880   6.758  17.729  0.00  0.00    +0.000 OA
ATOM     15  H   UNL     1       5.699   3.486  14.740  0.00  0.00    +0.000 HD
ATOM     16  H   UNL     1       7.938   6.685  16.019  0.00  0.00    +0.000 HD
ENDBRANCH   3   7
BRANCH   1  18
ATOM     17  C   UNL     1       1.610   2.988  21.456  0.00  0.00    +0.000 C 
ATOM     18  O   UNL     1       2.623   3.961  21.276  0.00  0.00    +0.000 OA
ENDBRANCH   1  18
BRANCH   6  19
ATOM     19  O   UNL     1       1.491   6.684  21.201  0.00  0.00    +0.000 OA
BRANCH  19  20
ATOM     20  C   UNL     1       1.517   8.108  21.170  0.00  0.00    +0.000 C 
BRANCH  20  21
ATOM     21  C   UNL     1       0.188   8.794  21.438  0.00  0.00    +0.000 C 
ATOM     22  O   UNL     1      -0.794   8.112  21.734  0.00  0.00    +0.000 OA
ATOM     23  N   UNL     1       0.221  10.162  21.283  0.00  0.00    +0.000 N 
ATOM     24  H   UNL     1       1.047  10.539  20.836  0.00  0.00    +0.000 HD
BRANCH  23  25
ATOM     25  C   UNL     1      -0.818  11.048  21.619  0.00  0.00    +0.000 A 
ATOM     26  C   UNL     1      -1.239  11.256  22.938  0.00  0.00    +0.000 A 
ATOM     27  C   UNL     1      -2.262  12.159  23.222  0.00  0.00    +0.000 A 
ATOM     28  C   UNL     1      -2.868  12.852  22.185  0.00  0.00    +0.000 A 
ATOM     29  F   UNL     1      -3.854  13.715  22.455  0.00  0.00    +0.000 F 
ATOM     30  C   UNL     1      -2.460  12.664  20.869  0.00  0.00    +0.000 A 
ATOM     31  C   UNL     1      -1.427  11.767  20.584  0.00  0.00    +0.000 A 
ENDBRANCH  23  25
ENDBRANCH  20  21
ENDBRANCH  19  20
ENDBRANCH   6  19
TORSDOF 6
ENDMDL
MODEL 9
REMARK VINA RESULT:      -7.4      1.227      1.773
REMARK  Name = 
REMARK  7 active torsions:
REMARK  status: ('A' for Active; 'I' for Inactive)
REMARK    1  A    between atoms: C_1  and  O_2
REMARK    2  A    between atoms: O_2  and  C_3
REMARK    3  A    between atoms: C_5  and  C_6
REMARK    4  A    between atoms: C_16  and  O_17
REMARK    5  A    between atoms: O_17  and  C_18
REMARK    6  A    between atoms: C_18  and  C_19
REMARK    7  A    between atoms: N_21  and  C_22
REMARK                            x       y       z     vdW  Elec       q    Type
REMARK                         _______ _______ _______ _____ _____    ______ ____
ROOT
ATOM      1  C   UNL     1       7.131   5.802  18.014  0.00  0.00    +0.000 A 
ATOM      2  C   UNL     1       6.139   4.807  18.029  0.00  0.00    +0.000 A 
ATOM      3  C   UNL     1       4.951   4.954  17.311  0.00  0.00    +0.000 A 
ATOM      4  C   UNL     1       4.726   6.118  16.590  0.00  0.00    +0.000 A 
ATOM      5  C   UNL     1       5.707   7.105  16.557  0.00  0.00    +0.000 A 
ATOM      6  C   UNL     1       6.918   6.969  17.264  0.00  0.00    +0.000 A 
ENDROOT
BRANCH   3   7
ATOM      7  C   UNL     1       3.995   3.855  17.208  0.00  0.00    +0.000 C 
ATOM      8  C   UNL     1       2.912   3.683  17.962  0.00  0.00    +0.000 C 
ATOM      9  N   UNL     1       2.050   2.632  17.814  0.00  0.00    +0.000 N 
ATOM     10  C   UNL     1       1.036   2.719  18.749  0.00  0.00    +0.000 C 
ATOM     11  O   UNL     1       0.113   1.928  18.870  0.00  0.00    +0.000 OA
ATOM     12  N   UNL     1       1.253   3.838  19.499  0.00  0.00    +0.000 N 
ATOM     13  C   UNL     1       2.369   4.513  19.090  0.00  0.00    +0.000 C 
ATOM     14  O   UNL     1       2.804   5.555  19.535  0.00  0.00    +0.000 OA
ATOM     15  H   UNL     1       2.117   1.887  17.138  0.00  0.00    +0.000 HD
ATOM     16  H   UNL     1       0.650   4.137  20.248  0.00  0.00    +0.000 HD
ENDBRANCH   3   7
BRANCH   1  18
ATOM     17  C   UNL     1       8.172   5.365  20.138  0.00  0.00    +0.000 C 
ATOM     18  O   UNL     1       8.238   5.427  18.724  0.00  0.00    +0.000 OA
ENDBRANCH   1  18
BRANCH   6  19
ATOM     19  O   UNL     1       7.904   7.931  17.200  0.00  0.00    +0.000 OA
BRANCH  19  20
ATOM     20  C   UNL     1       8.261   8.475  18.467  0.00  0.00    +0.000 C 
BRANCH  20  21
ATOM     21  C   UNL     1       8.740   9.917  18.449  0.00  0.00    +0.000 C 
ATOM     22  O   UNL     1       8.265  10.701  17.627  0.00  0.00    +0.000 OA
ATOM     23  N   UNL     1       9.720  10.195  19.376  0.00  0.00    +0.000 N 
ATOM     24  H   UNL     1      10.143   9.394  19.829  0.00  0.00    +0.000 HD
BRANCH  23  25
ATOM     25  C   UNL     1      10.222  11.474  19.677  0.00  0.00    +0.000 A 
ATOM     26  C   UNL     1      11.323  12.030  19.015  0.00  0.00    +0.000 A 
ATOM     27  C   UNL     1      11.773  13.310  19.337  0.00  0.00    +0.000 A 
ATOM     28  C   UNL     1      11.122  14.032  20.327  0.00  0.00    +0.000 A 
ATOM     29  F   UNL     1      11.556  15.258  20.642  0.00  0.00    +0.000 F 
ATOM     30  C   UNL     1      10.023  13.499  20.991  0.00  0.00    +0.000 A 
ATOM     31  C   UNL     1       9.565  12.220  20.661  0.00  0.00    +0.000 A 
ENDBRANCH  23  25
ENDBRANCH  20  21
ENDBRANCH  19  20
ENDBRANCH   6  19
TORSDOF 6
ENDMDL
