MODEL 1
REMARK VINA RESULT:      -9.1      0.000      0.000
REMARK  Name = 
REMARK  14 active torsions:
REMARK  status: ('A' for Active; 'I' for Inactive)
REMARK    1  A    between atoms: C_1  and  C_2
REMARK    2  A    between atoms: C_2  and  C_3
REMARK    3  A    between atoms: C_7  and  C_8
REMARK    4  A    between atoms: C_11  and  C_12
REMARK    5  A    between atoms: C_12  and  C_13
REMARK    6  A    between atoms: C_12  and  C_30
REMARK    7  A    between atoms: N_15  and  C_16
REMARK    8  A    between atoms: C_20  and  C_21
REMARK    9  A    between atoms: C_21  and  C_22
REMARK   10  A    between atoms: C_21  and  C_24
REMARK   11  A    between atoms: C_22  and  C_23
REMARK   12  A    between atoms: C_24  and  C_25
REMARK   13  A    between atoms: C_25  and  O_27
REMARK   14  A    between atoms: C_28  and  C_29
REMARK                            x       y       z     vdW  Elec       q    Type
REMARK                         _______ _______ _______ _____ _____    ______ ____
ROOT
ATOM      1  C   UNL     1       0.621  10.685  19.735  0.00  0.00    +0.000 C 
ENDROOT
BRANCH   1   5
ATOM      2  C   UNL     1       2.681   7.088  18.413  0.00  0.00    +0.000 A 
ATOM      3  C   UNL     1       2.596   8.215  17.581  0.00  0.00    +0.000 A 
ATOM      4  C   UNL     1       2.043   9.415  18.045  0.00  0.00    +0.000 A 
ATOM      5  C   UNL     1       1.503   9.500  19.340  0.00  0.00    +0.000 A 
ATOM      6  C   UNL     1       1.643   8.402  20.190  0.00  0.00    +0.000 A 
ATOM      7  C   UNL     1       2.224   7.221  19.732  0.00  0.00    +0.000 A 
BRANCH   2  12
ATOM      8  C   UNL     1       2.977   3.371  17.712  0.00  0.00    +0.000 A 
ATOM      9  C   UNL     1       4.279   3.354  17.226  0.00  0.00    +0.000 A 
ATOM     10  N   UNL     1       5.033   4.459  17.062  0.00  0.00    +0.000 NA
ATOM     11  C   UNL     1       4.467   5.631  17.425  0.00  0.00    +0.000 A 
ATOM     12  C   UNL     1       3.174   5.783  17.938  0.00  0.00    +0.000 A 
ATOM     13  C   UNL     1       2.423   4.609  18.055  0.00  0.00    +0.000 A 
BRANCH   8  15
ATOM     14  C   UNL     1       0.948   2.371  18.746  0.00  0.00    +0.000 C 
ATOM     15  C   UNL     1       2.225   2.096  17.962  0.00  0.00    +0.000 C 
ENDBRANCH   8  15
ENDBRANCH   2  12
ENDBRANCH   1   5
BRANCH   1  16
ATOM     16  C   UNL     1       0.483  10.912  21.275  0.00  0.00    +0.000 C 
ATOM     17  C   UNL     1      -0.382  12.115  21.655  0.00  0.00    +0.000 C 
ATOM     18  C   UNL     1      -0.990  11.785  23.012  0.00  0.00    +0.000 C 
ATOM     19  C   UNL     1      -0.986  10.273  23.148  0.00  0.00    +0.000 C 
ATOM     20  C   UNL     1      -0.167   9.722  21.997  0.00  0.00    +0.000 C 
ENDBRANCH   1  16
BRANCH   1  21
ATOM     21  C   UNL     1      -0.789  10.505  19.104  0.00  0.00    +0.000 C 
ATOM     22  O   UNL     1      -1.419   9.452  19.202  0.00  0.00    +0.000 OA
ATOM     23  N   UNL     1      -1.277  11.616  18.416  0.00  0.00    +0.000 N 
ATOM     24  H   UNL     1      -0.573  12.149  17.929  0.00  0.00    +0.000 HD
BRANCH  23  25
ATOM     25  C   UNL     1      -2.544  11.547  17.805  0.00  0.00    +0.000 A 
ATOM     26  C   UNL     1      -2.597  11.061  16.489  0.00  0.00    +0.000 A 
ATOM     27  C   UNL     1      -3.785  10.984  15.817  0.00  0.00    +0.000 A 
ATOM     28  C   UNL     1      -4.956  11.372  16.476  0.00  0.00    +0.000 A 
ATOM     29  C   UNL     1      -4.978  11.818  17.822  0.00  0.00    +0.000 A 
ATOM     30  C   UNL     1      -3.732  11.949  18.492  0.00  0.00    +0.000 A 
ATOM     31  C   UNL     1      -3.564  12.550  19.862  0.00  0.00    +0.000 C 
BRANCH  29  32
ATOM     32  C   UNL     1      -6.369  12.136  18.443  0.00  0.00    +0.000 C 
BRANCH  32  33
ATOM     33  C   UNL     1      -7.287  12.903  17.459  0.00  0.00    +0.000 C 
ATOM     34  C   UNL     1      -6.927  14.363  17.207  0.00  0.00    +0.000 C 
ENDBRANCH  32  33
BRANCH  32  35
ATOM     35  C   UNL     1      -7.017  10.828  18.987  0.00  0.00    +0.000 C 
BRANCH  35  36
ATOM     36  C   UNL     1      -7.072  10.592  20.471  0.00  0.00    +0.000 C 
ATOM     37  O   UNL     1      -6.858  11.401  21.348  0.00  0.00    +0.000 OA
BRANCH  36  38
ATOM     38  O   UNL     1      -7.434   9.304  20.741  0.00  0.00    +0.000 OA
ATOM     39  H   UNL     1      -7.375   8.704  19.974  0.00  0.00    +0.000 HD
ENDBRANCH  36  38
ENDBRANCH  35  36
ENDBRANCH  32  35
ENDBRANCH  29  32
ENDBRANCH  23  25
ENDBRANCH   1  21
TORSDOF 11
ENDMDL
MODEL 2
REMARK VINA RESULT:      -8.7      3.448      6.647
REMARK  Name = 
REMARK  14 active torsions:
REMARK  status: ('A' for Active; 'I' for Inactive)
REMARK    1  A    between atoms: C_1  and  C_2
REMARK    2  A    between atoms: C_2  and  C_3
REMARK    3  A    between atoms: C_7  and  C_8
REMARK    4  A    between atoms: C_11  and  C_12
REMARK    5  A    between atoms: C_12  and  C_13
REMARK    6  A    between atoms: C_12  and  C_30
REMARK    7  A    between atoms: N_15  and  C_16
REMARK    8  A    between atoms: C_20  and  C_21
REMARK    9  A    between atoms: C_21  and  C_22
REMARK   10  A    between atoms: C_21  and  C_24
REMARK   11  A    between atoms: C_22  and  C_23
REMARK   12  A    between atoms: C_24  and  C_25
REMARK   13  A    between atoms: C_25  and  O_27
REMARK   14  A    between atoms: C_28  and  C_29
REMARK                            x       y       z     vdW  Elec       q    Type
REMARK                         _______ _______ _______ _____ _____    ______ ____
ROOT
ATOM      1  C   UNL     1       3.584   5.054  20.145  0.00  0.00    +0.000 C 
ENDROOT
BRANCH   1   5
ATOM      2  C   UNL     1       5.506   5.086  16.242  0.00  0.00    +0.000 A 
ATOM      3  C   UNL     1       4.255   5.693  16.432  0.00  0.00    +0.000 A 
ATOM      4  C   UNL     1       3.689   5.793  17.709  0.00  0.00    +0.000 A 
ATOM      5  C   UNL     1       4.334   5.232  18.825  0.00  0.00    +0.000 A 
ATOM      6  C   UNL     1       5.605   4.686  18.649  0.00  0.00    +0.000 A 
ATOM      7  C   UNL     1       6.178   4.618  17.380  0.00  0.00    +0.000 A 
BRANCH   2  12
ATOM      8  C   UNL     1       6.172   3.778  12.744  0.00  0.00    +0.000 A 
ATOM      9  C   UNL     1       7.402   4.388  12.524  0.00  0.00    +0.000 A 
ATOM     10  N   UNL     1       7.991   5.226  13.400  0.00  0.00    +0.000 NA
ATOM     11  C   UNL     1       7.331   5.442  14.559  0.00  0.00    +0.000 A 
ATOM     12  C   UNL     1       6.098   4.882  14.908  0.00  0.00    +0.000 A 
ATOM     13  C   UNL     1       5.514   4.047  13.948  0.00  0.00    +0.000 A 
BRANCH   8  15
ATOM     14  C   UNL     1       4.224   3.193  11.312  0.00  0.00    +0.000 C 
ATOM     15  C   UNL     1       5.616   2.779  11.770  0.00  0.00    +0.000 C 
ENDBRANCH   8  15
ENDBRANCH   2  12
ENDBRANCH   1   5
BRANCH   1  16
ATOM     16  C   UNL     1       3.126   3.589  20.444  0.00  0.00    +0.000 C 
ATOM     17  C   UNL     1       2.217   3.456  21.667  0.00  0.00    +0.000 C 
ATOM     18  C   UNL     1       1.331   2.246  21.403  0.00  0.00    +0.000 C 
ATOM     19  C   UNL     1       1.283   2.046  19.899  0.00  0.00    +0.000 C 
ATOM     20  C   UNL     1       2.320   2.971  19.291  0.00  0.00    +0.000 C 
ENDBRANCH   1  16
BRANCH   1  21
ATOM     21  C   UNL     1       2.352   6.002  20.165  0.00  0.00    +0.000 C 
ATOM     22  O   UNL     1       1.206   5.588  19.990  0.00  0.00    +0.000 OA
ATOM     23  N   UNL     1       2.643   7.348  20.385  0.00  0.00    +0.000 N 
ATOM     24  H   UNL     1       3.511   7.661  19.977  0.00  0.00    +0.000 HD
BRANCH  23  25
ATOM     25  C   UNL     1       1.592   8.285  20.415  0.00  0.00    +0.000 A 
ATOM     26  C   UNL     1       0.925   8.463  21.638  0.00  0.00    +0.000 A 
ATOM     27  C   UNL     1      -0.121   9.335  21.745  0.00  0.00    +0.000 A 
ATOM     28  C   UNL     1      -0.500  10.073  20.618  0.00  0.00    +0.000 A 
ATOM     29  C   UNL     1       0.167   9.982  19.371  0.00  0.00    +0.000 A 
ATOM     30  C   UNL     1       1.215   9.030  19.254  0.00  0.00    +0.000 A 
ATOM     31  C   UNL     1       1.921   8.698  17.966  0.00  0.00    +0.000 C 
BRANCH  29  32
ATOM     32  C   UNL     1      -0.319  10.927  18.234  0.00  0.00    +0.000 C 
BRANCH  32  33
ATOM     33  C   UNL     1      -1.841  10.802  17.980  0.00  0.00    +0.000 C 
ATOM     34  C   UNL     1      -2.714  11.894  18.587  0.00  0.00    +0.000 C 
ENDBRANCH  32  33
BRANCH  32  35
ATOM     35  C   UNL     1       0.132  12.388  18.532  0.00  0.00    +0.000 C 
BRANCH  35  36
ATOM     36  C   UNL     1       1.590  12.681  18.755  0.00  0.00    +0.000 C 
ATOM     37  O   UNL     1       2.132  12.936  19.809  0.00  0.00    +0.000 OA
BRANCH  36  38
ATOM     38  O   UNL     1       2.283  12.599  17.582  0.00  0.00    +0.000 OA
ATOM     39  H   UNL     1       2.277  13.422  17.058  0.00  0.00    +0.000 HD
ENDBRANCH  36  38
ENDBRANCH  35  36
ENDBRANCH  32  35
ENDBRANCH  29  32
ENDBRANCH  23  25
ENDBRANCH   1  21
TORSDOF 11
ENDMDL
MODEL 3
REMARK VINA RESULT:      -8.6      0.876      1.182
REMARK  Name = 
REMARK  14 active torsions:
REMARK  status: ('A' for Active; 'I' for Inactive)
REMARK    1  A    between atoms: C_1  and  C_2
REMARK    2  A    between atoms: C_2  and  C_3
REMARK    3  A    between atoms: C_7  and  C_8
REMARK    4  A    between atoms: C_11  and  C_12
REMARK    5  A    between atoms: C_12  and  C_13
REMARK    6  A    between atoms: C_12  and  C_30
REMARK    7  A    between atoms: N_15  and  C_16
REMARK    8  A    between atoms: C_20  and  C_21
REMARK    9  A    between atoms: C_21  and  C_22
REMARK   10  A    between atoms: C_21  and  C_24
REMARK   11  A    between atoms: C_22  and  C_23
REMARK   12  A    between atoms: C_24  and  C_25
REMARK   13  A    between atoms: C_25  and  O_27
REMARK   14  A    between atoms: C_28  and  C_29
REMARK                            x       y       z     vdW  Elec       q    Type
REMARK                         _______ _______ _______ _____ _____    ______ ____
ROOT
ATOM      1  C   UNL     1       0.947  11.003  19.770  0.00  0.00    +0.000 C 
ENDROOT
BRANCH   1   5
ATOM      2  C   UNL     1       2.450   7.079  18.642  0.00  0.00    +0.000 A 
ATOM      3  C   UNL     1       2.059   7.347  19.964  0.00  0.00    +0.000 A 
ATOM      4  C   UNL     1       1.462   8.566  20.306  0.00  0.00    +0.000 A 
ATOM      5  C   UNL     1       1.294   9.577  19.343  0.00  0.00    +0.000 A 
ATOM      6  C   UNL     1       1.622   9.289  18.018  0.00  0.00    +0.000 A 
ATOM      7  C   UNL     1       2.187   8.062  17.677  0.00  0.00    +0.000 A 
BRANCH   2  12
ATOM      8  C   UNL     1       3.443   3.433  18.301  0.00  0.00    +0.000 A 
ATOM      9  C   UNL     1       4.679   3.611  17.689  0.00  0.00    +0.000 A 
ATOM     10  N   UNL     1       5.175   4.813  17.335  0.00  0.00    +0.000 NA
ATOM     11  C   UNL     1       4.411   5.888  17.632  0.00  0.00    +0.000 A 
ATOM     12  C   UNL     1       3.160   5.847  18.256  0.00  0.00    +0.000 A 
ATOM     13  C   UNL     1       2.677   4.572  18.570  0.00  0.00    +0.000 A 
BRANCH   8  15
ATOM     14  C   UNL     1       1.503   2.087  19.082  0.00  0.00    +0.000 C 
ATOM     15  C   UNL     1       2.991   2.077  18.757  0.00  0.00    +0.000 C 
ENDBRANCH   8  15
ENDBRANCH   2  12
ENDBRANCH   1   5
BRANCH   1  16
ATOM     16  C   UNL     1       0.651  11.176  21.295  0.00  0.00    +0.000 C 
ATOM     17  C   UNL     1       0.019  12.520  21.660  0.00  0.00    +0.000 C 
ATOM     18  C   UNL     1      -0.827  12.264  22.901  0.00  0.00    +0.000 C 
ATOM     19  C   UNL     1      -1.165  10.785  22.914  0.00  0.00    +0.000 C 
ATOM     20  C   UNL     1      -0.332  10.125  21.832  0.00  0.00    +0.000 C 
ENDBRANCH   1  16
BRANCH   1  21
ATOM     21  C   UNL     1      -0.268  11.503  18.940  0.00  0.00    +0.000 C 
ATOM     22  O   UNL     1      -0.245  12.571  18.327  0.00  0.00    +0.000 OA
ATOM     23  N   UNL     1      -1.380  10.662  18.950  0.00  0.00    +0.000 N 
ATOM     24  H   UNL     1      -1.533  10.180  19.823  0.00  0.00    +0.000 HD
BRANCH  23  25
ATOM     25  C   UNL     1      -2.533  11.034  18.231  0.00  0.00    +0.000 A 
ATOM     26  C   UNL     1      -2.637  10.580  16.906  0.00  0.00    +0.000 A 
ATOM     27  C   UNL     1      -3.712  10.916  16.133  0.00  0.00    +0.000 A 
ATOM     28  C   UNL     1      -4.726  11.700  16.694  0.00  0.00    +0.000 A 
ATOM     29  C   UNL     1      -4.708  12.143  18.041  0.00  0.00    +0.000 A 
ATOM     30  C   UNL     1      -3.559  11.837  18.818  0.00  0.00    +0.000 A 
ATOM     31  C   UNL     1      -3.312  12.360  20.208  0.00  0.00    +0.000 C 
BRANCH  29  32
ATOM     32  C   UNL     1      -5.948  12.938  18.543  0.00  0.00    +0.000 C 
BRANCH  32  33
ATOM     33  C   UNL     1      -6.388  14.032  17.539  0.00  0.00    +0.000 C 
ATOM     34  C   UNL     1      -7.889  14.184  17.329  0.00  0.00    +0.000 C 
ENDBRANCH  32  33
BRANCH  32  35
ATOM     35  C   UNL     1      -7.095  11.951  18.912  0.00  0.00    +0.000 C 
BRANCH  35  36
ATOM     36  C   UNL     1      -7.047  11.216  20.223  0.00  0.00    +0.000 C 
ATOM     37  O   UNL     1      -6.368  11.491  21.190  0.00  0.00    +0.000 OA
BRANCH  36  38
ATOM     38  O   UNL     1      -7.915  10.164  20.219  0.00  0.00    +0.000 OA
ATOM     39  H   UNL     1      -7.905   9.642  19.394  0.00  0.00    +0.000 HD
ENDBRANCH  36  38
ENDBRANCH  35  36
ENDBRANCH  32  35
ENDBRANCH  29  32
ENDBRANCH  23  25
ENDBRANCH   1  21
TORSDOF 11
ENDMDL
MODEL 4
REMARK VINA RESULT:      -8.5      3.282      6.517
REMARK  Name = 
REMARK  14 active torsions:
REMARK  status: ('A' for Active; 'I' for Inactive)
REMARK    1  A    between atoms: C_1  and  C_2
REMARK    2  A    between atoms: C_2  and  C_3
REMARK    3  A    between atoms: C_7  and  C_8
REMARK    4  A    between atoms: C_11  and  C_12
REMARK    5  A    between atoms: C_12  and  C_13
REMARK    6  A    between atoms: C_12  and  C_30
REMARK    7  A    between atoms: N_15  and  C_16
REMARK    8  A    between atoms: C_20  and  C_21
REMARK    9  A    between atoms: C_21  and  C_22
REMARK   10  A    between atoms: C_21  and  C_24
REMARK   11  A    between atoms: C_22  and  C_23
REMARK   12  A    between atoms: C_24  and  C_25
REMARK   13  A    between atoms: C_25  and  O_27
REMARK   14  A    between atoms: C_28  and  C_29
REMARK                            x       y       z     vdW  Elec       q    Type
REMARK                         _______ _______ _______ _____ _____    ______ ____
ROOT
ATOM      1  C   UNL     1       3.134   4.921  20.335  0.00  0.00    +0.000 C 
ENDROOT
BRANCH   1   5
ATOM      2  C   UNL     1       5.242   5.150  16.537  0.00  0.00    +0.000 A 
ATOM      3  C   UNL     1       3.839   5.139  16.581  0.00  0.00    +0.000 A 
ATOM      4  C   UNL     1       3.156   5.190  17.802  0.00  0.00    +0.000 A 
ATOM      5  C   UNL     1       3.861   5.190  19.018  0.00  0.00    +0.000 A 
ATOM      6  C   UNL     1       5.253   5.265  18.976  0.00  0.00    +0.000 A 
ATOM      7  C   UNL     1       5.927   5.247  17.756  0.00  0.00    +0.000 A 
BRANCH   2  12
ATOM      8  C   UNL     1       6.363   4.004  13.098  0.00  0.00    +0.000 A 
ATOM      9  C   UNL     1       7.602   4.633  13.063  0.00  0.00    +0.000 A 
ATOM     10  N   UNL     1       8.064   5.437  14.042  0.00  0.00    +0.000 NA
ATOM     11  C   UNL     1       7.260   5.596  15.116  0.00  0.00    +0.000 A 
ATOM     12  C   UNL     1       6.000   5.010  15.281  0.00  0.00    +0.000 A 
ATOM     13  C   UNL     1       5.555   4.214  14.220  0.00  0.00    +0.000 A 
BRANCH   8  15
ATOM     14  C   UNL     1       4.516   3.315  11.582  0.00  0.00    +0.000 C 
ATOM     15  C   UNL     1       5.949   3.044  12.020  0.00  0.00    +0.000 C 
ENDBRANCH   8  15
ENDBRANCH   2  12
ENDBRANCH   1   5
BRANCH   1  16
ATOM     16  C   UNL     1       2.472   3.509  20.440  0.00  0.00    +0.000 C 
ATOM     17  C   UNL     1       1.145   3.383  19.690  0.00  0.00    +0.000 C 
ATOM     18  C   UNL     1       1.030   1.921  19.280  0.00  0.00    +0.000 C 
ATOM     19  C   UNL     1       2.437   1.354  19.245  0.00  0.00    +0.000 C 
ATOM     20  C   UNL     1       3.355   2.394  19.860  0.00  0.00    +0.000 C 
ENDBRANCH   1  16
BRANCH   1  21
ATOM     21  C   UNL     1       2.059   6.021  20.560  0.00  0.00    +0.000 C 
ATOM     22  O   UNL     1       0.906   5.749  20.897  0.00  0.00    +0.000 OA
ATOM     23  N   UNL     1       2.493   7.329  20.341  0.00  0.00    +0.000 N 
ATOM     24  H   UNL     1       3.164   7.428  19.595  0.00  0.00    +0.000 HD
BRANCH  23  25
ATOM     25  C   UNL     1       1.587   8.394  20.514  0.00  0.00    +0.000 A 
ATOM     26  C   UNL     1       1.125   8.639  21.817  0.00  0.00    +0.000 A 
ATOM     27  C   UNL     1       0.228   9.638  22.066  0.00  0.00    +0.000 A 
ATOM     28  C   UNL     1      -0.204  10.436  21.000  0.00  0.00    +0.000 A 
ATOM     29  C   UNL     1       0.267  10.277  19.673  0.00  0.00    +0.000 A 
ATOM     30  C   UNL     1       1.154   9.198  19.414  0.00  0.00    +0.000 A 
ATOM     31  C   UNL     1       1.625   8.797  18.041  0.00  0.00    +0.000 C 
BRANCH  29  32
ATOM     32  C   UNL     1      -0.244  11.294  18.611  0.00  0.00    +0.000 C 
BRANCH  32  33
ATOM     33  C   UNL     1      -1.791  11.367  18.568  0.00  0.00    +0.000 C 
ATOM     34  C   UNL     1      -2.496  10.223  17.851  0.00  0.00    +0.000 C 
ENDBRANCH  32  33
BRANCH  32  35
ATOM     35  C   UNL     1       0.426  12.681  18.843  0.00  0.00    +0.000 C 
BRANCH  35  36
ATOM     36  C   UNL     1      -0.380  13.802  19.437  0.00  0.00    +0.000 C 
ATOM     37  O   UNL     1      -0.759  13.902  20.585  0.00  0.00    +0.000 OA
BRANCH  36  38
ATOM     38  O   UNL     1      -0.632  14.764  18.502  0.00  0.00    +0.000 OA
ATOM     39  H   UNL     1      -0.911  14.413  17.635  0.00  0.00    +0.000 HD
ENDBRANCH  36  38
ENDBRANCH  35  36
ENDBRANCH  32  35
ENDBRANCH  29  32
ENDBRANCH  23  25
ENDBRANCH   1  21
TORSDOF 11
ENDMDL
MODEL 5
REMARK VINA RESULT:      -8.4      3.090      5.695
REMARK  Name = 
REMARK  14 active torsions:
REMARK  status: ('A' for Active; 'I' for Inactive)
REMARK    1  A    between atoms: C_1  and  C_2
REMARK    2  A    between atoms: C_2  and  C_3
REMARK    3  A    between atoms: C_7  and  C_8
REMARK    4  A    between atoms: C_11  and  C_12
REMARK    5  A    between atoms: C_12  and  C_13
REMARK    6  A    between atoms: C_12  and  C_30
REMARK    7  A    between atoms: N_15  and  C_16
REMARK    8  A    between atoms: C_20  and  C_21
REMARK    9  A    between atoms: C_21  and  C_22
REMARK   10  A    between atoms: C_21  and  C_24
REMARK   11  A    between atoms: C_22  and  C_23
REMARK   12  A    between atoms: C_24  and  C_25
REMARK   13  A    between atoms: C_25  and  O_27
REMARK   14  A    between atoms: C_28  and  C_29
REMARK                            x       y       z     vdW  Elec       q    Type
REMARK                         _______ _______ _______ _____ _____    ______ ____
ROOT
ATOM      1  C   UNL     1       2.849   6.045  20.021  0.00  0.00    +0.000 C 
ENDROOT
BRANCH   1   5
ATOM      2  C   UNL     1       5.194   5.073  16.488  0.00  0.00    +0.000 A 
ATOM      3  C   UNL     1       5.731   5.871  17.510  0.00  0.00    +0.000 A 
ATOM      4  C   UNL     1       5.028   6.085  18.702  0.00  0.00    +0.000 A 
ATOM      5  C   UNL     1       3.738   5.555  18.878  0.00  0.00    +0.000 A 
ATOM      6  C   UNL     1       3.230   4.710  17.892  0.00  0.00    +0.000 A 
ATOM      7  C   UNL     1       3.947   4.474  16.721  0.00  0.00    +0.000 A 
BRANCH   2  12
ATOM      8  C   UNL     1       6.057   3.828  13.010  0.00  0.00    +0.000 A 
ATOM      9  C   UNL     1       7.296   4.443  12.870  0.00  0.00    +0.000 A 
ATOM     10  N   UNL     1       7.834   5.266  13.793  0.00  0.00    +0.000 NA
ATOM     11  C   UNL     1       7.109   5.461  14.916  0.00  0.00    +0.000 A 
ATOM     12  C   UNL     1       5.859   4.893  15.185  0.00  0.00    +0.000 A 
ATOM     13  C   UNL     1       5.332   4.075  14.180  0.00  0.00    +0.000 A 
BRANCH   8  15
ATOM     14  C   UNL     1       4.217   3.292  11.424  0.00  0.00    +0.000 C 
ATOM     15  C   UNL     1       5.559   2.846  11.989  0.00  0.00    +0.000 C 
ENDBRANCH   8  15
ENDBRANCH   2  12
ENDBRANCH   1   5
BRANCH   1  16
ATOM     16  C   UNL     1       1.761   5.024  20.486  0.00  0.00    +0.000 C 
ATOM     17  C   UNL     1       1.172   4.179  19.355  0.00  0.00    +0.000 C 
ATOM     18  C   UNL     1       0.754   2.859  19.989  0.00  0.00    +0.000 C 
ATOM     19  C   UNL     1       1.577   2.689  21.252  0.00  0.00    +0.000 C 
ATOM     20  C   UNL     1       2.299   4.000  21.497  0.00  0.00    +0.000 C 
ENDBRANCH   1  16
BRANCH   1  21
ATOM     21  C   UNL     1       2.170   7.380  19.604  0.00  0.00    +0.000 C 
ATOM     22  O   UNL     1       2.295   7.851  18.473  0.00  0.00    +0.000 OA
ATOM     23  N   UNL     1       1.424   8.004  20.603  0.00  0.00    +0.000 N 
ATOM     24  H   UNL     1       1.800   7.902  21.533  0.00  0.00    +0.000 HD
BRANCH  23  25
ATOM     25  C   UNL     1       0.775   9.222  20.321  0.00  0.00    +0.000 A 
ATOM     26  C   UNL     1       0.738   9.634  18.979  0.00  0.00    +0.000 A 
ATOM     27  C   UNL     1       0.149  10.815  18.624  0.00  0.00    +0.000 A 
ATOM     28  C   UNL     1      -0.444  11.597  19.621  0.00  0.00    +0.000 A 
ATOM     29  C   UNL     1      -0.490  11.211  20.984  0.00  0.00    +0.000 A 
ATOM     30  C   UNL     1       0.176  10.011  21.351  0.00  0.00    +0.000 A 
ATOM     31  C   UNL     1       0.354   9.539  22.770  0.00  0.00    +0.000 C 
BRANCH  29  32
ATOM     32  C   UNL     1      -1.257  12.148  21.962  0.00  0.00    +0.000 C 
BRANCH  32  33
ATOM     33  C   UNL     1      -0.406  13.368  22.392  0.00  0.00    +0.000 C 
ATOM     34  C   UNL     1      -1.008  14.257  23.474  0.00  0.00    +0.000 C 
ENDBRANCH  32  33
BRANCH  32  35
ATOM     35  C   UNL     1      -2.629  12.550  21.342  0.00  0.00    +0.000 C 
BRANCH  35  36
ATOM     36  C   UNL     1      -3.885  12.372  22.148  0.00  0.00    +0.000 C 
ATOM     37  O   UNL     1      -5.028  12.471  21.753  0.00  0.00    +0.000 OA
BRANCH  36  38
ATOM     38  O   UNL     1      -3.588  12.044  23.439  0.00  0.00    +0.000 OA
ATOM     39  H   UNL     1      -2.871  11.388  23.528  0.00  0.00    +0.000 HD
ENDBRANCH  36  38
ENDBRANCH  35  36
ENDBRANCH  32  35
ENDBRANCH  29  32
ENDBRANCH  23  25
ENDBRANCH   1  21
TORSDOF 11
ENDMDL
MODEL 6
REMARK VINA RESULT:      -8.3      3.220      6.468
REMARK  Name = 
REMARK  14 active torsions:
REMARK  status: ('A' for Active; 'I' for Inactive)
REMARK    1  A    between atoms: C_1  and  C_2
REMARK    2  A    between atoms: C_2  and  C_3
REMARK    3  A    between atoms: C_7  and  C_8
REMARK    4  A    between atoms: C_11  and  C_12
REMARK    5  A    between atoms: C_12  and  C_13
REMARK    6  A    between atoms: C_12  and  C_30
REMARK    7  A    between atoms: N_15  and  C_16
REMARK    8  A    between atoms: C_20  and  C_21
REMARK    9  A    between atoms: C_21  and  C_22
REMARK   10  A    between atoms: C_21  and  C_24
REMARK   11  A    between atoms: C_22  and  C_23
REMARK   12  A    between atoms: C_24  and  C_25
REMARK   13  A    between atoms: C_25  and  O_27
REMARK   14  A    between atoms: C_28  and  C_29
REMARK                            x       y       z     vdW  Elec       q    Type
REMARK                         _______ _______ _______ _____ _____    ______ ____
ROOT
ATOM      1  C   UNL     1       3.457   5.201  19.759  0.00  0.00    +0.000 C 
ENDROOT
BRANCH   1   5
ATOM      2  C   UNL     1       5.276   4.931  15.816  0.00  0.00    +0.000 A 
ATOM      3  C   UNL     1       4.670   3.812  16.407  0.00  0.00    +0.000 A 
ATOM      4  C   UNL     1       3.977   3.921  17.618  0.00  0.00    +0.000 A 
ATOM      5  C   UNL     1       3.924   5.147  18.304  0.00  0.00    +0.000 A 
ATOM      6  C   UNL     1       4.470   6.274  17.689  0.00  0.00    +0.000 A 
ATOM      7  C   UNL     1       5.131   6.165  16.467  0.00  0.00    +0.000 A 
BRANCH   2  12
ATOM      8  C   UNL     1       6.718   3.752  12.511  0.00  0.00    +0.000 A 
ATOM      9  C   UNL     1       7.806   4.615  12.439  0.00  0.00    +0.000 A 
ATOM     10  N   UNL     1       8.064   5.574  13.350  0.00  0.00    +0.000 NA
ATOM     11  C   UNL     1       7.209   5.656  14.393  0.00  0.00    +0.000 A 
ATOM     12  C   UNL     1       6.088   4.843  14.589  0.00  0.00    +0.000 A 
ATOM     13  C   UNL     1       5.847   3.887  13.597  0.00  0.00    +0.000 A 
BRANCH   8  15
ATOM     14  C   UNL     1       5.062   2.373  11.269  0.00  0.00    +0.000 C 
ATOM     15  C   UNL     1       6.540   2.642  11.516  0.00  0.00    +0.000 C 
ENDBRANCH   8  15
ENDBRANCH   2  12
ENDBRANCH   1   5
BRANCH   1  16
ATOM     16  C   UNL     1       3.078   3.816  20.376  0.00  0.00    +0.000 C 
ATOM     17  C   UNL     1       2.339   3.908  21.712  0.00  0.00    +0.000 C 
ATOM     18  C   UNL     1       1.456   2.671  21.792  0.00  0.00    +0.000 C 
ATOM     19  C   UNL     1       1.218   2.199  20.369  0.00  0.00    +0.000 C 
ATOM     20  C   UNL     1       2.144   2.998  19.471  0.00  0.00    +0.000 C 
ENDBRANCH   1  16
BRANCH   1  21
ATOM     21  C   UNL     1       2.249   6.173  19.872  0.00  0.00    +0.000 C 
ATOM     22  O   UNL     1       1.108   5.836  19.556  0.00  0.00    +0.000 OA
ATOM     23  N   UNL     1       2.556   7.449  20.344  0.00  0.00    +0.000 N 
ATOM     24  H   UNL     1       3.456   7.799  20.052  0.00  0.00    +0.000 HD
BRANCH  23  25
ATOM     25  C   UNL     1       1.527   8.402  20.476  0.00  0.00    +0.000 A 
ATOM     26  C   UNL     1       0.875   8.476  21.717  0.00  0.00    +0.000 A 
ATOM     27  C   UNL     1      -0.150   9.357  21.919  0.00  0.00    +0.000 A 
ATOM     28  C   UNL     1      -0.521  10.208  20.873  0.00  0.00    +0.000 A 
ATOM     29  C   UNL     1       0.134  10.223  19.616  0.00  0.00    +0.000 A 
ATOM     30  C   UNL     1       1.158   9.264  19.396  0.00  0.00    +0.000 A 
ATOM     31  C   UNL     1       1.845   9.043  18.075  0.00  0.00    +0.000 C 
BRANCH  29  32
ATOM     32  C   UNL     1      -0.340  11.284  18.581  0.00  0.00    +0.000 C 
BRANCH  32  33
ATOM     33  C   UNL     1      -1.882  11.416  18.541  0.00  0.00    +0.000 C 
ATOM     34  C   UNL     1      -2.571  10.856  17.302  0.00  0.00    +0.000 C 
ENDBRANCH  32  33
BRANCH  32  35
ATOM     35  C   UNL     1       0.381  12.640  18.846  0.00  0.00    +0.000 C 
BRANCH  35  36
ATOM     36  C   UNL     1      -0.354  13.741  19.558  0.00  0.00    +0.000 C 
ATOM     37  O   UNL     1      -0.613  13.801  20.742  0.00  0.00    +0.000 OA
BRANCH  36  38
ATOM     38  O   UNL     1      -0.694  14.736  18.688  0.00  0.00    +0.000 OA
ATOM     39  H   UNL     1      -0.448  15.631  18.990  0.00  0.00    +0.000 HD
ENDBRANCH  36  38
ENDBRANCH  35  36
ENDBRANCH  32  35
ENDBRANCH  29  32
ENDBRANCH  23  25
ENDBRANCH   1  21
TORSDOF 11
ENDMDL
MODEL 7
REMARK VINA RESULT:      -8.3      2.909      5.769
REMARK  Name = 
REMARK  14 active torsions:
REMARK  status: ('A' for Active; 'I' for Inactive)
REMARK    1  A    between atoms: C_1  and  C_2
REMARK    2  A    between atoms: C_2  and  C_3
REMARK    3  A    between atoms: C_7  and  C_8
REMARK    4  A    between atoms: C_11  and  C_12
REMARK    5  A    between atoms: C_12  and  C_13
REMARK    6  A    between atoms: C_12  and  C_30
REMARK    7  A    between atoms: N_15  and  C_16
REMARK    8  A    between atoms: C_20  and  C_21
REMARK    9  A    between atoms: C_21  and  C_22
REMARK   10  A    between atoms: C_21  and  C_24
REMARK   11  A    between atoms: C_22  and  C_23
REMARK   12  A    between atoms: C_24  and  C_25
REMARK   13  A    between atoms: C_25  and  O_27
REMARK   14  A    between atoms: C_28  and  C_29
REMARK                            x       y       z     vdW  Elec       q    Type
REMARK                         _______ _______ _______ _____ _____    ______ ____
ROOT
ATOM      1  C   UNL     1       2.860   6.059  19.260  0.00  0.00    +0.000 C 
ENDROOT
BRANCH   1   5
ATOM      2  C   UNL     1       5.224   5.050  15.750  0.00  0.00    +0.000 A 
ATOM      3  C   UNL     1       5.189   6.365  16.240  0.00  0.00    +0.000 A 
ATOM      4  C   UNL     1       4.532   6.672  17.437  0.00  0.00    +0.000 A 
ATOM      5  C   UNL     1       3.836   5.677  18.147  0.00  0.00    +0.000 A 
ATOM      6  C   UNL     1       3.923   4.359  17.697  0.00  0.00    +0.000 A 
ATOM      7  C   UNL     1       4.606   4.055  16.521  0.00  0.00    +0.000 A 
BRANCH   2  12
ATOM      8  C   UNL     1       5.834   3.480  12.351  0.00  0.00    +0.000 A 
ATOM      9  C   UNL     1       7.140   3.914  12.152  0.00  0.00    +0.000 A 
ATOM     10  N   UNL     1       7.803   4.715  13.009  0.00  0.00    +0.000 NA
ATOM     11  C   UNL     1       7.137   5.077  14.128  0.00  0.00    +0.000 A 
ATOM     12  C   UNL     1       5.829   4.699  14.453  0.00  0.00    +0.000 A 
ATOM     13  C   UNL     1       5.176   3.896  13.512  0.00  0.00    +0.000 A 
BRANCH   8  15
ATOM     14  C   UNL     1       3.834   3.033  10.942  0.00  0.00    +0.000 C 
ATOM     15  C   UNL     1       5.186   2.509  11.406  0.00  0.00    +0.000 C 
ENDBRANCH   8  15
ENDBRANCH   2  12
ENDBRANCH   1   5
BRANCH   1  16
ATOM     16  C   UNL     1       1.791   4.969  19.594  0.00  0.00    +0.000 C 
ATOM     17  C   UNL     1       1.399   4.092  18.403  0.00  0.00    +0.000 C 
ATOM     18  C   UNL     1       0.991   2.746  18.988  0.00  0.00    +0.000 C 
ATOM     19  C   UNL     1       1.664   2.625  20.343  0.00  0.00    +0.000 C 
ATOM     20  C   UNL     1       2.266   3.978  20.667  0.00  0.00    +0.000 C 
ENDBRANCH   1  16
BRANCH   1  21
ATOM     21  C   UNL     1       2.152   7.390  18.885  0.00  0.00    +0.000 C 
ATOM     22  O   UNL     1       1.797   7.639  17.732  0.00  0.00    +0.000 OA
ATOM     23  N   UNL     1       1.960   8.279  19.942  0.00  0.00    +0.000 N 
ATOM     24  H   UNL     1       2.699   8.280  20.628  0.00  0.00    +0.000 HD
BRANCH  23  25
ATOM     25  C   UNL     1       1.330   9.516  19.698  0.00  0.00    +0.000 A 
ATOM     26  C   UNL     1       1.929  10.366  18.754  0.00  0.00    +0.000 A 
ATOM     27  C   UNL     1       1.394  11.592  18.477  0.00  0.00    +0.000 A 
ATOM     28  C   UNL     1       0.219  11.977  19.132  0.00  0.00    +0.000 A 
ATOM     29  C   UNL     1      -0.464  11.144  20.053  0.00  0.00    +0.000 A 
ATOM     30  C   UNL     1       0.131   9.896  20.378  0.00  0.00    +0.000 A 
ATOM     31  C   UNL     1      -0.379   8.964  21.444  0.00  0.00    +0.000 C 
BRANCH  29  32
ATOM     32  C   UNL     1      -1.803  11.680  20.638  0.00  0.00    +0.000 C 
BRANCH  32  33
ATOM     33  C   UNL     1      -1.599  12.426  21.979  0.00  0.00    +0.000 C 
ATOM     34  C   UNL     1      -2.150  11.735  23.221  0.00  0.00    +0.000 C 
ENDBRANCH  32  33
BRANCH  32  35
ATOM     35  C   UNL     1      -2.540  12.540  19.568  0.00  0.00    +0.000 C 
BRANCH  35  36
ATOM     36  C   UNL     1      -3.989  12.268  19.271  0.00  0.00    +0.000 C 
ATOM     37  O   UNL     1      -4.447  11.314  18.678  0.00  0.00    +0.000 OA
BRANCH  36  38
ATOM     38  O   UNL     1      -4.781  13.250  19.791  0.00  0.00    +0.000 OA
ATOM     39  H   UNL     1      -4.292  13.941  20.277  0.00  0.00    +0.000 HD
ENDBRANCH  36  38
ENDBRANCH  35  36
ENDBRANCH  32  35
ENDBRANCH  29  32
ENDBRANCH  23  25
ENDBRANCH   1  21
TORSDOF 11
ENDMDL
MODEL 8
REMARK VINA RESULT:      -8.2      1.822      2.445
REMARK  Name = 
REMARK  14 active torsions:
REMARK  status: ('A' for Active; 'I' for Inactive)
REMARK    1  A    between atoms: C_1  and  C_2
REMARK    2  A    between atoms: C_2  and  C_3
REMARK    3  A    between atoms: C_7  and  C_8
REMARK    4  A    between atoms: C_11  and  C_12
REMARK    5  A    between atoms: C_12  and  C_13
REMARK    6  A    between atoms: C_12  and  C_30
REMARK    7  A    between atoms: N_15  and  C_16
REMARK    8  A    between atoms: C_20  and  C_21
REMARK    9  A    between atoms: C_21  and  C_22
REMARK   10  A    between atoms: C_21  and  C_24
REMARK   11  A    between atoms: C_22  and  C_23
REMARK   12  A    between atoms: C_24  and  C_25
REMARK   13  A    between atoms: C_25  and  O_27
REMARK   14  A    between atoms: C_28  and  C_29
REMARK                            x       y       z     vdW  Elec       q    Type
REMARK                         _______ _______ _______ _____ _____    ______ ____
ROOT
ATOM      1  C   UNL     1       0.593  11.426  19.801  0.00  0.00    +0.000 C 
ENDROOT
BRANCH   1   5
ATOM      2  C   UNL     1       2.217   7.568  18.616  0.00  0.00    +0.000 A 
ATOM      3  C   UNL     1       1.860   7.819  19.950  0.00  0.00    +0.000 A 
ATOM      4  C   UNL     1       1.224   9.011  20.314  0.00  0.00    +0.000 A 
ATOM      5  C   UNL     1       0.984  10.015  19.360  0.00  0.00    +0.000 A 
ATOM      6  C   UNL     1       1.279   9.743  18.024  0.00  0.00    +0.000 A 
ATOM      7  C   UNL     1       1.882   8.540  17.662  0.00  0.00    +0.000 A 
BRANCH   2  12
ATOM      8  C   UNL     1       3.095   3.992  17.702  0.00  0.00    +0.000 A 
ATOM      9  C   UNL     1       4.478   4.122  17.659  0.00  0.00    +0.000 A 
ATOM     10  N   UNL     1       5.129   5.287  17.849  0.00  0.00    +0.000 NA
ATOM     11  C   UNL     1       4.361   6.365  18.119  0.00  0.00    +0.000 A 
ATOM     12  C   UNL     1       2.964   6.366  18.204  0.00  0.00    +0.000 A 
ATOM     13  C   UNL     1       2.338   5.138  17.964  0.00  0.00    +0.000 A 
BRANCH   8  15
ATOM     14  C   UNL     1       2.248   2.015  18.951  0.00  0.00    +0.000 C 
ATOM     15  C   UNL     1       2.437   2.648  17.579  0.00  0.00    +0.000 C 
ENDBRANCH   8  15
ENDBRANCH   2  12
ENDBRANCH   1   5
BRANCH   1  16
ATOM     16  C   UNL     1       0.362  11.590  21.338  0.00  0.00    +0.000 C 
ATOM     17  C   UNL     1      -0.276  12.922  21.736  0.00  0.00    +0.000 C 
ATOM     18  C   UNL     1      -1.061  12.649  23.012  0.00  0.00    +0.000 C 
ATOM     19  C   UNL     1      -1.372  11.164  23.036  0.00  0.00    +0.000 C 
ATOM     20  C   UNL     1      -0.577  10.521  21.916  0.00  0.00    +0.000 C 
ENDBRANCH   1  16
BRANCH   1  21
ATOM     21  C   UNL     1      -0.682  11.868  19.030  0.00  0.00    +0.000 C 
ATOM     22  O   UNL     1      -0.726  12.917  18.387  0.00  0.00    +0.000 OA
ATOM     23  N   UNL     1      -1.767  10.997  19.128  0.00  0.00    +0.000 N 
ATOM     24  H   UNL     1      -1.855  10.537  20.021  0.00  0.00    +0.000 HD
BRANCH  23  25
ATOM     25  C   UNL     1      -2.969  11.315  18.467  0.00  0.00    +0.000 A 
ATOM     26  C   UNL     1      -3.074  10.951  17.114  0.00  0.00    +0.000 A 
ATOM     27  C   UNL     1      -4.198  11.244  16.395  0.00  0.00    +0.000 A 
ATOM     28  C   UNL     1      -5.258  11.891  17.038  0.00  0.00    +0.000 A 
ATOM     29  C   UNL     1      -5.238  12.236  18.413  0.00  0.00    +0.000 A 
ATOM     30  C   UNL     1      -4.043  11.979  19.137  0.00  0.00    +0.000 A 
ATOM     31  C   UNL     1      -3.799  12.420  20.556  0.00  0.00    +0.000 C 
BRANCH  29  32
ATOM     32  C   UNL     1      -6.526  12.879  19.004  0.00  0.00    +0.000 C 
BRANCH  32  33
ATOM     33  C   UNL     1      -7.127  12.034  20.154  0.00  0.00    +0.000 C 
ATOM     34  C   UNL     1      -7.160  10.527  19.932  0.00  0.00    +0.000 C 
ENDBRANCH  32  33
BRANCH  32  35
ATOM     35  C   UNL     1      -6.239  14.354  19.416  0.00  0.00    +0.000 C 
BRANCH  35  36
ATOM     36  C   UNL     1      -6.412  15.452  18.404  0.00  0.00    +0.000 C 
ATOM     37  O   UNL     1      -7.180  15.466  17.466  0.00  0.00    +0.000 OA
BRANCH  36  38
ATOM     38  O   UNL     1      -5.586  16.501  18.684  0.00  0.00    +0.000 OA
ATOM     39  H   UNL     1      -6.051  17.305  18.985  0.00  0.00    +0.000 HD
ENDBRANCH  36  38
ENDBRANCH  35  36
ENDBRANCH  32  35
ENDBRANCH  29  32
ENDBRANCH  23  25
ENDBRANCH   1  21
TORSDOF 11
ENDMDL
MODEL 9
REMARK VINA RESULT:      -8.1      4.294      6.092
REMARK  Name = 
REMARK  14 active torsions:
REMARK  status: ('A' for Active; 'I' for Inactive)
REMARK    1  A    between atoms: C_1  and  C_2
REMARK    2  A    between atoms: C_2  and  C_3
REMARK    3  A    between atoms: C_7  and  C_8
REMARK    4  A    between atoms: C_11  and  C_12
REMARK    5  A    between atoms: C_12  and  C_13
REMARK    6  A    between atoms: C_12  and  C_30
REMARK    7  A    between atoms: N_15  and  C_16
REMARK    8  A    between atoms: C_20  and  C_21
REMARK    9  A    between atoms: C_21  and  C_22
REMARK   10  A    between atoms: C_21  and  C_24
REMARK   11  A    between atoms: C_22  and  C_23
REMARK   12  A    between atoms: C_24  and  C_25
REMARK   13  A    between atoms: C_25  and  O_27
REMARK   14  A    between atoms: C_28  and  C_29
REMARK                            x       y       z     vdW  Elec       q    Type
REMARK                         _______ _______ _______ _____ _____    ______ ____
ROOT
ATOM      1  C   UNL     1       0.030  10.949  19.451  0.00  0.00    +0.000 C 
ENDROOT
BRANCH   1   5
ATOM      2  C   UNL     1       2.311   7.249  19.264  0.00  0.00    +0.000 A 
ATOM      3  C   UNL     1       2.364   8.181  18.216  0.00  0.00    +0.000 A 
ATOM      4  C   UNL     1       1.732   9.425  18.323  0.00  0.00    +0.000 A 
ATOM      5  C   UNL     1       0.974   9.747  19.463  0.00  0.00    +0.000 A 
ATOM      6  C   UNL     1       0.973   8.851  20.532  0.00  0.00    +0.000 A 
ATOM      7  C   UNL     1       1.631   7.627  20.431  0.00  0.00    +0.000 A 
BRANCH   2  12
ATOM      8  C   UNL     1       3.228   3.642  19.998  0.00  0.00    +0.000 A 
ATOM      9  C   UNL     1       4.193   3.468  19.012  0.00  0.00    +0.000 A 
ATOM     10  N   UNL     1       4.518   4.411  18.105  0.00  0.00    +0.000 NA
ATOM     11  C   UNL     1       3.866   5.590  18.207  0.00  0.00    +0.000 A 
ATOM     12  C   UNL     1       2.887   5.897  19.159  0.00  0.00    +0.000 A 
ATOM     13  C   UNL     1       2.563   4.871  20.053  0.00  0.00    +0.000 A 
BRANCH   8  15
ATOM     14  C   UNL     1       1.632   2.801  21.710  0.00  0.00    +0.000 C 
ATOM     15  C   UNL     1       2.982   2.587  21.038  0.00  0.00    +0.000 C 
ENDBRANCH   8  15
ENDBRANCH   2  12
ENDBRANCH   1   5
BRANCH   1  16
ATOM     16  C   UNL     1      -0.950  10.999  18.235  0.00  0.00    +0.000 C 
ATOM     17  C   UNL     1      -1.387   9.623  17.727  0.00  0.00    +0.000 C 
ATOM     18  C   UNL     1      -2.773   9.816  17.127  0.00  0.00    +0.000 C 
ATOM     19  C   UNL     1      -3.369  11.056  17.769  0.00  0.00    +0.000 C 
ATOM     20  C   UNL     1      -2.263  11.729  18.557  0.00  0.00    +0.000 C 
ENDBRANCH   1  16
BRANCH   1  21
ATOM     21  C   UNL     1       0.868  12.258  19.502  0.00  0.00    +0.000 C 
ATOM     22  O   UNL     1       1.444  12.625  20.526  0.00  0.00    +0.000 OA
ATOM     23  N   UNL     1       0.908  12.984  18.312  0.00  0.00    +0.000 N 
ATOM     24  H   UNL     1       0.055  12.955  17.775  0.00  0.00    +0.000 HD
BRANCH  23  25
ATOM     25  C   UNL     1       1.638  14.187  18.262  0.00  0.00    +0.000 A 
ATOM     26  C   UNL     1       2.990  14.103  17.892  0.00  0.00    +0.000 A 
ATOM     27  C   UNL     1       3.774  15.222  17.843  0.00  0.00    +0.000 A 
ATOM     28  C   UNL     1       3.197  16.461  18.140  0.00  0.00    +0.000 A 
ATOM     29  C   UNL     1       1.827  16.620  18.466  0.00  0.00    +0.000 A 
ATOM     30  C   UNL     1       1.035  15.446  18.572  0.00  0.00    +0.000 A 
ATOM     31  C   UNL     1      -0.391  15.424  19.055  0.00  0.00    +0.000 C 
BRANCH  29  32
ATOM     32  C   UNL     1       1.314  18.073  18.692  0.00  0.00    +0.000 C 
BRANCH  32  33
ATOM     33  C   UNL     1       0.168  18.447  17.721  0.00  0.00    +0.000 C 
ATOM     34  C   UNL     1       0.559  18.629  16.260  0.00  0.00    +0.000 C 
ENDBRANCH  32  33
BRANCH  32  35
ATOM     35  C   UNL     1       0.935  18.271  20.190  0.00  0.00    +0.000 C 
BRANCH  35  36
ATOM     36  C   UNL     1       1.855  17.756  21.261  0.00  0.00    +0.000 C 
ATOM     37  O   UNL     1       1.697  16.769  21.948  0.00  0.00    +0.000 OA
BRANCH  36  38
ATOM     38  O   UNL     1       2.964  18.545  21.366  0.00  0.00    +0.000 OA
ATOM     39  H   UNL     1       2.899  19.389  20.881  0.00  0.00    +0.000 HD
ENDBRANCH  36  38
ENDBRANCH  35  36
ENDBRANCH  32  35
ENDBRANCH  29  32
ENDBRANCH  23  25
ENDBRANCH   1  21
TORSDOF 11
ENDMDL
