MODEL 1
REMARK VINA RESULT:      -7.7      0.000      0.000
REMARK  Name = 
REMARK  7 active torsions:
REMARK  status: ('A' for Active; 'I' for Inactive)
REMARK    1  A    between atoms: C_1  and  C_2
REMARK    2  A    between atoms: C_2  and  C_3
REMARK    3  A    between atoms: C_2  and  C_4
REMARK    4  A    between atoms: C_6  and  C_7
REMARK    5  A    between atoms: C_10  and  C_11
REMARK    6  A    between atoms: C_11  and  C_12
REMARK    7  A    between atoms: C_12  and  N_13
REMARK                            x       y       z     vdW  Elec       q    Type
REMARK                         _______ _______ _______ _____ _____    ______ ____
ROOT
ATOM      1  C   UNL     1       6.894   4.616  16.062  0.00  0.00    +0.000 A 
ATOM      2  N   UNL     1       7.877   4.269  16.905  0.00  0.00    +0.000 NA
ATOM      3  O   UNL     1       7.293   4.428  18.163  0.00  0.00    +0.000 OA
ATOM      4  C   UNL     1       6.016   4.852  17.946  0.00  0.00    +0.000 A 
ATOM      5  N   UNL     1       5.725   5.012  16.675  0.00  0.00    +0.000 NA
ENDROOT
BRANCH   1   8
ATOM      6  C   UNL     1       6.364   3.820  12.594  0.00  0.00    +0.000 A 
ATOM      7  N   UNL     1       6.181   3.660  13.888  0.00  0.00    +0.000 NA
ATOM      8  C   UNL     1       6.968   4.559  14.595  0.00  0.00    +0.000 A 
ATOM      9  C   UNL     1       7.759   5.378  13.814  0.00  0.00    +0.000 A 
ATOM     10  S   UNL     1       7.515   5.024  12.158  0.00  0.00    +0.000 S 
BRANCH   6  12
ATOM     11  C   UNL     1       5.967   1.566  11.588  0.00  0.00    +0.000 C 
ATOM     12  C   UNL     1       5.629   3.055  11.524  0.00  0.00    +0.000 C 
ATOM     13  C   UNL     1       4.120   3.272  11.658  0.00  0.00    +0.000 C 
ENDBRANCH   6  12
ENDBRANCH   1   8
BRANCH   4  14
ATOM     14  C   UNL     1       5.160   5.048  19.137  0.00  0.00    +0.000 C 
BRANCH  14  15
ATOM     15  C   UNL     1       3.763   5.525  18.728  0.00  0.00    +0.000 C 
BRANCH  15  16
ATOM     16  N   UNL     1       2.771   4.466  18.851  0.00  0.00    +0.000 N 
ATOM     17  C   UNL     1       2.564   3.584  17.820  0.00  0.00    +0.000 A 
ATOM     18  N   UNL     1       1.672   2.649  17.811  0.00  0.00    +0.000 NA
ATOM     19  C   UNL     1       0.885   2.549  18.923  0.00  0.00    +0.000 A 
ATOM     20  C   UNL     1       0.977   3.337  19.997  0.00  0.00    +0.000 A 
ATOM     21  C   UNL     1       1.987   4.408  19.986  0.00  0.00    +0.000 A 
ATOM     22  O   UNL     1       2.072   5.183  20.933  0.00  0.00    +0.000 OA
ENDBRANCH  15  16
ENDBRANCH  14  15
ENDBRANCH   4  14
TORSDOF 5
ENDMDL
MODEL 2
REMARK VINA RESULT:      -7.5      1.085      1.333
REMARK  Name = 
REMARK  7 active torsions:
REMARK  status: ('A' for Active; 'I' for Inactive)
REMARK    1  A    between atoms: C_1  and  C_2
REMARK    2  A    between atoms: C_2  and  C_3
REMARK    3  A    between atoms: C_2  and  C_4
REMARK    4  A    between atoms: C_6  and  C_7
REMARK    5  A    between atoms: C_10  and  C_11
REMARK    6  A    between atoms: C_11  and  C_12
REMARK    7  A    between atoms: C_12  and  N_13
REMARK                            x       y       z     vdW  Elec       q    Type
REMARK                         _______ _______ _______ _____ _____    ______ ____
ROOT
ATOM      1  C   UNL     1       6.731   5.215  15.829  0.00  0.00    +0.000 A 
ATOM      2  N   UNL     1       7.439   6.246  16.310  0.00  0.00    +0.000 NA
ATOM      3  O   UNL     1       7.106   6.262  17.666  0.00  0.00    +0.000 OA
ATOM      4  C   UNL     1       6.232   5.234  17.860  0.00  0.00    +0.000 A 
ATOM      5  N   UNL     1       5.944   4.574  16.762  0.00  0.00    +0.000 NA
ENDROOT
BRANCH   1   8
ATOM      6  C   UNL     1       6.070   3.484  12.745  0.00  0.00    +0.000 A 
ATOM      7  N   UNL     1       5.894   3.732  14.026  0.00  0.00    +0.000 NA
ATOM      8  C   UNL     1       6.775   4.720  14.445  0.00  0.00    +0.000 A 
ATOM      9  C   UNL     1       7.627   5.192  13.467  0.00  0.00    +0.000 A 
ATOM     10  S   UNL     1       7.323   4.391  11.987  0.00  0.00    +0.000 S 
BRANCH   6  12
ATOM     11  C   UNL     1       4.234   3.247  11.064  0.00  0.00    +0.000 C 
ATOM     12  C   UNL     1       5.248   2.512  11.940  0.00  0.00    +0.000 C 
ATOM     13  C   UNL     1       6.157   1.627  11.087  0.00  0.00    +0.000 C 
ENDBRANCH   6  12
ENDBRANCH   1   8
BRANCH   4  14
ATOM     14  C   UNL     1       5.761   5.004  19.244  0.00  0.00    +0.000 C 
BRANCH  14  15
ATOM     15  C   UNL     1       4.381   5.632  19.459  0.00  0.00    +0.000 C 
BRANCH  15  16
ATOM     16  N   UNL     1       3.366   4.628  19.748  0.00  0.00    +0.000 N 
ATOM     17  C   UNL     1       3.598   3.305  19.466  0.00  0.00    +0.000 A 
ATOM     18  N   UNL     1       2.744   2.350  19.632  0.00  0.00    +0.000 NA
ATOM     19  C   UNL     1       1.522   2.708  20.130  0.00  0.00    +0.000 A 
ATOM     20  C   UNL     1       1.162   3.953  20.449  0.00  0.00    +0.000 A 
ATOM     21  C   UNL     1       2.141   5.032  20.238  0.00  0.00    +0.000 A 
ATOM     22  O   UNL     1       1.833   6.196  20.474  0.00  0.00    +0.000 OA
ENDBRANCH  15  16
ENDBRANCH  14  15
ENDBRANCH   4  14
TORSDOF 5
ENDMDL
MODEL 3
REMARK VINA RESULT:      -7.4      0.934      1.209
REMARK  Name = 
REMARK  7 active torsions:
REMARK  status: ('A' for Active; 'I' for Inactive)
REMARK    1  A    between atoms: C_1  and  C_2
REMARK    2  A    between atoms: C_2  and  C_3
REMARK    3  A    between atoms: C_2  and  C_4
REMARK    4  A    between atoms: C_6  and  C_7
REMARK    5  A    between atoms: C_10  and  C_11
REMARK    6  A    between atoms: C_11  and  C_12
REMARK    7  A    between atoms: C_12  and  N_13
REMARK                            x       y       z     vdW  Elec       q    Type
REMARK                         _______ _______ _______ _____ _____    ______ ____
ROOT
ATOM      1  C   UNL     1       6.333   5.465  15.789  0.00  0.00    +0.000 A 
ATOM      2  N   UNL     1       7.258   6.143  16.483  0.00  0.00    +0.000 NA
ATOM      3  O   UNL     1       6.600   6.456  17.674  0.00  0.00    +0.000 OA
ATOM      4  C   UNL     1       5.347   5.929  17.574  0.00  0.00    +0.000 A 
ATOM      5  N   UNL     1       5.118   5.334  16.425  0.00  0.00    +0.000 NA
ENDROOT
BRANCH   1   8
ATOM      6  C   UNL     1       5.992   3.512  12.786  0.00  0.00    +0.000 A 
ATOM      7  N   UNL     1       5.648   3.890  14.000  0.00  0.00    +0.000 NA
ATOM      8  C   UNL     1       6.540   4.843  14.472  0.00  0.00    +0.000 A 
ATOM      9  C   UNL     1       7.568   5.158  13.606  0.00  0.00    +0.000 A 
ATOM     10  S   UNL     1       7.420   4.248  12.165  0.00  0.00    +0.000 S 
BRANCH   6  12
ATOM     11  C   UNL     1       4.214   3.261  11.046  0.00  0.00    +0.000 C 
ATOM     12  C   UNL     1       5.217   2.534  11.942  0.00  0.00    +0.000 C 
ATOM     13  C   UNL     1       6.172   1.683  11.104  0.00  0.00    +0.000 C 
ENDBRANCH   6  12
ENDBRANCH   1   8
BRANCH   4  14
ATOM     14  C   UNL     1       4.456   6.084  18.745  0.00  0.00    +0.000 C 
BRANCH  14  15
ATOM     15  C   UNL     1       2.988   6.127  18.308  0.00  0.00    +0.000 C 
BRANCH  15  16
ATOM     16  N   UNL     1       2.284   4.898  18.650  0.00  0.00    +0.000 N 
ATOM     17  C   UNL     1       2.072   3.931  17.699  0.00  0.00    +0.000 A 
ATOM     18  N   UNL     1       1.412   2.837  17.889  0.00  0.00    +0.000 NA
ATOM     19  C   UNL     1       0.895   2.648  19.140  0.00  0.00    +0.000 A 
ATOM     20  C   UNL     1       1.025   3.502  20.158  0.00  0.00    +0.000 A 
ATOM     21  C   UNL     1       1.766   4.752  19.921  0.00  0.00    +0.000 A 
ATOM     22  O   UNL     1       1.868   5.585  20.816  0.00  0.00    +0.000 OA
ENDBRANCH  15  16
ENDBRANCH  14  15
ENDBRANCH   4  14
TORSDOF 5
ENDMDL
MODEL 4
REMARK VINA RESULT:      -7.3      1.556      1.992
REMARK  Name = 
REMARK  7 active torsions:
REMARK  status: ('A' for Active; 'I' for Inactive)
REMARK    1  A    between atoms: C_1  and  C_2
REMARK    2  A    between atoms: C_2  and  C_3
REMARK    3  A    between atoms: C_2  and  C_4
REMARK    4  A    between atoms: C_6  and  C_7
REMARK    5  A    between atoms: C_10  and  C_11
REMARK    6  A    between atoms: C_11  and  C_12
REMARK    7  A    between atoms: C_12  and  N_13
REMARK                            x       y       z     vdW  Elec       q    Type
REMARK                         _______ _______ _______ _____ _____    ______ ____
ROOT
ATOM      1  C   UNL     1       6.125   5.402  15.839  0.00  0.00    +0.000 A 
ATOM      2  N   UNL     1       6.440   6.648  16.220  0.00  0.00    +0.000 NA
ATOM      3  O   UNL     1       6.054   6.682  17.561  0.00  0.00    +0.000 OA
ATOM      4  C   UNL     1       5.549   5.449  17.849  0.00  0.00    +0.000 A 
ATOM      5  N   UNL     1       5.541   4.631  16.821  0.00  0.00    +0.000 NA
ENDROOT
BRANCH   1   8
ATOM      6  C   UNL     1       5.945   3.509  12.785  0.00  0.00    +0.000 A 
ATOM      7  N   UNL     1       5.554   3.843  13.998  0.00  0.00    +0.000 NA
ATOM      8  C   UNL     1       6.392   4.821  14.515  0.00  0.00    +0.000 A 
ATOM      9  C   UNL     1       7.428   5.199  13.684  0.00  0.00    +0.000 A 
ATOM     10  S   UNL     1       7.355   4.318  12.219  0.00  0.00    +0.000 S 
BRANCH   6  12
ATOM     11  C   UNL     1       4.195   3.220  11.023  0.00  0.00    +0.000 C 
ATOM     12  C   UNL     1       5.234   2.520  11.899  0.00  0.00    +0.000 C 
ATOM     13  C   UNL     1       6.242   1.759  11.037  0.00  0.00    +0.000 C 
ENDBRANCH   6  12
ENDBRANCH   1   8
BRANCH   4  14
ATOM     14  C   UNL     1       5.111   5.209  19.242  0.00  0.00    +0.000 C 
BRANCH  14  15
ATOM     15  C   UNL     1       4.771   3.731  19.457  0.00  0.00    +0.000 C 
BRANCH  15  16
ATOM     16  N   UNL     1       3.332   3.507  19.500  0.00  0.00    +0.000 N 
ATOM     17  C   UNL     1       2.541   4.233  20.356  0.00  0.00    +0.000 A 
ATOM     18  N   UNL     1       1.269   4.068  20.507  0.00  0.00    +0.000 NA
ATOM     19  C   UNL     1       0.686   3.093  19.749  0.00  0.00    +0.000 A 
ATOM     20  C   UNL     1       1.333   2.314  18.878  0.00  0.00    +0.000 A 
ATOM     21  C   UNL     1       2.785   2.503  18.728  0.00  0.00    +0.000 A 
ATOM     22  O   UNL     1       3.425   1.776  17.973  0.00  0.00    +0.000 OA
ENDBRANCH  15  16
ENDBRANCH  14  15
ENDBRANCH   4  14
TORSDOF 5
ENDMDL
MODEL 5
REMARK VINA RESULT:      -7.2      1.466      1.885
REMARK  Name = 
REMARK  7 active torsions:
REMARK  status: ('A' for Active; 'I' for Inactive)
REMARK    1  A    between atoms: C_1  and  C_2
REMARK    2  A    between atoms: C_2  and  C_3
REMARK    3  A    between atoms: C_2  and  C_4
REMARK    4  A    between atoms: C_6  and  C_7
REMARK    5  A    between atoms: C_10  and  C_11
REMARK    6  A    between atoms: C_11  and  C_12
REMARK    7  A    between atoms: C_12  and  N_13
REMARK                            x       y       z     vdW  Elec       q    Type
REMARK                         _______ _______ _______ _____ _____    ______ ____
ROOT
ATOM      1  C   UNL     1       6.691   4.703  16.056  0.00  0.00    +0.000 A 
ATOM      2  N   UNL     1       7.677   5.270  16.765  0.00  0.00    +0.000 NA
ATOM      3  O   UNL     1       7.191   5.240  18.074  0.00  0.00    +0.000 OA
ATOM      4  C   UNL     1       5.961   4.654  18.016  0.00  0.00    +0.000 A 
ATOM      5  N   UNL     1       5.591   4.330  16.798  0.00  0.00    +0.000 NA
ENDROOT
BRANCH   1   8
ATOM      6  C   UNL     1       6.088   3.384  12.764  0.00  0.00    +0.000 A 
ATOM      7  N   UNL     1       5.943   3.417  14.072  0.00  0.00    +0.000 NA
ATOM      8  C   UNL     1       6.727   4.427  14.612  0.00  0.00    +0.000 A 
ATOM      9  C   UNL     1       7.478   5.134  13.695  0.00  0.00    +0.000 A 
ATOM     10  S   UNL     1       7.199   4.531  12.118  0.00  0.00    +0.000 S 
BRANCH   6  12
ATOM     11  C   UNL     1       4.343   3.222  10.981  0.00  0.00    +0.000 C 
ATOM     12  C   UNL     1       5.343   2.453  11.843  0.00  0.00    +0.000 C 
ATOM     13  C   UNL     1       6.326   1.674  10.966  0.00  0.00    +0.000 C 
ENDBRANCH   6  12
ENDBRANCH   1   8
BRANCH   4  14
ATOM     14  C   UNL     1       5.248   4.456  19.298  0.00  0.00    +0.000 C 
BRANCH  14  15
ATOM     15  C   UNL     1       4.676   3.038  19.387  0.00  0.00    +0.000 C 
BRANCH  15  16
ATOM     16  N   UNL     1       3.313   3.034  19.899  0.00  0.00    +0.000 N 
ATOM     17  C   UNL     1       3.076   2.879  21.242  0.00  0.00    +0.000 A 
ATOM     18  N   UNL     1       1.905   2.807  21.785  0.00  0.00    +0.000 NA
ATOM     19  C   UNL     1       0.836   2.892  20.939  0.00  0.00    +0.000 A 
ATOM     20  C   UNL     1       0.920   3.045  19.615  0.00  0.00    +0.000 A 
ATOM     21  C   UNL     1       2.260   3.110  19.010  0.00  0.00    +0.000 A 
ATOM     22  O   UNL     1       2.381   3.202  17.792  0.00  0.00    +0.000 OA
ENDBRANCH  15  16
ENDBRANCH  14  15
ENDBRANCH   4  14
TORSDOF 5
ENDMDL
MODEL 6
REMARK VINA RESULT:      -7.1      1.428      1.789
REMARK  Name = 
REMARK  7 active torsions:
REMARK  status: ('A' for Active; 'I' for Inactive)
REMARK    1  A    between atoms: C_1  and  C_2
REMARK    2  A    between atoms: C_2  and  C_3
REMARK    3  A    between atoms: C_2  and  C_4
REMARK    4  A    between atoms: C_6  and  C_7
REMARK    5  A    between atoms: C_10  and  C_11
REMARK    6  A    between atoms: C_11  and  C_12
REMARK    7  A    between atoms: C_12  and  N_13
REMARK                            x       y       z     vdW  Elec       q    Type
REMARK                         _______ _______ _______ _____ _____    ______ ____
ROOT
ATOM      1  C   UNL     1       5.791   4.881  16.063  0.00  0.00    +0.000 A 
ATOM      2  N   UNL     1       6.209   4.232  17.159  0.00  0.00    +0.000 NA
ATOM      3  O   UNL     1       5.425   4.780  18.176  0.00  0.00    +0.000 OA
ATOM      4  C   UNL     1       4.614   5.702  17.584  0.00  0.00    +0.000 A 
ATOM      5  N   UNL     1       4.815   5.826  16.293  0.00  0.00    +0.000 NA
ENDROOT
BRANCH   1   8
ATOM      6  C   UNL     1       6.081   3.782  12.650  0.00  0.00    +0.000 A 
ATOM      7  N   UNL     1       5.513   3.826  13.837  0.00  0.00    +0.000 NA
ATOM      8  C   UNL     1       6.257   4.628  14.691  0.00  0.00    +0.000 A 
ATOM      9  C   UNL     1       7.401   5.165  14.136  0.00  0.00    +0.000 A 
ATOM     10  S   UNL     1       7.553   4.664  12.507  0.00  0.00    +0.000 S 
BRANCH   6  12
ATOM     11  C   UNL     1       5.913   1.579  11.481  0.00  0.00    +0.000 C 
ATOM     12  C   UNL     1       5.518   3.055  11.457  0.00  0.00    +0.000 C 
ATOM     13  C   UNL     1       3.996   3.205  11.413  0.00  0.00    +0.000 C 
ENDBRANCH   6  12
ENDBRANCH   1   8
BRANCH   4  14
ATOM     14  C   UNL     1       3.638   6.396  18.454  0.00  0.00    +0.000 C 
BRANCH  14  15
ATOM     15  C   UNL     1       2.231   5.826  18.253  0.00  0.00    +0.000 C 
BRANCH  15  16
ATOM     16  N   UNL     1       1.974   4.692  19.130  0.00  0.00    +0.000 N 
ATOM     17  C   UNL     1       2.044   4.839  20.493  0.00  0.00    +0.000 A 
ATOM     18  N   UNL     1       1.889   3.885  21.350  0.00  0.00    +0.000 NA
ATOM     19  C   UNL     1       1.637   2.643  20.840  0.00  0.00    +0.000 A 
ATOM     20  C   UNL     1       1.542   2.357  19.539  0.00  0.00    +0.000 A 
ATOM     21  C   UNL     1       1.736   3.452  18.574  0.00  0.00    +0.000 A 
ATOM     22  O   UNL     1       1.704   3.223  17.369  0.00  0.00    +0.000 OA
ENDBRANCH  15  16
ENDBRANCH  14  15
ENDBRANCH   4  14
TORSDOF 5
ENDMDL
MODEL 7
REMARK VINA RESULT:      -7.1      1.180      1.452
REMARK  Name = 
REMARK  7 active torsions:
REMARK  status: ('A' for Active; 'I' for Inactive)
REMARK    1  A    between atoms: C_1  and  C_2
REMARK    2  A    between atoms: C_2  and  C_3
REMARK    3  A    between atoms: C_2  and  C_4
REMARK    4  A    between atoms: C_6  and  C_7
REMARK    5  A    between atoms: C_10  and  C_11
REMARK    6  A    between atoms: C_11  and  C_12
REMARK    7  A    between atoms: C_12  and  N_13
REMARK                            x       y       z     vdW  Elec       q    Type
REMARK                         _______ _______ _______ _____ _____    ______ ____
ROOT
ATOM      1  C   UNL     1       6.081   5.279  15.900  0.00  0.00    +0.000 A 
ATOM      2  N   UNL     1       6.260   6.552  16.279  0.00  0.00    +0.000 NA
ATOM      3  O   UNL     1       5.941   6.531  17.638  0.00  0.00    +0.000 OA
ATOM      4  C   UNL     1       5.604   5.244  17.936  0.00  0.00    +0.000 A 
ATOM      5  N   UNL     1       5.645   4.437  16.900  0.00  0.00    +0.000 NA
ENDROOT
BRANCH   1   8
ATOM      6  C   UNL     1       5.917   3.471  12.793  0.00  0.00    +0.000 A 
ATOM      7  N   UNL     1       5.529   3.761  14.017  0.00  0.00    +0.000 NA
ATOM      8  C   UNL     1       6.350   4.742  14.557  0.00  0.00    +0.000 A 
ATOM      9  C   UNL     1       7.371   5.166  13.730  0.00  0.00    +0.000 A 
ATOM     10  S   UNL     1       7.306   4.326  12.241  0.00  0.00    +0.000 S 
BRANCH   6  12
ATOM     11  C   UNL     1       4.191   3.203  11.004  0.00  0.00    +0.000 C 
ATOM     12  C   UNL     1       5.220   2.493  11.883  0.00  0.00    +0.000 C 
ATOM     13  C   UNL     1       6.242   1.747  11.023  0.00  0.00    +0.000 C 
ENDBRANCH   6  12
ENDBRANCH   1   8
BRANCH   4  14
ATOM     14  C   UNL     1       5.269   4.945  19.346  0.00  0.00    +0.000 C 
BRANCH  14  15
ATOM     15  C   UNL     1       3.822   5.342  19.654  0.00  0.00    +0.000 C 
BRANCH  15  16
ATOM     16  N   UNL     1       2.878   4.309  19.249  0.00  0.00    +0.000 N 
ATOM     17  C   UNL     1       2.115   4.470  18.119  0.00  0.00    +0.000 A 
ATOM     18  N   UNL     1       1.214   3.640  17.709  0.00  0.00    +0.000 NA
ATOM     19  C   UNL     1       1.022   2.524  18.473  0.00  0.00    +0.000 A 
ATOM     20  C   UNL     1       1.692   2.240  19.592  0.00  0.00    +0.000 A 
ATOM     21  C   UNL     1       2.705   3.203  20.055  0.00  0.00    +0.000 A 
ATOM     22  O   UNL     1       3.308   3.003  21.104  0.00  0.00    +0.000 OA
ENDBRANCH  15  16
ENDBRANCH  14  15
ENDBRANCH   4  14
TORSDOF 5
ENDMDL
MODEL 8
REMARK VINA RESULT:      -7.0      4.492      6.952
REMARK  Name = 
REMARK  7 active torsions:
REMARK  status: ('A' for Active; 'I' for Inactive)
REMARK    1  A    between atoms: C_1  and  C_2
REMARK    2  A    between atoms: C_2  and  C_3
REMARK    3  A    between atoms: C_2  and  C_4
REMARK    4  A    between atoms: C_6  and  C_7
REMARK    5  A    between atoms: C_10  and  C_11
REMARK    6  A    between atoms: C_11  and  C_12
REMARK    7  A    between atoms: C_12  and  N_13
REMARK                            x       y       z     vdW  Elec       q    Type
REMARK                         _______ _______ _______ _____ _____    ______ ____
ROOT
ATOM      1  C   UNL     1       3.366   7.040  18.108  0.00  0.00    +0.000 A 
ATOM      2  N   UNL     1       4.156   7.105  17.027  0.00  0.00    +0.000 NA
ATOM      3  O   UNL     1       4.847   5.892  17.059  0.00  0.00    +0.000 OA
ATOM      4  C   UNL     1       4.397   5.221  18.158  0.00  0.00    +0.000 A 
ATOM      5  N   UNL     1       3.507   5.890  18.855  0.00  0.00    +0.000 NA
ENDROOT
BRANCH   1   8
ATOM      6  C   UNL     1       1.043   9.085  19.942  0.00  0.00    +0.000 A 
ATOM      7  N   UNL     1       1.868   8.069  19.795  0.00  0.00    +0.000 NA
ATOM      8  C   UNL     1       2.372   8.050  18.502  0.00  0.00    +0.000 A 
ATOM      9  C   UNL     1       1.898   9.051  17.677  0.00  0.00    +0.000 A 
ATOM     10  S   UNL     1       0.799  10.044  18.533  0.00  0.00    +0.000 S 
BRANCH   6  12
ATOM     11  C   UNL     1       1.249   9.140  22.433  0.00  0.00    +0.000 C 
ATOM     12  C   UNL     1       0.355   9.449  21.232  0.00  0.00    +0.000 C 
ATOM     13  C   UNL     1      -0.045  10.925  21.223  0.00  0.00    +0.000 C 
ENDBRANCH   6  12
ENDBRANCH   1   8
BRANCH   4  14
ATOM     14  C   UNL     1       4.946   3.867  18.390  0.00  0.00    +0.000 C 
BRANCH  14  15
ATOM     15  C   UNL     1       3.845   2.808  18.277  0.00  0.00    +0.000 C 
BRANCH  15  16
ATOM     16  N   UNL     1       2.955   2.827  19.430  0.00  0.00    +0.000 N 
ATOM     17  C   UNL     1       3.451   2.630  20.695  0.00  0.00    +0.000 A 
ATOM     18  N   UNL     1       2.738   2.573  21.770  0.00  0.00    +0.000 NA
ATOM     19  C   UNL     1       1.389   2.721  21.614  0.00  0.00    +0.000 A 
ATOM     20  C   UNL     1       0.772   2.920  20.447  0.00  0.00    +0.000 A 
ATOM     21  C   UNL     1       1.597   2.967  19.228  0.00  0.00    +0.000 A 
ATOM     22  O   UNL     1       1.065   3.099  18.131  0.00  0.00    +0.000 OA
ENDBRANCH  15  16
ENDBRANCH  14  15
ENDBRANCH   4  14
TORSDOF 5
ENDMDL
MODEL 9
REMARK VINA RESULT:      -7.0      1.405      1.815
REMARK  Name = 
REMARK  7 active torsions:
REMARK  status: ('A' for Active; 'I' for Inactive)
REMARK    1  A    between atoms: C_1  and  C_2
REMARK    2  A    between atoms: C_2  and  C_3
REMARK    3  A    between atoms: C_2  and  C_4
REMARK    4  A    between atoms: C_6  and  C_7
REMARK    5  A    between atoms: C_10  and  C_11
REMARK    6  A    between atoms: C_11  and  C_12
REMARK    7  A    between atoms: C_12  and  N_13
REMARK                            x       y       z     vdW  Elec       q    Type
REMARK                         _______ _______ _______ _____ _____    ______ ____
ROOT
ATOM      1  C   UNL     1       6.688   4.850  16.116  0.00  0.00    +0.000 A 
ATOM      2  N   UNL     1       7.658   4.577  17.000  0.00  0.00    +0.000 NA
ATOM      3  O   UNL     1       7.109   4.985  18.217  0.00  0.00    +0.000 OA
ATOM      4  C   UNL     1       5.862   5.459  17.938  0.00  0.00    +0.000 A 
ATOM      5  N   UNL     1       5.561   5.427  16.660  0.00  0.00    +0.000 NA
ENDROOT
BRANCH   1   8
ATOM      6  C   UNL     1       6.095   3.473  12.845  0.00  0.00    +0.000 A 
ATOM      7  N   UNL     1       5.939   3.535  14.152  0.00  0.00    +0.000 NA
ATOM      8  C   UNL     1       6.734   4.545  14.678  0.00  0.00    +0.000 A 
ATOM      9  C   UNL     1       7.502   5.222  13.754  0.00  0.00    +0.000 A 
ATOM     10  S   UNL     1       7.228   4.591  12.187  0.00  0.00    +0.000 S 
BRANCH   6  12
ATOM     11  C   UNL     1       4.325   3.294  11.089  0.00  0.00    +0.000 C 
ATOM     12  C   UNL     1       5.345   2.534  11.937  0.00  0.00    +0.000 C 
ATOM     13  C   UNL     1       6.320   1.764  11.046  0.00  0.00    +0.000 C 
ENDBRANCH   6  12
ENDBRANCH   1   8
BRANCH   4  14
ATOM     14  C   UNL     1       5.042   5.913  19.084  0.00  0.00    +0.000 C 
BRANCH  14  15
ATOM     15  C   UNL     1       3.588   5.459  18.923  0.00  0.00    +0.000 C 
BRANCH  15  16
ATOM     16  N   UNL     1       3.478   4.008  18.846  0.00  0.00    +0.000 N 
ATOM     17  C   UNL     1       4.278   3.209  19.624  0.00  0.00    +0.000 A 
ATOM     18  N   UNL     1       4.295   1.918  19.587  0.00  0.00    +0.000 NA
ATOM     19  C   UNL     1       3.444   1.323  18.699  0.00  0.00    +0.000 A 
ATOM     20  C   UNL     1       2.611   1.976  17.885  0.00  0.00    +0.000 A 
ATOM     21  C   UNL     1       2.615   3.448  17.928  0.00  0.00    +0.000 A 
ATOM     22  O   UNL     1       1.899   4.086  17.162  0.00  0.00    +0.000 OA
ENDBRANCH  15  16
ENDBRANCH  14  15
ENDBRANCH   4  14
TORSDOF 5
ENDMDL
