MODEL 1
REMARK VINA RESULT:      -7.1      0.000      0.000
REMARK  Name = 
REMARK  13 active torsions:
REMARK  status: ('A' for Active; 'I' for Inactive)
REMARK    1  A    between atoms: C_1  and  C_2
REMARK    2  A    between atoms: C_2  and  N_3
REMARK    3  A    between atoms: N_3  and  C_4
REMARK    4  A    between atoms: N_3  and  C_6
REMARK    5  A    between atoms: C_4  and  C_5
REMARK    6  A    between atoms: C_6  and  C_7
REMARK    7  A    between atoms: C_7  and  C_8
REMARK    8  A    between atoms: C_8  and  C_9
REMARK    9  A    between atoms: C_9  and  C_10
REMARK   10  A    between atoms: C_16  and  O_17
REMARK   11  A    between atoms: O_17  and  C_18
REMARK   12  A    between atoms: C_19  and  O_20
REMARK   13  A    between atoms: O_20  and  C_21
REMARK                            x       y       z     vdW  Elec       q    Type
REMARK                         _______ _______ _______ _____ _____    ______ ____
ROOT
ATOM      1  C   UNL     1       7.312   5.568  17.328  0.00  0.00    +0.000 C 
ATOM      2  O   UNL     1       7.538   4.937  16.033  0.00  0.00    +0.000 OA
ATOM      3  C   UNL     1       6.439   4.254  15.593  0.00  0.00    +0.000 C 
ATOM      4  O   UNL     1       6.318   3.669  14.529  0.00  0.00    +0.000 OA
ATOM      5  C   UNL     1       5.434   4.368  16.638  0.00  0.00    +0.000 A 
ATOM      6  C   UNL     1       4.162   3.822  16.678  0.00  0.00    +0.000 A 
ATOM      7  C   UNL     1       3.367   4.048  17.812  0.00  0.00    +0.000 A 
ATOM      8  C   UNL     1       3.882   4.829  18.877  0.00  0.00    +0.000 A 
ATOM      9  C   UNL     1       5.181   5.351  18.795  0.00  0.00    +0.000 A 
ATOM     10  C   UNL     1       5.942   5.125  17.665  0.00  0.00    +0.000 A 
ENDROOT
BRANCH   7  11
ATOM     11  O   UNL     1       2.100   3.549  17.947  0.00  0.00    +0.000 OA
ATOM     12  C   UNL     1       1.925   2.345  18.682  0.00  0.00    +0.000 C 
ENDBRANCH   7  11
BRANCH   8  13
ATOM     13  O   UNL     1       3.277   5.174  20.061  0.00  0.00    +0.000 OA
ATOM     14  C   UNL     1       2.366   6.259  20.076  0.00  0.00    +0.000 C 
ENDBRANCH   8  13
BRANCH   1  15
ATOM     15  C   UNL     1       7.476   7.082  17.153  0.00  0.00    +0.000 C 
BRANCH  15  16
ATOM     16  C   UNL     1       8.106   7.783  18.361  0.00  0.00    +0.000 C 
BRANCH  16  17
ATOM     17  C   UNL     1       8.385   9.253  18.056  0.00  0.00    +0.000 C 
BRANCH  17  18
ATOM     18  C   UNL     1       9.210   9.948  19.158  0.00  0.00    +0.000 C 
BRANCH  18  19
ATOM     19  N   UNL     1       9.975  11.124  18.696  0.00  0.00    +0.000 NA
BRANCH  19  21
ATOM     20  C   UNL     1       9.720  13.325  17.443  0.00  0.00    +0.000 C 
ATOM     21  C   UNL     1       9.072  12.088  18.047  0.00  0.00    +0.000 C 
ENDBRANCH  19  21
BRANCH  19  22
ATOM     22  C   UNL     1      10.782  11.709  19.786  0.00  0.00    +0.000 C 
ATOM     23  C   UNL     1      12.292  11.760  19.557  0.00  0.00    +0.000 C 
ENDBRANCH  19  22
ENDBRANCH  18  19
ENDBRANCH  17  18
ENDBRANCH  16  17
ENDBRANCH  15  16
ENDBRANCH   1  15
TORSDOF 9
ENDMDL
MODEL 2
REMARK VINA RESULT:      -6.8      0.750      1.553
REMARK  Name = 
REMARK  13 active torsions:
REMARK  status: ('A' for Active; 'I' for Inactive)
REMARK    1  A    between atoms: C_1  and  C_2
REMARK    2  A    between atoms: C_2  and  N_3
REMARK    3  A    between atoms: N_3  and  C_4
REMARK    4  A    between atoms: N_3  and  C_6
REMARK    5  A    between atoms: C_4  and  C_5
REMARK    6  A    between atoms: C_6  and  C_7
REMARK    7  A    between atoms: C_7  and  C_8
REMARK    8  A    between atoms: C_8  and  C_9
REMARK    9  A    between atoms: C_9  and  C_10
REMARK   10  A    between atoms: C_16  and  O_17
REMARK   11  A    between atoms: O_17  and  C_18
REMARK   12  A    between atoms: C_19  and  O_20
REMARK   13  A    between atoms: O_20  and  C_21
REMARK                            x       y       z     vdW  Elec       q    Type
REMARK                         _______ _______ _______ _____ _____    ______ ____
ROOT
ATOM      1  C   UNL     1       7.399   6.227  17.293  0.00  0.00    +0.000 C 
ATOM      2  O   UNL     1       7.633   5.836  15.907  0.00  0.00    +0.000 OA
ATOM      3  C   UNL     1       6.610   5.083  15.404  0.00  0.00    +0.000 C 
ATOM      4  O   UNL     1       6.508   4.655  14.265  0.00  0.00    +0.000 OA
ATOM      5  C   UNL     1       5.658   4.898  16.487  0.00  0.00    +0.000 A 
ATOM      6  C   UNL     1       4.472   4.183  16.484  0.00  0.00    +0.000 A 
ATOM      7  C   UNL     1       3.719   4.123  17.666  0.00  0.00    +0.000 A 
ATOM      8  C   UNL     1       4.186   4.797  18.823  0.00  0.00    +0.000 A 
ATOM      9  C   UNL     1       5.399   5.499  18.780  0.00  0.00    +0.000 A 
ATOM     10  C   UNL     1       6.119   5.553  17.602  0.00  0.00    +0.000 A 
ENDROOT
BRANCH   7  11
ATOM     11  O   UNL     1       2.537   3.439  17.764  0.00  0.00    +0.000 OA
ATOM     12  C   UNL     1       2.586   2.027  17.917  0.00  0.00    +0.000 C 
ENDBRANCH   7  11
BRANCH   8  13
ATOM     13  O   UNL     1       3.608   4.872  20.067  0.00  0.00    +0.000 OA
ATOM     14  C   UNL     1       2.526   5.765  20.268  0.00  0.00    +0.000 C 
ENDBRANCH   8  13
BRANCH   1  15
ATOM     15  C   UNL     1       7.354   7.757  17.353  0.00  0.00    +0.000 C 
BRANCH  15  16
ATOM     16  C   UNL     1       8.166   8.358  18.506  0.00  0.00    +0.000 C 
BRANCH  16  17
ATOM     17  C   UNL     1       8.565   9.800  18.200  0.00  0.00    +0.000 C 
BRANCH  17  18
ATOM     18  C   UNL     1       9.340  10.465  19.354  0.00  0.00    +0.000 C 
BRANCH  18  19
ATOM     19  N   UNL     1       9.914  11.785  19.023  0.00  0.00    +0.000 NA
BRANCH  19  21
ATOM     20  C   UNL     1      12.325  11.985  19.814  0.00  0.00    +0.000 C 
ATOM     21  C   UNL     1      11.344  11.645  18.702  0.00  0.00    +0.000 C 
ENDBRANCH  19  21
BRANCH  19  22
ATOM     22  C   UNL     1       9.136  12.468  17.970  0.00  0.00    +0.000 C 
ATOM     23  C   UNL     1       8.343  13.699  18.406  0.00  0.00    +0.000 C 
ENDBRANCH  19  22
ENDBRANCH  18  19
ENDBRANCH  17  18
ENDBRANCH  16  17
ENDBRANCH  15  16
ENDBRANCH   1  15
TORSDOF 9
ENDMDL
MODEL 3
REMARK VINA RESULT:      -6.8      1.109      1.518
REMARK  Name = 
REMARK  13 active torsions:
REMARK  status: ('A' for Active; 'I' for Inactive)
REMARK    1  A    between atoms: C_1  and  C_2
REMARK    2  A    between atoms: C_2  and  N_3
REMARK    3  A    between atoms: N_3  and  C_4
REMARK    4  A    between atoms: N_3  and  C_6
REMARK    5  A    between atoms: C_4  and  C_5
REMARK    6  A    between atoms: C_6  and  C_7
REMARK    7  A    between atoms: C_7  and  C_8
REMARK    8  A    between atoms: C_8  and  C_9
REMARK    9  A    between atoms: C_9  and  C_10
REMARK   10  A    between atoms: C_16  and  O_17
REMARK   11  A    between atoms: O_17  and  C_18
REMARK   12  A    between atoms: C_19  and  O_20
REMARK   13  A    between atoms: O_20  and  C_21
REMARK                            x       y       z     vdW  Elec       q    Type
REMARK                         _______ _______ _______ _____ _____    ______ ____
ROOT
ATOM      1  C   UNL     1       7.526   5.360  18.474  0.00  0.00    +0.000 C 
ATOM      2  O   UNL     1       7.930   4.850  17.169  0.00  0.00    +0.000 OA
ATOM      3  C   UNL     1       6.858   4.498  16.398  0.00  0.00    +0.000 C 
ATOM      4  O   UNL     1       6.886   4.086  15.249  0.00  0.00    +0.000 OA
ATOM      5  C   UNL     1       5.673   4.720  17.210  0.00  0.00    +0.000 A 
ATOM      6  C   UNL     1       4.346   4.485  16.886  0.00  0.00    +0.000 A 
ATOM      7  C   UNL     1       3.361   4.756  17.848  0.00  0.00    +0.000 A 
ATOM      8  C   UNL     1       3.746   5.265  19.114  0.00  0.00    +0.000 A 
ATOM      9  C   UNL     1       5.102   5.476  19.398  0.00  0.00    +0.000 A 
ATOM     10  C   UNL     1       6.055   5.212  18.433  0.00  0.00    +0.000 A 
ENDROOT
BRANCH   7  11
ATOM     11  O   UNL     1       2.025   4.554  17.625  0.00  0.00    +0.000 OA
ATOM     12  C   UNL     1       1.483   3.268  17.900  0.00  0.00    +0.000 C 
ENDBRANCH   7  11
BRANCH   8  13
ATOM     13  O   UNL     1       2.952   5.601  20.183  0.00  0.00    +0.000 OA
ATOM     14  C   UNL     1       2.438   4.569  21.007  0.00  0.00    +0.000 C 
ENDBRANCH   8  13
BRANCH   1  15
ATOM     15  C   UNL     1       8.027   6.803  18.594  0.00  0.00    +0.000 C 
BRANCH  15  16
ATOM     16  C   UNL     1       7.441   7.754  17.545  0.00  0.00    +0.000 C 
BRANCH  16  17
ATOM     17  C   UNL     1       8.002   9.165  17.712  0.00  0.00    +0.000 C 
BRANCH  17  18
ATOM     18  C   UNL     1       8.928   9.301  18.937  0.00  0.00    +0.000 C 
BRANCH  18  19
ATOM     19  N   UNL     1       9.296  10.692  19.271  0.00  0.00    +0.000 NA
BRANCH  19  21
ATOM     20  C   UNL     1       9.823  12.188  21.262  0.00  0.00    +0.000 C 
ATOM     21  C   UNL     1       9.226  10.895  20.728  0.00  0.00    +0.000 C 
ENDBRANCH  19  21
BRANCH  19  22
ATOM     22  C   UNL     1      10.599  11.065  18.684  0.00  0.00    +0.000 C 
ATOM     23  C   UNL     1      10.563  12.106  17.567  0.00  0.00    +0.000 C 
ENDBRANCH  19  22
ENDBRANCH  18  19
ENDBRANCH  17  18
ENDBRANCH  16  17
ENDBRANCH  15  16
ENDBRANCH   1  15
TORSDOF 9
ENDMDL
MODEL 4
REMARK VINA RESULT:      -6.8      1.224      1.284
REMARK  Name = 
REMARK  13 active torsions:
REMARK  status: ('A' for Active; 'I' for Inactive)
REMARK    1  A    between atoms: C_1  and  C_2
REMARK    2  A    between atoms: C_2  and  N_3
REMARK    3  A    between atoms: N_3  and  C_4
REMARK    4  A    between atoms: N_3  and  C_6
REMARK    5  A    between atoms: C_4  and  C_5
REMARK    6  A    between atoms: C_6  and  C_7
REMARK    7  A    between atoms: C_7  and  C_8
REMARK    8  A    between atoms: C_8  and  C_9
REMARK    9  A    between atoms: C_9  and  C_10
REMARK   10  A    between atoms: C_16  and  O_17
REMARK   11  A    between atoms: O_17  and  C_18
REMARK   12  A    between atoms: C_19  and  O_20
REMARK   13  A    between atoms: O_20  and  C_21
REMARK                            x       y       z     vdW  Elec       q    Type
REMARK                         _______ _______ _______ _____ _____    ______ ____
ROOT
ATOM      1  C   UNL     1       7.550   5.061  17.953  0.00  0.00    +0.000 C 
ATOM      2  O   UNL     1       7.756   5.377  16.545  0.00  0.00    +0.000 OA
ATOM      3  C   UNL     1       6.631   5.168  15.798  0.00  0.00    +0.000 C 
ATOM      4  O   UNL     1       6.492   5.389  14.606  0.00  0.00    +0.000 OA
ATOM      5  C   UNL     1       5.625   4.638  16.705  0.00  0.00    +0.000 A 
ATOM      6  C   UNL     1       4.329   4.240  16.421  0.00  0.00    +0.000 A 
ATOM      7  C   UNL     1       3.537   3.732  17.462  0.00  0.00    +0.000 A 
ATOM      8  C   UNL     1       4.080   3.647  18.770  0.00  0.00    +0.000 A 
ATOM      9  C   UNL     1       5.401   4.053  19.005  0.00  0.00    +0.000 A 
ATOM     10  C   UNL     1       6.159   4.559  17.967  0.00  0.00    +0.000 A 
ENDROOT
BRANCH   7  11
ATOM     11  O   UNL     1       2.248   3.310  17.282  0.00  0.00    +0.000 OA
ATOM     12  C   UNL     1       1.198   4.247  17.485  0.00  0.00    +0.000 C 
ENDBRANCH   7  11
BRANCH   8  13
ATOM     13  O   UNL     1       3.483   3.194  19.921  0.00  0.00    +0.000 OA
ATOM     14  C   UNL     1       2.734   4.102  20.710  0.00  0.00    +0.000 C 
ENDBRANCH   8  13
BRANCH   1  15
ATOM     15  C   UNL     1       7.784   6.339  18.766  0.00  0.00    +0.000 C 
BRANCH  15  16
ATOM     16  C   UNL     1       7.890   7.607  17.913  0.00  0.00    +0.000 C 
BRANCH  16  17
ATOM     17  C   UNL     1       8.581   8.729  18.685  0.00  0.00    +0.000 C 
BRANCH  17  18
ATOM     18  C   UNL     1       8.640  10.052  17.896  0.00  0.00    +0.000 C 
BRANCH  18  19
ATOM     19  N   UNL     1       9.552  11.063  18.468  0.00  0.00    +0.000 NA
BRANCH  19  21
ATOM     20  C   UNL     1      10.443  13.128  17.275  0.00  0.00    +0.000 C 
ATOM     21  C   UNL     1       9.265  12.385  17.888  0.00  0.00    +0.000 C 
ENDBRANCH  19  21
BRANCH  19  22
ATOM     22  C   UNL     1       9.525  11.046  19.944  0.00  0.00    +0.000 C 
ATOM     23  C   UNL     1      10.607  11.864  20.649  0.00  0.00    +0.000 C 
ENDBRANCH  19  22
ENDBRANCH  18  19
ENDBRANCH  17  18
ENDBRANCH  16  17
ENDBRANCH  15  16
ENDBRANCH   1  15
TORSDOF 9
ENDMDL
MODEL 5
REMARK VINA RESULT:      -6.7      4.682      7.809
REMARK  Name = 
REMARK  13 active torsions:
REMARK  status: ('A' for Active; 'I' for Inactive)
REMARK    1  A    between atoms: C_1  and  C_2
REMARK    2  A    between atoms: C_2  and  N_3
REMARK    3  A    between atoms: N_3  and  C_4
REMARK    4  A    between atoms: N_3  and  C_6
REMARK    5  A    between atoms: C_4  and  C_5
REMARK    6  A    between atoms: C_6  and  C_7
REMARK    7  A    between atoms: C_7  and  C_8
REMARK    8  A    between atoms: C_8  and  C_9
REMARK    9  A    between atoms: C_9  and  C_10
REMARK   10  A    between atoms: C_16  and  O_17
REMARK   11  A    between atoms: O_17  and  C_18
REMARK   12  A    between atoms: C_19  and  O_20
REMARK   13  A    between atoms: O_20  and  C_21
REMARK                            x       y       z     vdW  Elec       q    Type
REMARK                         _______ _______ _______ _____ _____    ______ ____
ROOT
ATOM      1  C   UNL     1       2.592   6.934  20.008  0.00  0.00    +0.000 C 
ATOM      2  O   UNL     1       1.873   8.043  19.391  0.00  0.00    +0.000 OA
ATOM      3  C   UNL     1       2.278   8.270  18.106  0.00  0.00    +0.000 C 
ATOM      4  O   UNL     1       1.825   9.097  17.331  0.00  0.00    +0.000 OA
ATOM      5  C   UNL     1       3.348   7.324  17.835  0.00  0.00    +0.000 A 
ATOM      6  C   UNL     1       4.102   7.178  16.683  0.00  0.00    +0.000 A 
ATOM      7  C   UNL     1       5.110   6.202  16.656  0.00  0.00    +0.000 A 
ATOM      8  C   UNL     1       5.325   5.393  17.802  0.00  0.00    +0.000 A 
ATOM      9  C   UNL     1       4.543   5.586  18.949  0.00  0.00    +0.000 A 
ATOM     10  C   UNL     1       3.549   6.546  18.949  0.00  0.00    +0.000 A 
ENDROOT
BRANCH   7  11
ATOM     11  O   UNL     1       5.910   5.983  15.567  0.00  0.00    +0.000 OA
ATOM     12  C   UNL     1       5.612   4.877  14.725  0.00  0.00    +0.000 C 
ENDBRANCH   7  11
BRANCH   8  13
ATOM     13  O   UNL     1       6.241   4.387  17.984  0.00  0.00    +0.000 OA
ATOM     14  C   UNL     1       7.620   4.712  18.017  0.00  0.00    +0.000 C 
ENDBRANCH   8  13
BRANCH   1  15
ATOM     15  C   UNL     1       1.569   5.855  20.380  0.00  0.00    +0.000 C 
BRANCH  15  16
ATOM     16  C   UNL     1       2.187   4.606  21.018  0.00  0.00    +0.000 C 
BRANCH  16  17
ATOM     17  C   UNL     1       1.222   3.425  20.954  0.00  0.00    +0.000 C 
BRANCH  17  18
ATOM     18  C   UNL     1       1.690   2.320  19.987  0.00  0.00    +0.000 C 
BRANCH  18  19
ATOM     19  N   UNL     1       2.744   2.742  19.042  0.00  0.00    +0.000 NA
BRANCH  19  21
ATOM     20  C   UNL     1       4.747   1.968  20.409  0.00  0.00    +0.000 C 
ATOM     21  C   UNL     1       3.904   1.843  19.149  0.00  0.00    +0.000 C 
ENDBRANCH  19  21
BRANCH  19  22
ATOM     22  C   UNL     1       2.221   2.873  17.668  0.00  0.00    +0.000 C 
ATOM     23  C   UNL     1       1.418   4.138  17.368  0.00  0.00    +0.000 C 
ENDBRANCH  19  22
ENDBRANCH  18  19
ENDBRANCH  17  18
ENDBRANCH  16  17
ENDBRANCH  15  16
ENDBRANCH   1  15
TORSDOF 9
ENDMDL
MODEL 6
REMARK VINA RESULT:      -6.7      3.591      7.095
REMARK  Name = 
REMARK  13 active torsions:
REMARK  status: ('A' for Active; 'I' for Inactive)
REMARK    1  A    between atoms: C_1  and  C_2
REMARK    2  A    between atoms: C_2  and  N_3
REMARK    3  A    between atoms: N_3  and  C_4
REMARK    4  A    between atoms: N_3  and  C_6
REMARK    5  A    between atoms: C_4  and  C_5
REMARK    6  A    between atoms: C_6  and  C_7
REMARK    7  A    between atoms: C_7  and  C_8
REMARK    8  A    between atoms: C_8  and  C_9
REMARK    9  A    between atoms: C_9  and  C_10
REMARK   10  A    between atoms: C_16  and  O_17
REMARK   11  A    between atoms: O_17  and  C_18
REMARK   12  A    between atoms: C_19  and  O_20
REMARK   13  A    between atoms: O_20  and  C_21
REMARK                            x       y       z     vdW  Elec       q    Type
REMARK                         _______ _______ _______ _____ _____    ______ ____
ROOT
ATOM      1  C   UNL     1       2.403   6.010  18.212  0.00  0.00    +0.000 C 
ATOM      2  O   UNL     1       1.802   4.693  18.037  0.00  0.00    +0.000 OA
ATOM      3  C   UNL     1       2.650   3.816  17.421  0.00  0.00    +0.000 C 
ATOM      4  O   UNL     1       2.439   2.637  17.185  0.00  0.00    +0.000 OA
ATOM      5  C   UNL     1       3.861   4.559  17.110  0.00  0.00    +0.000 A 
ATOM      6  C   UNL     1       5.002   4.120  16.459  0.00  0.00    +0.000 A 
ATOM      7  C   UNL     1       6.048   5.030  16.246  0.00  0.00    +0.000 A 
ATOM      8  C   UNL     1       5.912   6.365  16.705  0.00  0.00    +0.000 A 
ATOM      9  C   UNL     1       4.733   6.765  17.349  0.00  0.00    +0.000 A 
ATOM     10  C   UNL     1       3.720   5.849  17.557  0.00  0.00    +0.000 A 
ENDROOT
BRANCH   7  11
ATOM     11  O   UNL     1       7.213   4.694  15.611  0.00  0.00    +0.000 OA
ATOM     12  C   UNL     1       7.252   4.767  14.191  0.00  0.00    +0.000 C 
ENDBRANCH   7  11
BRANCH   8  13
ATOM     13  O   UNL     1       6.806   7.403  16.608  0.00  0.00    +0.000 OA
ATOM     14  C   UNL     1       7.669   7.671  17.700  0.00  0.00    +0.000 C 
ENDBRANCH   8  13
BRANCH   1  15
ATOM     15  C   UNL     1       2.461   6.308  19.714  0.00  0.00    +0.000 C 
BRANCH  15  16
ATOM     16  C   UNL     1       2.002   7.723  20.085  0.00  0.00    +0.000 C 
BRANCH  16  17
ATOM     17  C   UNL     1       1.037   7.692  21.267  0.00  0.00    +0.000 C 
BRANCH  17  18
ATOM     18  C   UNL     1      -0.028   8.804  21.201  0.00  0.00    +0.000 C 
BRANCH  18  19
ATOM     19  N   UNL     1       0.326  10.033  21.942  0.00  0.00    +0.000 NA
BRANCH  19  21
ATOM     20  C   UNL     1      -0.005  10.912  19.576  0.00  0.00    +0.000 C 
ATOM     21  C   UNL     1       0.425  11.170  21.012  0.00  0.00    +0.000 C 
ENDBRANCH  19  21
BRANCH  19  22
ATOM     22  C   UNL     1      -0.594  10.270  23.072  0.00  0.00    +0.000 C 
ATOM     23  C   UNL     1      -1.447  11.536  22.993  0.00  0.00    +0.000 C 
ENDBRANCH  19  22
ENDBRANCH  18  19
ENDBRANCH  17  18
ENDBRANCH  16  17
ENDBRANCH  15  16
ENDBRANCH   1  15
TORSDOF 9
ENDMDL
MODEL 7
REMARK VINA RESULT:      -6.7      0.977      1.467
REMARK  Name = 
REMARK  13 active torsions:
REMARK  status: ('A' for Active; 'I' for Inactive)
REMARK    1  A    between atoms: C_1  and  C_2
REMARK    2  A    between atoms: C_2  and  N_3
REMARK    3  A    between atoms: N_3  and  C_4
REMARK    4  A    between atoms: N_3  and  C_6
REMARK    5  A    between atoms: C_4  and  C_5
REMARK    6  A    between atoms: C_6  and  C_7
REMARK    7  A    between atoms: C_7  and  C_8
REMARK    8  A    between atoms: C_8  and  C_9
REMARK    9  A    between atoms: C_9  and  C_10
REMARK   10  A    between atoms: C_16  and  O_17
REMARK   11  A    between atoms: O_17  and  C_18
REMARK   12  A    between atoms: C_19  and  O_20
REMARK   13  A    between atoms: O_20  and  C_21
REMARK                            x       y       z     vdW  Elec       q    Type
REMARK                         _______ _______ _______ _____ _____    ______ ____
ROOT
ATOM      1  C   UNL     1       7.317   6.115  17.458  0.00  0.00    +0.000 C 
ATOM      2  O   UNL     1       7.699   5.648  16.131  0.00  0.00    +0.000 OA
ATOM      3  C   UNL     1       6.706   4.925  15.532  0.00  0.00    +0.000 C 
ATOM      4  O   UNL     1       6.723   4.450  14.408  0.00  0.00    +0.000 OA
ATOM      5  C   UNL     1       5.618   4.839  16.493  0.00  0.00    +0.000 A 
ATOM      6  C   UNL     1       4.404   4.184  16.369  0.00  0.00    +0.000 A 
ATOM      7  C   UNL     1       3.507   4.218  17.447  0.00  0.00    +0.000 A 
ATOM      8  C   UNL     1       3.864   4.922  18.626  0.00  0.00    +0.000 A 
ATOM      9  C   UNL     1       5.110   5.559  18.709  0.00  0.00    +0.000 A 
ATOM     10  C   UNL     1       5.973   5.522  17.630  0.00  0.00    +0.000 A 
ENDROOT
BRANCH   7  11
ATOM     11  O   UNL     1       2.286   3.600  17.423  0.00  0.00    +0.000 OA
ATOM     12  C   UNL     1       2.225   2.215  17.737  0.00  0.00    +0.000 C 
ENDBRANCH   7  11
BRANCH   8  13
ATOM     13  O   UNL     1       3.141   5.084  19.782  0.00  0.00    +0.000 OA
ATOM     14  C   UNL     1       3.020   3.992  20.676  0.00  0.00    +0.000 C 
ENDBRANCH   8  13
BRANCH   1  15
ATOM     15  C   UNL     1       7.350   7.647  17.451  0.00  0.00    +0.000 C 
BRANCH  15  16
ATOM     16  C   UNL     1       8.389   8.251  18.402  0.00  0.00    +0.000 C 
BRANCH  16  17
ATOM     17  C   UNL     1       8.555   9.748  18.151  0.00  0.00    +0.000 C 
BRANCH  17  18
ATOM     18  C   UNL     1       9.312  10.466  19.285  0.00  0.00    +0.000 C 
BRANCH  18  19
ATOM     19  N   UNL     1       9.312  11.939  19.181  0.00  0.00    +0.000 NA
BRANCH  19  21
ATOM     20  C   UNL     1       9.638  12.425  21.658  0.00  0.00    +0.000 C 
ATOM     21  C   UNL     1      10.163  12.518  20.234  0.00  0.00    +0.000 C 
ENDBRANCH  19  21
BRANCH  19  22
ATOM     22  C   UNL     1       9.667  12.389  17.820  0.00  0.00    +0.000 C 
ATOM     23  C   UNL     1      11.157  12.395  17.478  0.00  0.00    +0.000 C 
ENDBRANCH  19  22
ENDBRANCH  18  19
ENDBRANCH  17  18
ENDBRANCH  16  17
ENDBRANCH  15  16
ENDBRANCH   1  15
TORSDOF 9
ENDMDL
MODEL 8
REMARK VINA RESULT:      -6.7      0.996      1.253
REMARK  Name = 
REMARK  13 active torsions:
REMARK  status: ('A' for Active; 'I' for Inactive)
REMARK    1  A    between atoms: C_1  and  C_2
REMARK    2  A    between atoms: C_2  and  N_3
REMARK    3  A    between atoms: N_3  and  C_4
REMARK    4  A    between atoms: N_3  and  C_6
REMARK    5  A    between atoms: C_4  and  C_5
REMARK    6  A    between atoms: C_6  and  C_7
REMARK    7  A    between atoms: C_7  and  C_8
REMARK    8  A    between atoms: C_8  and  C_9
REMARK    9  A    between atoms: C_9  and  C_10
REMARK   10  A    between atoms: C_16  and  O_17
REMARK   11  A    between atoms: O_17  and  C_18
REMARK   12  A    between atoms: C_19  and  O_20
REMARK   13  A    between atoms: O_20  and  C_21
REMARK                            x       y       z     vdW  Elec       q    Type
REMARK                         _______ _______ _______ _____ _____    ______ ____
ROOT
ATOM      1  C   UNL     1       7.006   6.106  17.735  0.00  0.00    +0.000 C 
ATOM      2  O   UNL     1       7.572   5.401  16.591  0.00  0.00    +0.000 OA
ATOM      3  C   UNL     1       6.667   4.562  16.003  0.00  0.00    +0.000 C 
ATOM      4  O   UNL     1       6.842   3.882  15.005  0.00  0.00    +0.000 OA
ATOM      5  C   UNL     1       5.450   4.645  16.793  0.00  0.00    +0.000 A 
ATOM      6  C   UNL     1       4.258   3.961  16.620  0.00  0.00    +0.000 A 
ATOM      7  C   UNL     1       3.214   4.186  17.530  0.00  0.00    +0.000 A 
ATOM      8  C   UNL     1       3.403   5.106  18.592  0.00  0.00    +0.000 A 
ATOM      9  C   UNL     1       4.632   5.766  18.733  0.00  0.00    +0.000 A 
ATOM     10  C   UNL     1       5.643   5.537  17.819  0.00  0.00    +0.000 A 
ENDROOT
BRANCH   7  11
ATOM     11  O   UNL     1       2.001   3.557  17.445  0.00  0.00    +0.000 OA
ATOM     12  C   UNL     1       1.824   2.337  18.154  0.00  0.00    +0.000 C 
ENDBRANCH   7  11
BRANCH   8  13
ATOM     13  O   UNL     1       2.521   5.475  19.578  0.00  0.00    +0.000 OA
ATOM     14  C   UNL     1       2.449   4.698  20.761  0.00  0.00    +0.000 C 
ENDBRANCH   8  13
BRANCH   1  15
ATOM     15  C   UNL     1       7.061   7.609  17.441  0.00  0.00    +0.000 C 
BRANCH  15  16
ATOM     16  C   UNL     1       8.283   8.315  18.037  0.00  0.00    +0.000 C 
BRANCH  16  17
ATOM     17  C   UNL     1       8.039   9.817  18.163  0.00  0.00    +0.000 C 
BRANCH  17  18
ATOM     18  C   UNL     1       9.337  10.645  18.081  0.00  0.00    +0.000 C 
BRANCH  18  19
ATOM     19  N   UNL     1      10.128  10.665  19.328  0.00  0.00    +0.000 NA
BRANCH  19  21
ATOM     20  C   UNL     1      11.472  12.202  17.808  0.00  0.00    +0.000 C 
ATOM     21  C   UNL     1      11.317  11.515  19.156  0.00  0.00    +0.000 C 
ENDBRANCH  19  21
BRANCH  19  22
ATOM     22  C   UNL     1       9.298  11.037  20.492  0.00  0.00    +0.000 C 
ATOM     23  C   UNL     1       9.486  12.455  21.030  0.00  0.00    +0.000 C 
ENDBRANCH  19  22
ENDBRANCH  18  19
ENDBRANCH  17  18
ENDBRANCH  16  17
ENDBRANCH  15  16
ENDBRANCH   1  15
TORSDOF 9
ENDMDL
MODEL 9
REMARK VINA RESULT:      -6.7      0.777      1.166
REMARK  Name = 
REMARK  13 active torsions:
REMARK  status: ('A' for Active; 'I' for Inactive)
REMARK    1  A    between atoms: C_1  and  C_2
REMARK    2  A    between atoms: C_2  and  N_3
REMARK    3  A    between atoms: N_3  and  C_4
REMARK    4  A    between atoms: N_3  and  C_6
REMARK    5  A    between atoms: C_4  and  C_5
REMARK    6  A    between atoms: C_6  and  C_7
REMARK    7  A    between atoms: C_7  and  C_8
REMARK    8  A    between atoms: C_8  and  C_9
REMARK    9  A    between atoms: C_9  and  C_10
REMARK   10  A    between atoms: C_16  and  O_17
REMARK   11  A    between atoms: O_17  and  C_18
REMARK   12  A    between atoms: C_19  and  O_20
REMARK   13  A    between atoms: O_20  and  C_21
REMARK                            x       y       z     vdW  Elec       q    Type
REMARK                         _______ _______ _______ _____ _____    ______ ____
ROOT
ATOM      1  C   UNL     1       7.309   5.956  17.430  0.00  0.00    +0.000 C 
ATOM      2  O   UNL     1       7.636   5.384  16.130  0.00  0.00    +0.000 OA
ATOM      3  C   UNL     1       6.628   4.602  15.641  0.00  0.00    +0.000 C 
ATOM      4  O   UNL     1       6.600   4.034  14.561  0.00  0.00    +0.000 OA
ATOM      5  C   UNL     1       5.587   4.585  16.656  0.00  0.00    +0.000 A 
ATOM      6  C   UNL     1       4.378   3.909  16.644  0.00  0.00    +0.000 A 
ATOM      7  C   UNL     1       3.531   4.024  17.757  0.00  0.00    +0.000 A 
ATOM      8  C   UNL     1       3.931   4.828  18.855  0.00  0.00    +0.000 A 
ATOM      9  C   UNL     1       5.170   5.483  18.825  0.00  0.00    +0.000 A 
ATOM     10  C   UNL     1       5.983   5.365  17.714  0.00  0.00    +0.000 A 
ENDROOT
BRANCH   7  11
ATOM     11  O   UNL     1       2.319   3.393  17.841  0.00  0.00    +0.000 OA
ATOM     12  C   UNL     1       2.281   2.076  18.374  0.00  0.00    +0.000 C 
ENDBRANCH   7  11
BRANCH   8  13
ATOM     13  O   UNL     1       3.259   5.079  20.026  0.00  0.00    +0.000 OA
ATOM     14  C   UNL     1       2.226   6.049  20.031  0.00  0.00    +0.000 C 
ENDBRANCH   8  13
BRANCH   1  15
ATOM     15  C   UNL     1       7.319   7.482  17.293  0.00  0.00    +0.000 C 
BRANCH  15  16
ATOM     16  C   UNL     1       8.339   8.181  18.199  0.00  0.00    +0.000 C 
BRANCH  16  17
ATOM     17  C   UNL     1       8.137   9.694  18.185  0.00  0.00    +0.000 C 
BRANCH  17  18
ATOM     18  C   UNL     1       9.442  10.471  17.924  0.00  0.00    +0.000 C 
BRANCH  18  19
ATOM     19  N   UNL     1       9.784  11.458  18.968  0.00  0.00    +0.000 NA
BRANCH  19  21
ATOM     20  C   UNL     1       8.935  11.685  21.357  0.00  0.00    +0.000 C 
ATOM     21  C   UNL     1       9.642  10.849  20.301  0.00  0.00    +0.000 C 
ENDBRANCH  19  21
BRANCH  19  22
ATOM     22  C   UNL     1      11.110  12.062  18.732  0.00  0.00    +0.000 C 
ATOM     23  C   UNL     1      12.132  11.910  19.859  0.00  0.00    +0.000 C 
ENDBRANCH  19  22
ENDBRANCH  18  19
ENDBRANCH  17  18
ENDBRANCH  16  17
ENDBRANCH  15  16
ENDBRANCH   1  15
TORSDOF 9
ENDMDL
