MODEL 1
REMARK VINA RESULT:      -8.7      0.000      0.000
REMARK  Name = 
REMARK  8 active torsions:
REMARK  status: ('A' for Active; 'I' for Inactive)
REMARK    1  A    between atoms: C_1  and  C_2
REMARK    2  A    between atoms: C_3  and  C_4
REMARK    3  A    between atoms: C_5  and  C_6
REMARK    4  A    between atoms: N_8  and  C_9
REMARK    5  A    between atoms: C_15  and  C_16
REMARK    6  A    between atoms: C_20  and  N_21
REMARK    7  A    between atoms: C_26  and  C_27
REMARK    8  A    between atoms: C_26  and  C_28
REMARK                            x       y       z     vdW  Elec       q    Type
REMARK                         _______ _______ _______ _____ _____    ______ ____
ROOT
ATOM      1  C   UNL     1       2.275   7.519  17.866  0.00  0.00    +0.000 C 
ATOM      2  N   UNL     1       3.555   7.356  17.750  0.00  0.00    +0.000 NA
ATOM      3  N   UNL     1       3.806   6.015  17.722  0.00  0.00    +0.000 N 
ATOM      4  C   UNL     1       2.595   5.200  17.863  0.00  0.00    +0.000 C 
ATOM      5  C   UNL     1       1.473   6.250  17.935  0.00  0.00    +0.000 C 
ENDROOT
BRANCH   3   6
ATOM      6  C   UNL     1       5.107   5.568  17.487  0.00  0.00    +0.000 A 
ATOM      7  C   UNL     1       5.407   4.856  16.312  0.00  0.00    +0.000 A 
ATOM      8  C   UNL     1       6.695   4.398  16.023  0.00  0.00    +0.000 A 
ATOM      9  C   UNL     1       7.730   4.645  16.915  0.00  0.00    +0.000 A 
ATOM     10  C   UNL     1       7.470   5.352  18.085  0.00  0.00    +0.000 A 
ATOM     11  C   UNL     1       6.174   5.806  18.367  0.00  0.00    +0.000 A 
ENDBRANCH   3   6
BRANCH   4  12
ATOM     12  C   UNL     1       2.626   4.302  19.096  0.00  0.00    +0.000 A 
ATOM     13  C   UNL     1       1.703   4.471  20.145  0.00  0.00    +0.000 A 
ATOM     14  C   UNL     1       1.781   3.704  21.311  0.00  0.00    +0.000 A 
ATOM     15  C   UNL     1       2.771   2.736  21.445  0.00  0.00    +0.000 A 
ATOM     16  C   UNL     1       3.681   2.534  20.399  0.00  0.00    +0.000 A 
ATOM     17  C   UNL     1       3.609   3.305  19.226  0.00  0.00    +0.000 A 
BRANCH  16  18
ATOM     18  N   UNL     1       4.733   1.518  20.546  0.00  0.00    +0.000 N 
ATOM     19  O   UNL     1       5.365   1.487  21.609  0.00  0.00    +0.000 OA
ATOM     20  O   UNL     1       4.923   0.749  19.591  0.00  0.00    +0.000 OA
ENDBRANCH  16  18
ENDBRANCH   4  12
BRANCH   1  22
ATOM     21  C   UNL     1       0.757   9.307  18.753  0.00  0.00    +0.000 C 
ATOM     22  C   UNL     1       1.686   8.876  17.885  0.00  0.00    +0.000 C 
BRANCH  21  25
ATOM     23  C   UNL     1      -1.863   9.861  17.375  0.00  0.00    +0.000 C 
ATOM     24  C   UNL     1      -0.993  10.901  18.044  0.00  0.00    +0.000 C 
ATOM     25  C   UNL     1       0.168  10.650  18.705  0.00  0.00    +0.000 C 
ATOM     26  C   UNL     1       0.922  11.757  19.483  0.00  0.00    +0.000 C 
ATOM     27  C   UNL     1       1.314  11.304  20.908  0.00  0.00    +0.000 C 
ATOM     28  C   UNL     1       2.212  12.148  18.728  0.00  0.00    +0.000 C 
ATOM     29  C   UNL     1       0.039  13.024  19.661  0.00  0.00    +0.000 C 
ATOM     30  C   UNL     1      -0.673  13.416  18.378  0.00  0.00    +0.000 C 
ATOM     31  C   UNL     1      -1.590  12.290  17.929  0.00  0.00    +0.000 C 
ENDBRANCH  21  25
ENDBRANCH   1  22
TORSDOF 5
ENDMDL
MODEL 2
REMARK VINA RESULT:      -8.7      4.269      9.111
REMARK  Name = 
REMARK  8 active torsions:
REMARK  status: ('A' for Active; 'I' for Inactive)
REMARK    1  A    between atoms: C_1  and  C_2
REMARK    2  A    between atoms: C_3  and  C_4
REMARK    3  A    between atoms: C_5  and  C_6
REMARK    4  A    between atoms: N_8  and  C_9
REMARK    5  A    between atoms: C_15  and  C_16
REMARK    6  A    between atoms: C_20  and  N_21
REMARK    7  A    between atoms: C_26  and  C_27
REMARK    8  A    between atoms: C_26  and  C_28
REMARK                            x       y       z     vdW  Elec       q    Type
REMARK                         _______ _______ _______ _____ _____    ______ ____
ROOT
ATOM      1  C   UNL     1       1.613   9.374  18.533  0.00  0.00    +0.000 C 
ATOM      2  N   UNL     1       2.046  10.530  18.139  0.00  0.00    +0.000 NA
ATOM      3  N   UNL     1       1.372  11.490  18.835  0.00  0.00    +0.000 N 
ATOM      4  C   UNL     1       0.374  10.940  19.756  0.00  0.00    +0.000 C 
ATOM      5  C   UNL     1       0.543   9.421  19.588  0.00  0.00    +0.000 C 
ENDROOT
BRANCH   3   6
ATOM      6  C   UNL     1       1.736  12.829  18.679  0.00  0.00    +0.000 A 
ATOM      7  C   UNL     1       3.013  13.161  18.193  0.00  0.00    +0.000 A 
ATOM      8  C   UNL     1       3.422  14.485  18.008  0.00  0.00    +0.000 A 
ATOM      9  C   UNL     1       2.550  15.523  18.307  0.00  0.00    +0.000 A 
ATOM     10  C   UNL     1       1.276  15.231  18.784  0.00  0.00    +0.000 A 
ATOM     11  C   UNL     1       0.875  13.899  18.968  0.00  0.00    +0.000 A 
ENDBRANCH   3   6
BRANCH   4  12
ATOM     12  C   UNL     1      -1.045  11.401  19.436  0.00  0.00    +0.000 A 
ATOM     13  C   UNL     1      -1.839  12.046  20.403  0.00  0.00    +0.000 A 
ATOM     14  C   UNL     1      -3.166  12.395  20.136  0.00  0.00    +0.000 A 
ATOM     15  C   UNL     1      -3.722  12.126  18.890  0.00  0.00    +0.000 A 
ATOM     16  C   UNL     1      -2.938  11.511  17.906  0.00  0.00    +0.000 A 
ATOM     17  C   UNL     1      -1.604  11.155  18.169  0.00  0.00    +0.000 A 
BRANCH  16  18
ATOM     18  N   UNL     1      -3.529  11.220  16.592  0.00  0.00    +0.000 N 
ATOM     19  O   UNL     1      -4.763  11.232  16.496  0.00  0.00    +0.000 OA
ATOM     20  O   UNL     1      -2.752  10.979  15.655  0.00  0.00    +0.000 OA
ENDBRANCH  16  18
ENDBRANCH   4  12
BRANCH   1  22
ATOM     21  C   UNL     1       2.833   7.191  18.696  0.00  0.00    +0.000 C 
ATOM     22  C   UNL     1       2.185   8.125  17.984  0.00  0.00    +0.000 C 
BRANCH  21  25
ATOM     23  C   UNL     1       5.353   7.289  17.051  0.00  0.00    +0.000 C 
ATOM     24  C   UNL     1       4.537   6.045  17.322  0.00  0.00    +0.000 C 
ATOM     25  C   UNL     1       3.425   5.987  18.100  0.00  0.00    +0.000 C 
ATOM     26  C   UNL     1       2.733   4.643  18.439  0.00  0.00    +0.000 C 
ATOM     27  C   UNL     1       2.439   4.504  19.950  0.00  0.00    +0.000 C 
ATOM     28  C   UNL     1       1.395   4.529  17.674  0.00  0.00    +0.000 C 
ATOM     29  C   UNL     1       3.633   3.433  18.062  0.00  0.00    +0.000 C 
ATOM     30  C   UNL     1       4.255   3.585  16.684  0.00  0.00    +0.000 C 
ATOM     31  C   UNL     1       5.133   4.826  16.646  0.00  0.00    +0.000 C 
ENDBRANCH  21  25
ENDBRANCH   1  22
TORSDOF 5
ENDMDL
MODEL 3
REMARK VINA RESULT:      -8.5      4.481      9.493
REMARK  Name = 
REMARK  8 active torsions:
REMARK  status: ('A' for Active; 'I' for Inactive)
REMARK    1  A    between atoms: C_1  and  C_2
REMARK    2  A    between atoms: C_3  and  C_4
REMARK    3  A    between atoms: C_5  and  C_6
REMARK    4  A    between atoms: N_8  and  C_9
REMARK    5  A    between atoms: C_15  and  C_16
REMARK    6  A    between atoms: C_20  and  N_21
REMARK    7  A    between atoms: C_26  and  C_27
REMARK    8  A    between atoms: C_26  and  C_28
REMARK                            x       y       z     vdW  Elec       q    Type
REMARK                         _______ _______ _______ _____ _____    ______ ____
ROOT
ATOM      1  C   UNL     1       1.665   9.110  18.522  0.00  0.00    +0.000 C 
ATOM      2  N   UNL     1       1.023   9.189  19.645  0.00  0.00    +0.000 NA
ATOM      3  N   UNL     1       0.610  10.480  19.802  0.00  0.00    +0.000 N 
ATOM      4  C   UNL     1       1.035  11.358  18.708  0.00  0.00    +0.000 C 
ATOM      5  C   UNL     1       1.767  10.398  17.755  0.00  0.00    +0.000 C 
ENDROOT
BRANCH   3   6
ATOM      6  C   UNL     1      -0.209  10.808  20.884  0.00  0.00    +0.000 A 
ATOM      7  C   UNL     1      -0.057  10.141  22.112  0.00  0.00    +0.000 A 
ATOM      8  C   UNL     1      -0.842  10.441  23.229  0.00  0.00    +0.000 A 
ATOM      9  C   UNL     1      -1.811  11.430  23.143  0.00  0.00    +0.000 A 
ATOM     10  C   UNL     1      -1.986  12.115  21.944  0.00  0.00    +0.000 A 
ATOM     11  C   UNL     1      -1.194  11.806  20.829  0.00  0.00    +0.000 A 
ENDBRANCH   3   6
BRANCH   4  12
ATOM     12  C   UNL     1       1.932  12.499  19.179  0.00  0.00    +0.000 A 
ATOM     13  C   UNL     1       2.003  12.858  20.538  0.00  0.00    +0.000 A 
ATOM     14  C   UNL     1       2.761  13.954  20.960  0.00  0.00    +0.000 A 
ATOM     15  C   UNL     1       3.479  14.704  20.035  0.00  0.00    +0.000 A 
ATOM     16  C   UNL     1       3.443  14.344  18.682  0.00  0.00    +0.000 A 
ATOM     17  C   UNL     1       2.680  13.244  18.252  0.00  0.00    +0.000 A 
BRANCH  16  18
ATOM     18  N   UNL     1       4.196  15.143  17.704  0.00  0.00    +0.000 N 
ATOM     19  O   UNL     1       3.556  15.864  16.929  0.00  0.00    +0.000 OA
ATOM     20  O   UNL     1       5.433  15.045  17.717  0.00  0.00    +0.000 OA
ENDBRANCH  16  18
ENDBRANCH   4  12
BRANCH   1  22
ATOM     21  C   UNL     1       2.949   6.973  18.785  0.00  0.00    +0.000 C 
ATOM     22  C   UNL     1       2.206   7.816  18.051  0.00  0.00    +0.000 C 
BRANCH  21  25
ATOM     23  C   UNL     1       5.507   6.891  17.199  0.00  0.00    +0.000 C 
ATOM     24  C   UNL     1       4.634   5.695  17.508  0.00  0.00    +0.000 C 
ATOM     25  C   UNL     1       3.503   5.720  18.261  0.00  0.00    +0.000 C 
ATOM     26  C   UNL     1       2.749   4.423  18.646  0.00  0.00    +0.000 C 
ATOM     27  C   UNL     1       2.415   4.368  20.154  0.00  0.00    +0.000 C 
ATOM     28  C   UNL     1       1.425   4.327  17.855  0.00  0.00    +0.000 C 
ATOM     29  C   UNL     1       3.606   3.160  18.348  0.00  0.00    +0.000 C 
ATOM     30  C   UNL     1       4.265   3.221  16.980  0.00  0.00    +0.000 C 
ATOM     31  C   UNL     1       5.194   4.422  16.905  0.00  0.00    +0.000 C 
ENDBRANCH  21  25
ENDBRANCH   1  22
TORSDOF 5
ENDMDL
MODEL 4
REMARK VINA RESULT:      -8.5      4.478      9.480
REMARK  Name = 
REMARK  8 active torsions:
REMARK  status: ('A' for Active; 'I' for Inactive)
REMARK    1  A    between atoms: C_1  and  C_2
REMARK    2  A    between atoms: C_3  and  C_4
REMARK    3  A    between atoms: C_5  and  C_6
REMARK    4  A    between atoms: N_8  and  C_9
REMARK    5  A    between atoms: C_15  and  C_16
REMARK    6  A    between atoms: C_20  and  N_21
REMARK    7  A    between atoms: C_26  and  C_27
REMARK    8  A    between atoms: C_26  and  C_28
REMARK                            x       y       z     vdW  Elec       q    Type
REMARK                         _______ _______ _______ _____ _____    ______ ____
ROOT
ATOM      1  C   UNL     1       1.642   9.093  18.566  0.00  0.00    +0.000 C 
ATOM      2  N   UNL     1       1.011   9.183  19.694  0.00  0.00    +0.000 NA
ATOM      3  N   UNL     1       0.606  10.477  19.847  0.00  0.00    +0.000 N 
ATOM      4  C   UNL     1       1.026  11.346  18.743  0.00  0.00    +0.000 C 
ATOM      5  C   UNL     1       1.744  10.376  17.790  0.00  0.00    +0.000 C 
ENDROOT
BRANCH   3   6
ATOM      6  C   UNL     1      -0.200  10.817  20.934  0.00  0.00    +0.000 A 
ATOM      7  C   UNL     1      -1.191  11.805  20.796  0.00  0.00    +0.000 A 
ATOM      8  C   UNL     1      -2.033  12.173  21.850  0.00  0.00    +0.000 A 
ATOM      9  C   UNL     1      -1.902  11.552  23.084  0.00  0.00    +0.000 A 
ATOM     10  C   UNL     1      -0.936  10.565  23.255  0.00  0.00    +0.000 A 
ATOM     11  C   UNL     1      -0.095  10.204  22.192  0.00  0.00    +0.000 A 
ENDBRANCH   3   6
BRANCH   4  12
ATOM     12  C   UNL     1       1.934  12.485  19.199  0.00  0.00    +0.000 A 
ATOM     13  C   UNL     1       2.023  12.849  20.556  0.00  0.00    +0.000 A 
ATOM     14  C   UNL     1       2.790  13.943  20.964  0.00  0.00    +0.000 A 
ATOM     15  C   UNL     1       3.502  14.686  20.028  0.00  0.00    +0.000 A 
ATOM     16  C   UNL     1       3.447  14.321  18.676  0.00  0.00    +0.000 A 
ATOM     17  C   UNL     1       2.675  13.223  18.260  0.00  0.00    +0.000 A 
BRANCH  16  18
ATOM     18  N   UNL     1       4.192  15.112  17.687  0.00  0.00    +0.000 N 
ATOM     19  O   UNL     1       5.418  14.953  17.621  0.00  0.00    +0.000 OA
ATOM     20  O   UNL     1       3.544  15.893  16.973  0.00  0.00    +0.000 OA
ENDBRANCH  16  18
ENDBRANCH   4  12
BRANCH   1  22
ATOM     21  C   UNL     1       2.931   6.959  18.825  0.00  0.00    +0.000 C 
ATOM     22  C   UNL     1       2.172   7.794  18.099  0.00  0.00    +0.000 C 
BRANCH  21  25
ATOM     23  C   UNL     1       5.452   6.855  17.182  0.00  0.00    +0.000 C 
ATOM     24  C   UNL     1       4.586   5.664  17.526  0.00  0.00    +0.000 C 
ATOM     25  C   UNL     1       3.473   5.699  18.304  0.00  0.00    +0.000 C 
ATOM     26  C   UNL     1       2.727   4.407  18.722  0.00  0.00    +0.000 C 
ATOM     27  C   UNL     1       2.428   4.371  20.238  0.00  0.00    +0.000 C 
ATOM     28  C   UNL     1       1.384   4.303  17.963  0.00  0.00    +0.000 C 
ATOM     29  C   UNL     1       3.576   3.141  18.419  0.00  0.00    +0.000 C 
ATOM     30  C   UNL     1       4.203   3.184  17.036  0.00  0.00    +0.000 C 
ATOM     31  C   UNL     1       5.131   4.383  16.925  0.00  0.00    +0.000 C 
ENDBRANCH  21  25
ENDBRANCH   1  22
TORSDOF 5
ENDMDL
MODEL 5
REMARK VINA RESULT:      -8.5      0.714      1.862
REMARK  Name = 
REMARK  8 active torsions:
REMARK  status: ('A' for Active; 'I' for Inactive)
REMARK    1  A    between atoms: C_1  and  C_2
REMARK    2  A    between atoms: C_3  and  C_4
REMARK    3  A    between atoms: C_5  and  C_6
REMARK    4  A    between atoms: N_8  and  C_9
REMARK    5  A    between atoms: C_15  and  C_16
REMARK    6  A    between atoms: C_20  and  N_21
REMARK    7  A    between atoms: C_26  and  C_27
REMARK    8  A    between atoms: C_26  and  C_28
REMARK                            x       y       z     vdW  Elec       q    Type
REMARK                         _______ _______ _______ _____ _____    ______ ____
ROOT
ATOM      1  C   UNL     1       2.247   7.733  17.813  0.00  0.00    +0.000 C 
ATOM      2  N   UNL     1       3.517   7.538  17.653  0.00  0.00    +0.000 NA
ATOM      3  N   UNL     1       3.734   6.191  17.619  0.00  0.00    +0.000 N 
ATOM      4  C   UNL     1       2.510   5.406  17.803  0.00  0.00    +0.000 C 
ATOM      5  C   UNL     1       1.418   6.483  17.912  0.00  0.00    +0.000 C 
ENDROOT
BRANCH   3   6
ATOM      6  C   UNL     1       5.015   5.712  17.339  0.00  0.00    +0.000 A 
ATOM      7  C   UNL     1       6.054   5.887  18.271  0.00  0.00    +0.000 A 
ATOM      8  C   UNL     1       7.350   5.416  18.044  0.00  0.00    +0.000 A 
ATOM      9  C   UNL     1       7.642   4.748  16.864  0.00  0.00    +0.000 A 
ATOM     10  C   UNL     1       6.638   4.551  15.921  0.00  0.00    +0.000 A 
ATOM     11  C   UNL     1       5.340   5.029  16.157  0.00  0.00    +0.000 A 
ENDBRANCH   3   6
BRANCH   4  12
ATOM     12  C   UNL     1       2.563   4.509  19.037  0.00  0.00    +0.000 A 
ATOM     13  C   UNL     1       1.711   4.729  20.135  0.00  0.00    +0.000 A 
ATOM     14  C   UNL     1       1.813   3.960  21.298  0.00  0.00    +0.000 A 
ATOM     15  C   UNL     1       2.756   2.941  21.380  0.00  0.00    +0.000 A 
ATOM     16  C   UNL     1       3.593   2.689  20.286  0.00  0.00    +0.000 A 
ATOM     17  C   UNL     1       3.496   3.461  19.115  0.00  0.00    +0.000 A 
BRANCH  16  18
ATOM     18  N   UNL     1       4.594   1.617  20.377  0.00  0.00    +0.000 N 
ATOM     19  O   UNL     1       5.275   1.546  21.408  0.00  0.00    +0.000 OA
ATOM     20  O   UNL     1       4.696   0.845  19.411  0.00  0.00    +0.000 OA
ENDBRANCH  16  18
ENDBRANCH   4  12
BRANCH   1  22
ATOM     21  C   UNL     1       1.364   9.778  18.962  0.00  0.00    +0.000 C 
ATOM     22  C   UNL     1       1.692   9.104  17.850  0.00  0.00    +0.000 C 
BRANCH  21  25
ATOM     23  C   UNL     1       2.903  12.197  18.042  0.00  0.00    +0.000 C 
ATOM     24  C   UNL     1       1.488  12.215  18.574  0.00  0.00    +0.000 C 
ATOM     25  C   UNL     1       0.773  11.122  18.948  0.00  0.00    +0.000 C 
ATOM     26  C   UNL     1      -0.720  11.218  19.347  0.00  0.00    +0.000 C 
ATOM     27  C   UNL     1      -1.584  10.155  18.631  0.00  0.00    +0.000 C 
ATOM     28  C   UNL     1      -0.874  11.017  20.872  0.00  0.00    +0.000 C 
ATOM     29  C   UNL     1      -1.322  12.597  18.957  0.00  0.00    +0.000 C 
ATOM     30  C   UNL     1      -0.409  13.752  19.335  0.00  0.00    +0.000 C 
ATOM     31  C   UNL     1       0.920  13.620  18.608  0.00  0.00    +0.000 C 
ENDBRANCH  21  25
ENDBRANCH   1  22
TORSDOF 5
ENDMDL
MODEL 6
REMARK VINA RESULT:      -8.4      0.744      1.752
REMARK  Name = 
REMARK  8 active torsions:
REMARK  status: ('A' for Active; 'I' for Inactive)
REMARK    1  A    between atoms: C_1  and  C_2
REMARK    2  A    between atoms: C_3  and  C_4
REMARK    3  A    between atoms: C_5  and  C_6
REMARK    4  A    between atoms: N_8  and  C_9
REMARK    5  A    between atoms: C_15  and  C_16
REMARK    6  A    between atoms: C_20  and  N_21
REMARK    7  A    between atoms: C_26  and  C_27
REMARK    8  A    between atoms: C_26  and  C_28
REMARK                            x       y       z     vdW  Elec       q    Type
REMARK                         _______ _______ _______ _____ _____    ______ ____
ROOT
ATOM      1  C   UNL     1       2.269   7.816  17.821  0.00  0.00    +0.000 C 
ATOM      2  N   UNL     1       3.538   7.614  17.654  0.00  0.00    +0.000 NA
ATOM      3  N   UNL     1       3.746   6.266  17.609  0.00  0.00    +0.000 N 
ATOM      4  C   UNL     1       2.517   5.487  17.792  0.00  0.00    +0.000 C 
ATOM      5  C   UNL     1       1.432   6.570  17.914  0.00  0.00    +0.000 C 
ENDROOT
BRANCH   3   6
ATOM      6  C   UNL     1       5.022   5.781  17.320  0.00  0.00    +0.000 A 
ATOM      7  C   UNL     1       5.270   5.128  16.100  0.00  0.00    +0.000 A 
ATOM      8  C   UNL     1       6.532   4.635  15.757  0.00  0.00    +0.000 A 
ATOM      9  C   UNL     1       7.593   4.787  16.640  0.00  0.00    +0.000 A 
ATOM     10  C   UNL     1       7.385   5.433  17.855  0.00  0.00    +0.000 A 
ATOM     11  C   UNL     1       6.115   5.922  18.190  0.00  0.00    +0.000 A 
ENDBRANCH   3   6
BRANCH   4  12
ATOM     12  C   UNL     1       2.569   4.581  19.019  0.00  0.00    +0.000 A 
ATOM     13  C   UNL     1       1.737   4.810  20.131  0.00  0.00    +0.000 A 
ATOM     14  C   UNL     1       1.840   4.031  21.286  0.00  0.00    +0.000 A 
ATOM     15  C   UNL     1       2.763   2.992  21.348  0.00  0.00    +0.000 A 
ATOM     16  C   UNL     1       3.579   2.730  20.240  0.00  0.00    +0.000 A 
ATOM     17  C   UNL     1       3.481   3.513  19.076  0.00  0.00    +0.000 A 
BRANCH  16  18
ATOM     18  N   UNL     1       4.560   1.638  20.310  0.00  0.00    +0.000 N 
ATOM     19  O   UNL     1       4.627   0.858  19.352  0.00  0.00    +0.000 OA
ATOM     20  O   UNL     1       5.264   1.565  21.329  0.00  0.00    +0.000 OA
ENDBRANCH  16  18
ENDBRANCH   4  12
BRANCH   1  22
ATOM     21  C   UNL     1       1.326   9.827  18.983  0.00  0.00    +0.000 C 
ATOM     22  C   UNL     1       1.723   9.190  17.871  0.00  0.00    +0.000 C 
BRANCH  21  25
ATOM     23  C   UNL     1       2.873  12.232  18.038  0.00  0.00    +0.000 C 
ATOM     24  C   UNL     1       1.467  12.263  18.592  0.00  0.00    +0.000 C 
ATOM     25  C   UNL     1       0.748  11.176  18.978  0.00  0.00    +0.000 C 
ATOM     26  C   UNL     1      -0.738  11.286  19.401  0.00  0.00    +0.000 C 
ATOM     27  C   UNL     1      -1.624  10.232  18.698  0.00  0.00    +0.000 C 
ATOM     28  C   UNL     1      -0.870  11.087  20.928  0.00  0.00    +0.000 C 
ATOM     29  C   UNL     1      -1.333  12.671  19.021  0.00  0.00    +0.000 C 
ATOM     30  C   UNL     1      -0.403  13.817  19.384  0.00  0.00    +0.000 C 
ATOM     31  C   UNL     1       0.913  13.673  18.636  0.00  0.00    +0.000 C 
ENDBRANCH  21  25
ENDBRANCH   1  22
TORSDOF 5
ENDMDL
MODEL 7
REMARK VINA RESULT:      -8.3      4.284      9.478
REMARK  Name = 
REMARK  8 active torsions:
REMARK  status: ('A' for Active; 'I' for Inactive)
REMARK    1  A    between atoms: C_1  and  C_2
REMARK    2  A    between atoms: C_3  and  C_4
REMARK    3  A    between atoms: C_5  and  C_6
REMARK    4  A    between atoms: N_8  and  C_9
REMARK    5  A    between atoms: C_15  and  C_16
REMARK    6  A    between atoms: C_20  and  N_21
REMARK    7  A    between atoms: C_26  and  C_27
REMARK    8  A    between atoms: C_26  and  C_28
REMARK                            x       y       z     vdW  Elec       q    Type
REMARK                         _______ _______ _______ _____ _____    ______ ____
ROOT
ATOM      1  C   UNL     1       1.785   8.868  19.169  0.00  0.00    +0.000 C 
ATOM      2  N   UNL     1       1.028   9.146  20.183  0.00  0.00    +0.000 NA
ATOM      3  N   UNL     1       0.521  10.399  19.996  0.00  0.00    +0.000 N 
ATOM      4  C   UNL     1       1.002  11.038  18.767  0.00  0.00    +0.000 C 
ATOM      5  C   UNL     1       1.886   9.951  18.132  0.00  0.00    +0.000 C 
ENDROOT
BRANCH   3   6
ATOM      6  C   UNL     1      -0.423  10.896  20.896  0.00  0.00    +0.000 A 
ATOM      7  C   UNL     1      -0.384  10.506  22.247  0.00  0.00    +0.000 A 
ATOM      8  C   UNL     1      -1.298  10.983  23.190  0.00  0.00    +0.000 A 
ATOM      9  C   UNL     1      -2.287  11.876  22.800  0.00  0.00    +0.000 A 
ATOM     10  C   UNL     1      -2.352  12.288  21.472  0.00  0.00    +0.000 A 
ATOM     11  C   UNL     1      -1.431  11.802  20.533  0.00  0.00    +0.000 A 
ENDBRANCH   3   6
BRANCH   4  12
ATOM     12  C   UNL     1       1.773  12.328  19.032  0.00  0.00    +0.000 A 
ATOM     13  C   UNL     1       2.434  13.009  17.994  0.00  0.00    +0.000 A 
ATOM     14  C   UNL     1       3.207  14.145  18.249  0.00  0.00    +0.000 A 
ATOM     15  C   UNL     1       3.321  14.636  19.545  0.00  0.00    +0.000 A 
ATOM     16  C   UNL     1       2.646  13.988  20.587  0.00  0.00    +0.000 A 
ATOM     17  C   UNL     1       1.868  12.843  20.337  0.00  0.00    +0.000 A 
BRANCH  16  18
ATOM     18  N   UNL     1       2.773  14.503  21.958  0.00  0.00    +0.000 N 
ATOM     19  O   UNL     1       1.770  14.998  22.486  0.00  0.00    +0.000 OA
ATOM     20  O   UNL     1       3.883  14.408  22.504  0.00  0.00    +0.000 OA
ENDBRANCH  16  18
ENDBRANCH   4  12
BRANCH   1  22
ATOM     21  C   UNL     1       2.239   6.649  18.094  0.00  0.00    +0.000 C 
ATOM     22  C   UNL     1       2.452   7.551  19.064  0.00  0.00    +0.000 C 
BRANCH  21  25
ATOM     23  C   UNL     1       4.793   6.170  16.573  0.00  0.00    +0.000 C 
ATOM     24  C   UNL     1       4.019   5.115  17.331  0.00  0.00    +0.000 C 
ATOM     25  C   UNL     1       2.890   5.335  18.055  0.00  0.00    +0.000 C 
ATOM     26  C   UNL     1       2.242   4.223  18.916  0.00  0.00    +0.000 C 
ATOM     27  C   UNL     1       1.916   4.709  20.347  0.00  0.00    +0.000 C 
ATOM     28  C   UNL     1       0.929   3.742  18.259  0.00  0.00    +0.000 C 
ATOM     29  C   UNL     1       3.197   3.007  19.082  0.00  0.00    +0.000 C 
ATOM     30  C   UNL     1       3.847   2.602  17.769  0.00  0.00    +0.000 C 
ATOM     31  C   UNL     1       4.677   3.753  17.225  0.00  0.00    +0.000 C 
ENDBRANCH  21  25
ENDBRANCH   1  22
TORSDOF 5
ENDMDL
MODEL 8
REMARK VINA RESULT:      -8.3      3.874      9.113
REMARK  Name = 
REMARK  8 active torsions:
REMARK  status: ('A' for Active; 'I' for Inactive)
REMARK    1  A    between atoms: C_1  and  C_2
REMARK    2  A    between atoms: C_3  and  C_4
REMARK    3  A    between atoms: C_5  and  C_6
REMARK    4  A    between atoms: N_8  and  C_9
REMARK    5  A    between atoms: C_15  and  C_16
REMARK    6  A    between atoms: C_20  and  N_21
REMARK    7  A    between atoms: C_26  and  C_27
REMARK    8  A    between atoms: C_26  and  C_28
REMARK                            x       y       z     vdW  Elec       q    Type
REMARK                         _______ _______ _______ _____ _____    ______ ____
ROOT
ATOM      1  C   UNL     1       1.385   9.408  18.419  0.00  0.00    +0.000 C 
ATOM      2  N   UNL     1       0.157   9.280  18.026  0.00  0.00    +0.000 NA
ATOM      3  N   UNL     1      -0.419  10.517  18.042  0.00  0.00    +0.000 N 
ATOM      4  C   UNL     1       0.486  11.568  18.517  0.00  0.00    +0.000 C 
ATOM      5  C   UNL     1       1.801  10.810  18.765  0.00  0.00    +0.000 C 
ENDROOT
BRANCH   3   6
ATOM      6  C   UNL     1      -1.716  10.673  17.549  0.00  0.00    +0.000 A 
ATOM      7  C   UNL     1      -2.098  10.038  16.354  0.00  0.00    +0.000 A 
ATOM      8  C   UNL     1      -3.387  10.153  15.825  0.00  0.00    +0.000 A 
ATOM      9  C   UNL     1      -4.338  10.915  16.489  0.00  0.00    +0.000 A 
ATOM     10  C   UNL     1      -3.996  11.553  17.677  0.00  0.00    +0.000 A 
ATOM     11  C   UNL     1      -2.700  11.434  18.200  0.00  0.00    +0.000 A 
ENDBRANCH   3   6
BRANCH   4  12
ATOM     12  C   UNL     1      -0.025  12.265  19.775  0.00  0.00    +0.000 A 
ATOM     13  C   UNL     1       0.049  13.663  19.915  0.00  0.00    +0.000 A 
ATOM     14  C   UNL     1      -0.343  14.295  21.098  0.00  0.00    +0.000 A 
ATOM     15  C   UNL     1      -0.836  13.545  22.161  0.00  0.00    +0.000 A 
ATOM     16  C   UNL     1      -0.943  12.154  22.029  0.00  0.00    +0.000 A 
ATOM     17  C   UNL     1      -0.548  11.513  20.841  0.00  0.00    +0.000 A 
BRANCH  16  18
ATOM     18  N   UNL     1      -1.456  11.361  23.155  0.00  0.00    +0.000 N 
ATOM     19  O   UNL     1      -2.556  11.672  23.629  0.00  0.00    +0.000 OA
ATOM     20  O   UNL     1      -0.752  10.425  23.562  0.00  0.00    +0.000 OA
ENDBRANCH  16  18
ENDBRANCH   4  12
BRANCH   1  22
ATOM     21  C   UNL     1       2.062   7.058  17.868  0.00  0.00    +0.000 C 
ATOM     22  C   UNL     1       2.286   8.236  18.470  0.00  0.00    +0.000 C 
BRANCH  21  25
ATOM     23  C   UNL     1       4.753   6.987  16.518  0.00  0.00    +0.000 C 
ATOM     24  C   UNL     1       4.159   5.863  17.336  0.00  0.00    +0.000 C 
ATOM     25  C   UNL     1       2.965   5.906  17.984  0.00  0.00    +0.000 C 
ATOM     26  C   UNL     1       2.498   4.761  18.916  0.00  0.00    +0.000 C 
ATOM     27  C   UNL     1       1.990   5.288  20.278  0.00  0.00    +0.000 C 
ATOM     28  C   UNL     1       1.353   3.968  18.247  0.00  0.00    +0.000 C 
ATOM     29  C   UNL     1       3.664   3.785  19.240  0.00  0.00    +0.000 C 
ATOM     30  C   UNL     1       4.465   3.414  18.003  0.00  0.00    +0.000 C 
ATOM     31  C   UNL     1       5.082   4.661  17.391  0.00  0.00    +0.000 C 
ENDBRANCH  21  25
ENDBRANCH   1  22
TORSDOF 5
ENDMDL
MODEL 9
REMARK VINA RESULT:      -8.3      4.115      9.328
REMARK  Name = 
REMARK  8 active torsions:
REMARK  status: ('A' for Active; 'I' for Inactive)
REMARK    1  A    between atoms: C_1  and  C_2
REMARK    2  A    between atoms: C_3  and  C_4
REMARK    3  A    between atoms: C_5  and  C_6
REMARK    4  A    between atoms: N_8  and  C_9
REMARK    5  A    between atoms: C_15  and  C_16
REMARK    6  A    between atoms: C_20  and  N_21
REMARK    7  A    between atoms: C_26  and  C_27
REMARK    8  A    between atoms: C_26  and  C_28
REMARK                            x       y       z     vdW  Elec       q    Type
REMARK                         _______ _______ _______ _____ _____    ______ ____
ROOT
ATOM      1  C   UNL     1       1.667   9.144  18.473  0.00  0.00    +0.000 C 
ATOM      2  N   UNL     1       1.090   9.258  19.627  0.00  0.00    +0.000 NA
ATOM      3  N   UNL     1       0.623  10.535  19.739  0.00  0.00    +0.000 N 
ATOM      4  C   UNL     1       0.939  11.368  18.574  0.00  0.00    +0.000 C 
ATOM      5  C   UNL     1       1.660  10.389  17.631  0.00  0.00    +0.000 C 
ENDROOT
BRANCH   3   6
ATOM      6  C   UNL     1      -0.145  10.888  20.849  0.00  0.00    +0.000 A 
ATOM      7  C   UNL     1      -1.124  11.891  20.741  0.00  0.00    +0.000 A 
ATOM      8  C   UNL     1      -1.927  12.272  21.819  0.00  0.00    +0.000 A 
ATOM      9  C   UNL     1      -1.769  11.649  23.050  0.00  0.00    +0.000 A 
ATOM     10  C   UNL     1      -0.814  10.647  23.192  0.00  0.00    +0.000 A 
ATOM     11  C   UNL     1      -0.011  10.273  22.104  0.00  0.00    +0.000 A 
ENDBRANCH   3   6
BRANCH   4  12
ATOM     12  C   UNL     1       1.805  12.574  18.926  0.00  0.00    +0.000 A 
ATOM     13  C   UNL     1       2.299  13.434  17.927  0.00  0.00    +0.000 A 
ATOM     14  C   UNL     1       3.158  14.491  18.240  0.00  0.00    +0.000 A 
ATOM     15  C   UNL     1       3.527  14.724  19.561  0.00  0.00    +0.000 A 
ATOM     16  C   UNL     1       3.022  13.895  20.572  0.00  0.00    +0.000 A 
ATOM     17  C   UNL     1       2.159  12.829  20.262  0.00  0.00    +0.000 A 
BRANCH  16  18
ATOM     18  N   UNL     1       3.419  14.137  21.966  0.00  0.00    +0.000 N 
ATOM     19  O   UNL     1       4.433  13.567  22.387  0.00  0.00    +0.000 OA
ATOM     20  O   UNL     1       2.710  14.902  22.638  0.00  0.00    +0.000 OA
ENDBRANCH  16  18
ENDBRANCH   4  12
BRANCH   1  22
ATOM     21  C   UNL     1       2.872   6.977  18.840  0.00  0.00    +0.000 C 
ATOM     22  C   UNL     1       2.243   7.851  18.041  0.00  0.00    +0.000 C 
BRANCH  21  25
ATOM     23  C   UNL     1       5.461   6.922  17.302  0.00  0.00    +0.000 C 
ATOM     24  C   UNL     1       4.614   5.712  17.627  0.00  0.00    +0.000 C 
ATOM     25  C   UNL     1       3.469   5.726  18.358  0.00  0.00    +0.000 C 
ATOM     26  C   UNL     1       2.741   4.420  18.762  0.00  0.00    +0.000 C 
ATOM     27  C   UNL     1       2.381   4.394  20.266  0.00  0.00    +0.000 C 
ATOM     28  C   UNL     1       1.434   4.269  17.951  0.00  0.00    +0.000 C 
ATOM     29  C   UNL     1       3.635   3.173  18.512  0.00  0.00    +0.000 C 
ATOM     30  C   UNL     1       4.317   3.216  17.155  0.00  0.00    +0.000 C 
ATOM     31  C   UNL     1       5.216   4.439  17.066  0.00  0.00    +0.000 C 
ENDBRANCH  21  25
ENDBRANCH   1  22
TORSDOF 5
ENDMDL
