MODEL 1
REMARK VINA RESULT:      -7.3      0.000      0.000
REMARK  Name = 
REMARK  7 active torsions:
REMARK  status: ('A' for Active; 'I' for Inactive)
REMARK    1  A    between atoms: C_1  and  C_2
REMARK    2  A    between atoms: C_7  and  O_8
REMARK    3  A    between atoms: O_8  and  C_9
REMARK    4  A    between atoms: C_9  and  C_10
REMARK    5  A    between atoms: C_18  and  C_19
REMARK    6  A    between atoms: C_19  and  C_20
REMARK    7  A    between atoms: C_20  and  N_21
REMARK                            x       y       z     vdW  Elec       q    Type
REMARK                         _______ _______ _______ _____ _____    ______ ____
ROOT
ATOM      1  C   UNL     1       0.848   3.089  20.393  0.00  0.00    +0.000 C 
ATOM      2  C   UNL     1       1.778   3.849  19.523  0.00  0.00    +0.000 A 
ATOM      3  N   UNL     1       1.878   5.219  19.606  0.00  0.00    +0.000 N 
ATOM      4  C   UNL     1       2.793   5.696  18.700  0.00  0.00    +0.000 A 
ATOM      5  C   UNL     1       3.208   7.003  18.421  0.00  0.00    +0.000 A 
ATOM      6  C   UNL     1       4.142   7.179  17.389  0.00  0.00    +0.000 A 
ATOM      7  C   UNL     1       4.640   6.093  16.674  0.00  0.00    +0.000 A 
ATOM      8  C   UNL     1       4.269   4.793  17.026  0.00  0.00    +0.000 A 
ATOM      9  C   UNL     1       3.304   4.589  18.029  0.00  0.00    +0.000 A 
ATOM     10  C   UNL     1       2.666   3.421  18.548  0.00  0.00    +0.000 A 
ATOM     11  H   UNL     1       1.350   5.803  20.238  0.00  0.00    +0.000 HD
ENDROOT
BRANCH   7  12
ATOM     12  O   UNL     1       5.478   6.390  15.627  0.00  0.00    +0.000 OA
BRANCH  12  13
ATOM     13  C   UNL     1       6.604   5.511  15.506  0.00  0.00    +0.000 C 
BRANCH  13  14
ATOM     14  C   UNL     1       6.634   4.848  14.151  0.00  0.00    +0.000 A 
ATOM     15  C   UNL     1       7.665   5.092  13.235  0.00  0.00    +0.000 A 
ATOM     16  C   UNL     1       7.667   4.459  11.993  0.00  0.00    +0.000 A 
ATOM     17  C   UNL     1       6.651   3.565  11.659  0.00  0.00    +0.000 A 
ATOM     18  C   UNL     1       5.634   3.294  12.573  0.00  0.00    +0.000 A 
ATOM     19  C   UNL     1       5.630   3.927  13.815  0.00  0.00    +0.000 A 
ENDBRANCH  13  14
ENDBRANCH  12  13
ENDBRANCH   7  12
BRANCH  10  20
ATOM     20  C   UNL     1       2.949   2.014  18.099  0.00  0.00    +0.000 C 
BRANCH  20  21
ATOM     21  C   UNL     1       3.801   1.188  19.075  0.00  0.00    +0.000 C 
BRANCH  21  22
ATOM     22  N   UNL     1       4.879   1.945  19.720  0.00  0.00    +0.000 NA
ATOM     23  H   UNL     1       5.543   2.236  18.999  0.00  0.00    +0.000 HD
ATOM     24  H   UNL     1       5.399   1.323  20.339  0.00  0.00    +0.000 HD
ENDBRANCH  21  22
ENDBRANCH  20  21
ENDBRANCH  10  20
TORSDOF 6
ENDMDL
MODEL 2
REMARK VINA RESULT:      -7.2      2.752      6.794
REMARK  Name = 
REMARK  7 active torsions:
REMARK  status: ('A' for Active; 'I' for Inactive)
REMARK    1  A    between atoms: C_1  and  C_2
REMARK    2  A    between atoms: C_7  and  O_8
REMARK    3  A    between atoms: O_8  and  C_9
REMARK    4  A    between atoms: C_9  and  C_10
REMARK    5  A    between atoms: C_18  and  C_19
REMARK    6  A    between atoms: C_19  and  C_20
REMARK    7  A    between atoms: C_20  and  N_21
REMARK                            x       y       z     vdW  Elec       q    Type
REMARK                         _______ _______ _______ _____ _____    ______ ____
ROOT
ATOM      1  C   UNL     1       8.067   5.412  12.795  0.00  0.00    +0.000 C 
ATOM      2  C   UNL     1       7.278   5.075  14.006  0.00  0.00    +0.000 A 
ATOM      3  N   UNL     1       7.679   5.484  15.258  0.00  0.00    +0.000 N 
ATOM      4  C   UNL     1       6.799   5.047  16.216  0.00  0.00    +0.000 A 
ATOM      5  C   UNL     1       6.806   5.210  17.606  0.00  0.00    +0.000 A 
ATOM      6  C   UNL     1       5.775   4.597  18.335  0.00  0.00    +0.000 A 
ATOM      7  C   UNL     1       4.780   3.860  17.697  0.00  0.00    +0.000 A 
ATOM      8  C   UNL     1       4.753   3.781  16.303  0.00  0.00    +0.000 A 
ATOM      9  C   UNL     1       5.795   4.350  15.550  0.00  0.00    +0.000 A 
ATOM     10  C   UNL     1       6.094   4.368  14.153  0.00  0.00    +0.000 A 
ATOM     11  H   UNL     1       8.509   6.024  15.454  0.00  0.00    +0.000 HD
ENDROOT
BRANCH   7  12
ATOM     12  O   UNL     1       3.876   3.230  18.516  0.00  0.00    +0.000 OA
BRANCH  12  13
ATOM     13  C   UNL     1       2.522   3.670  18.346  0.00  0.00    +0.000 C 
BRANCH  13  14
ATOM     14  C   UNL     1       2.333   5.067  18.883  0.00  0.00    +0.000 A 
ATOM     15  C   UNL     1       2.510   6.197  18.075  0.00  0.00    +0.000 A 
ATOM     16  C   UNL     1       2.322   7.475  18.599  0.00  0.00    +0.000 A 
ATOM     17  C   UNL     1       1.940   7.638  19.930  0.00  0.00    +0.000 A 
ATOM     18  C   UNL     1       1.735   6.520  20.737  0.00  0.00    +0.000 A 
ATOM     19  C   UNL     1       1.924   5.242  20.214  0.00  0.00    +0.000 A 
ENDBRANCH  13  14
ENDBRANCH  12  13
ENDBRANCH   7  12
BRANCH  10  20
ATOM     20  C   UNL     1       5.247   3.736  13.083  0.00  0.00    +0.000 C 
BRANCH  20  21
ATOM     21  C   UNL     1       6.038   3.153  11.901  0.00  0.00    +0.000 C 
BRANCH  21  22
ATOM     22  N   UNL     1       5.848   1.712  11.703  0.00  0.00    +0.000 NA
ATOM     23  H   UNL     1       5.039   1.416  12.254  0.00  0.00    +0.000 HD
ATOM     24  H   UNL     1       6.647   1.214  12.095  0.00  0.00    +0.000 HD
ENDBRANCH  21  22
ENDBRANCH  20  21
ENDBRANCH  10  20
TORSDOF 6
ENDMDL
MODEL 3
REMARK VINA RESULT:      -7.2      1.034      1.090
REMARK  Name = 
REMARK  7 active torsions:
REMARK  status: ('A' for Active; 'I' for Inactive)
REMARK    1  A    between atoms: C_1  and  C_2
REMARK    2  A    between atoms: C_7  and  O_8
REMARK    3  A    between atoms: O_8  and  C_9
REMARK    4  A    between atoms: C_9  and  C_10
REMARK    5  A    between atoms: C_18  and  C_19
REMARK    6  A    between atoms: C_19  and  C_20
REMARK    7  A    between atoms: C_20  and  N_21
REMARK                            x       y       z     vdW  Elec       q    Type
REMARK                         _______ _______ _______ _____ _____    ______ ____
ROOT
ATOM      1  C   UNL     1       1.768   3.131  21.703  0.00  0.00    +0.000 C 
ATOM      2  C   UNL     1       2.433   3.909  20.629  0.00  0.00    +0.000 A 
ATOM      3  N   UNL     1       2.061   5.204  20.349  0.00  0.00    +0.000 N 
ATOM      4  C   UNL     1       2.809   5.712  19.315  0.00  0.00    +0.000 A 
ATOM      5  C   UNL     1       2.774   6.964  18.690  0.00  0.00    +0.000 A 
ATOM      6  C   UNL     1       3.647   7.173  17.612  0.00  0.00    +0.000 A 
ATOM      7  C   UNL     1       4.519   6.175  17.185  0.00  0.00    +0.000 A 
ATOM      8  C   UNL     1       4.589   4.964  17.878  0.00  0.00    +0.000 A 
ATOM      9  C   UNL     1       3.697   4.711  18.935  0.00  0.00    +0.000 A 
ATOM     10  C   UNL     1       3.464   3.571  19.765  0.00  0.00    +0.000 A 
ATOM     11  H   UNL     1       1.334   5.717  20.827  0.00  0.00    +0.000 HD
ENDROOT
BRANCH   7  12
ATOM     12  O   UNL     1       5.262   6.458  16.066  0.00  0.00    +0.000 OA
BRANCH  12  13
ATOM     13  C   UNL     1       6.440   5.653  15.922  0.00  0.00    +0.000 C 
BRANCH  13  14
ATOM     14  C   UNL     1       6.476   4.978  14.573  0.00  0.00    +0.000 A 
ATOM     15  C   UNL     1       7.535   5.179  13.678  0.00  0.00    +0.000 A 
ATOM     16  C   UNL     1       7.542   4.535  12.441  0.00  0.00    +0.000 A 
ATOM     17  C   UNL     1       6.503   3.673  12.092  0.00  0.00    +0.000 A 
ATOM     18  C   UNL     1       5.458   3.445  12.986  0.00  0.00    +0.000 A 
ATOM     19  C   UNL     1       5.449   4.089  14.223  0.00  0.00    +0.000 A 
ENDBRANCH  13  14
ENDBRANCH  12  13
ENDBRANCH   7  12
BRANCH  10  20
ATOM     20  C   UNL     1       4.228   2.278  19.687  0.00  0.00    +0.000 C 
BRANCH  20  21
ATOM     21  C   UNL     1       3.603   1.220  18.764  0.00  0.00    +0.000 C 
BRANCH  21  22
ATOM     22  N   UNL     1       2.630   1.756  17.807  0.00  0.00    +0.000 NA
ATOM     23  H   UNL     1       1.704   1.731  18.242  0.00  0.00    +0.000 HD
ATOM     24  H   UNL     1       2.574   1.133  17.003  0.00  0.00    +0.000 HD
ENDBRANCH  21  22
ENDBRANCH  20  21
ENDBRANCH  10  20
TORSDOF 6
ENDMDL
MODEL 4
REMARK VINA RESULT:      -7.1      2.616      6.568
REMARK  Name = 
REMARK  7 active torsions:
REMARK  status: ('A' for Active; 'I' for Inactive)
REMARK    1  A    between atoms: C_1  and  C_2
REMARK    2  A    between atoms: C_7  and  O_8
REMARK    3  A    between atoms: O_8  and  C_9
REMARK    4  A    between atoms: C_9  and  C_10
REMARK    5  A    between atoms: C_18  and  C_19
REMARK    6  A    between atoms: C_19  and  C_20
REMARK    7  A    between atoms: C_20  and  N_21
REMARK                            x       y       z     vdW  Elec       q    Type
REMARK                         _______ _______ _______ _____ _____    ______ ____
ROOT
ATOM      1  C   UNL     1       7.752   7.875  17.445  0.00  0.00    +0.000 C 
ATOM      2  C   UNL     1       6.536   7.028  17.354  0.00  0.00    +0.000 A 
ATOM      3  N   UNL     1       5.341   7.431  17.905  0.00  0.00    +0.000 N 
ATOM      4  C   UNL     1       4.369   6.482  17.703  0.00  0.00    +0.000 A 
ATOM      5  C   UNL     1       3.025   6.453  18.092  0.00  0.00    +0.000 A 
ATOM      6  C   UNL     1       2.284   5.305  17.772  0.00  0.00    +0.000 A 
ATOM      7  C   UNL     1       2.863   4.239  17.088  0.00  0.00    +0.000 A 
ATOM      8  C   UNL     1       4.184   4.329  16.642  0.00  0.00    +0.000 A 
ATOM      9  C   UNL     1       4.962   5.449  16.984  0.00  0.00    +0.000 A 
ATOM     10  C   UNL     1       6.332   5.792  16.760  0.00  0.00    +0.000 A 
ATOM     11  H   UNL     1       5.192   8.298  18.400  0.00  0.00    +0.000 HD
ENDROOT
BRANCH   7  12
ATOM     12  O   UNL     1       2.070   3.133  16.910  0.00  0.00    +0.000 OA
BRANCH  12  13
ATOM     13  C   UNL     1       2.440   2.007  17.717  0.00  0.00    +0.000 C 
BRANCH  13  14
ATOM     14  C   UNL     1       2.311   2.325  19.186  0.00  0.00    +0.000 A 
ATOM     15  C   UNL     1       1.068   2.589  19.775  0.00  0.00    +0.000 A 
ATOM     16  C   UNL     1       0.980   2.874  21.137  0.00  0.00    +0.000 A 
ATOM     17  C   UNL     1       2.129   2.881  21.927  0.00  0.00    +0.000 A 
ATOM     18  C   UNL     1       3.367   2.594  21.358  0.00  0.00    +0.000 A 
ATOM     19  C   UNL     1       3.457   2.311  19.995  0.00  0.00    +0.000 A 
ENDBRANCH  13  14
ENDBRANCH  12  13
ENDBRANCH   7  12
BRANCH  10  20
ATOM     20  C   UNL     1       7.319   4.945  16.006  0.00  0.00    +0.000 C 
BRANCH  20  21
ATOM     21  C   UNL     1       7.067   4.860  14.492  0.00  0.00    +0.000 C 
BRANCH  21  22
ATOM     22  N   UNL     1       8.044   5.589  13.678  0.00  0.00    +0.000 NA
ATOM     23  H   UNL     1       7.555   6.338  13.181  0.00  0.00    +0.000 HD
ATOM     24  H   UNL     1       8.405   4.967  12.955  0.00  0.00    +0.000 HD
ENDBRANCH  21  22
ENDBRANCH  20  21
ENDBRANCH  10  20
TORSDOF 6
ENDMDL
MODEL 5
REMARK VINA RESULT:      -7.0      0.765      1.303
REMARK  Name = 
REMARK  7 active torsions:
REMARK  status: ('A' for Active; 'I' for Inactive)
REMARK    1  A    between atoms: C_1  and  C_2
REMARK    2  A    between atoms: C_7  and  O_8
REMARK    3  A    between atoms: O_8  and  C_9
REMARK    4  A    between atoms: C_9  and  C_10
REMARK    5  A    between atoms: C_18  and  C_19
REMARK    6  A    between atoms: C_19  and  C_20
REMARK    7  A    between atoms: C_20  and  N_21
REMARK                            x       y       z     vdW  Elec       q    Type
REMARK                         _______ _______ _______ _____ _____    ______ ____
ROOT
ATOM      1  C   UNL     1       0.731   3.164  19.948  0.00  0.00    +0.000 C 
ATOM      2  C   UNL     1       1.802   3.931  19.265  0.00  0.00    +0.000 A 
ATOM      3  N   UNL     1       1.636   5.257  18.939  0.00  0.00    +0.000 N 
ATOM      4  C   UNL     1       2.753   5.746  18.308  0.00  0.00    +0.000 A 
ATOM      5  C   UNL     1       3.029   7.018  17.793  0.00  0.00    +0.000 A 
ATOM      6  C   UNL     1       4.264   7.203  17.152  0.00  0.00    +0.000 A 
ATOM      7  C   UNL     1       5.182   6.161  17.040  0.00  0.00    +0.000 A 
ATOM      8  C   UNL     1       4.913   4.925  17.634  0.00  0.00    +0.000 A 
ATOM      9  C   UNL     1       3.667   4.699  18.245  0.00  0.00    +0.000 A 
ATOM     10  C   UNL     1       3.070   3.551  18.851  0.00  0.00    +0.000 A 
ATOM     11  H   UNL     1       0.807   5.802  19.126  0.00  0.00    +0.000 HD
ENDROOT
BRANCH   7  12
ATOM     12  O   UNL     1       6.316   6.430  16.316  0.00  0.00    +0.000 OA
BRANCH  12  13
ATOM     13  C   UNL     1       7.134   5.281  16.054  0.00  0.00    +0.000 C 
BRANCH  13  14
ATOM     14  C   UNL     1       6.965   4.805  14.633  0.00  0.00    +0.000 A 
ATOM     15  C   UNL     1       5.988   3.864  14.283  0.00  0.00    +0.000 A 
ATOM     16  C   UNL     1       5.852   3.450  12.958  0.00  0.00    +0.000 A 
ATOM     17  C   UNL     1       6.678   3.981  11.969  0.00  0.00    +0.000 A 
ATOM     18  C   UNL     1       7.636   4.937  12.301  0.00  0.00    +0.000 A 
ATOM     19  C   UNL     1       7.774   5.352  13.625  0.00  0.00    +0.000 A 
ENDBRANCH  13  14
ENDBRANCH  12  13
ENDBRANCH   7  12
BRANCH  10  20
ATOM     20  C   UNL     1       3.736   2.211  19.000  0.00  0.00    +0.000 C 
BRANCH  20  21
ATOM     21  C   UNL     1       4.499   2.017  20.320  0.00  0.00    +0.000 C 
BRANCH  21  22
ATOM     22  N   UNL     1       5.412   0.870  20.324  0.00  0.00    +0.000 NA
ATOM     23  H   UNL     1       6.187   1.078  20.957  0.00  0.00    +0.000 HD
ATOM     24  H   UNL     1       5.829   0.772  19.399  0.00  0.00    +0.000 HD
ENDBRANCH  21  22
ENDBRANCH  20  21
ENDBRANCH  10  20
TORSDOF 6
ENDMDL
MODEL 6
REMARK VINA RESULT:      -6.9      2.566      4.993
REMARK  Name = 
REMARK  7 active torsions:
REMARK  status: ('A' for Active; 'I' for Inactive)
REMARK    1  A    between atoms: C_1  and  C_2
REMARK    2  A    between atoms: C_7  and  O_8
REMARK    3  A    between atoms: O_8  and  C_9
REMARK    4  A    between atoms: C_9  and  C_10
REMARK    5  A    between atoms: C_18  and  C_19
REMARK    6  A    between atoms: C_19  and  C_20
REMARK    7  A    between atoms: C_20  and  N_21
REMARK                            x       y       z     vdW  Elec       q    Type
REMARK                         _______ _______ _______ _____ _____    ______ ____
ROOT
ATOM      1  C   UNL     1       1.258   8.369  21.000  0.00  0.00    +0.000 C 
ATOM      2  C   UNL     1       1.925   7.311  20.202  0.00  0.00    +0.000 A 
ATOM      3  N   UNL     1       2.097   6.040  20.700  0.00  0.00    +0.000 N 
ATOM      4  C   UNL     1       2.744   5.244  19.788  0.00  0.00    +0.000 A 
ATOM      5  C   UNL     1       3.138   3.903  19.861  0.00  0.00    +0.000 A 
ATOM      6  C   UNL     1       3.836   3.372  18.765  0.00  0.00    +0.000 A 
ATOM      7  C   UNL     1       4.118   4.150  17.645  0.00  0.00    +0.000 A 
ATOM      8  C   UNL     1       3.643   5.461  17.565  0.00  0.00    +0.000 A 
ATOM      9  C   UNL     1       2.978   6.031  18.665  0.00  0.00    +0.000 A 
ATOM     10  C   UNL     1       2.460   7.338  18.922  0.00  0.00    +0.000 A 
ATOM     11  H   UNL     1       1.798   5.728  21.612  0.00  0.00    +0.000 HD
ENDROOT
BRANCH   7  12
ATOM     12  O   UNL     1       4.884   3.554  16.673  0.00  0.00    +0.000 OA
BRANCH  12  13
ATOM     13  C   UNL     1       5.757   4.455  15.978  0.00  0.00    +0.000 C 
BRANCH  13  14
ATOM     14  C   UNL     1       6.582   5.267  16.944  0.00  0.00    +0.000 A 
ATOM     15  C   UNL     1       7.258   4.672  18.017  0.00  0.00    +0.000 A 
ATOM     16  C   UNL     1       8.017   5.450  18.890  0.00  0.00    +0.000 A 
ATOM     17  C   UNL     1       8.124   6.826  18.692  0.00  0.00    +0.000 A 
ATOM     18  C   UNL     1       7.477   7.426  17.613  0.00  0.00    +0.000 A 
ATOM     19  C   UNL     1       6.716   6.649  16.739  0.00  0.00    +0.000 A 
ENDBRANCH  13  14
ENDBRANCH  12  13
ENDBRANCH   7  12
BRANCH  10  20
ATOM     20  C   UNL     1       2.499   8.487  17.953  0.00  0.00    +0.000 C 
BRANCH  20  21
ATOM     21  C   UNL     1       1.233   9.358  17.939  0.00  0.00    +0.000 C 
BRANCH  21  22
ATOM     22  N   UNL     1       1.493  10.795  17.809  0.00  0.00    +0.000 NA
ATOM     23  H   UNL     1       0.611  11.263  17.589  0.00  0.00    +0.000 HD
ATOM     24  H   UNL     1       2.098  10.952  17.003  0.00  0.00    +0.000 HD
ENDBRANCH  21  22
ENDBRANCH  20  21
ENDBRANCH  10  20
TORSDOF 6
ENDMDL
MODEL 7
REMARK VINA RESULT:      -6.9      3.169      5.427
REMARK  Name = 
REMARK  7 active torsions:
REMARK  status: ('A' for Active; 'I' for Inactive)
REMARK    1  A    between atoms: C_1  and  C_2
REMARK    2  A    between atoms: C_7  and  O_8
REMARK    3  A    between atoms: O_8  and  C_9
REMARK    4  A    between atoms: C_9  and  C_10
REMARK    5  A    between atoms: C_18  and  C_19
REMARK    6  A    between atoms: C_19  and  C_20
REMARK    7  A    between atoms: C_20  and  N_21
REMARK                            x       y       z     vdW  Elec       q    Type
REMARK                         _______ _______ _______ _____ _____    ______ ____
ROOT
ATOM      1  C   UNL     1       0.831   9.413  21.509  0.00  0.00    +0.000 C 
ATOM      2  C   UNL     1       1.433   8.372  20.640  0.00  0.00    +0.000 A 
ATOM      3  N   UNL     1       1.721   7.115  21.123  0.00  0.00    +0.000 N 
ATOM      4  C   UNL     1       2.277   6.333  20.141  0.00  0.00    +0.000 A 
ATOM      5  C   UNL     1       2.733   5.011  20.174  0.00  0.00    +0.000 A 
ATOM      6  C   UNL     1       3.303   4.493  19.001  0.00  0.00    +0.000 A 
ATOM      7  C   UNL     1       3.404   5.265  17.846  0.00  0.00    +0.000 A 
ATOM      8  C   UNL     1       2.868   6.555  17.818  0.00  0.00    +0.000 A 
ATOM      9  C   UNL     1       2.329   7.114  18.990  0.00  0.00    +0.000 A 
ATOM     10  C   UNL     1       1.794   8.402  19.302  0.00  0.00    +0.000 A 
ATOM     11  H   UNL     1       1.557   6.805  22.069  0.00  0.00    +0.000 HD
ENDROOT
BRANCH   7  12
ATOM     12  O   UNL     1       4.060   4.687  16.788  0.00  0.00    +0.000 OA
BRANCH  12  13
ATOM     13  C   UNL     1       5.334   4.121  17.123  0.00  0.00    +0.000 C 
BRANCH  13  14
ATOM     14  C   UNL     1       6.303   5.188  17.568  0.00  0.00    +0.000 A 
ATOM     15  C   UNL     1       6.511   6.353  16.819  0.00  0.00    +0.000 A 
ATOM     16  C   UNL     1       7.409   7.323  17.260  0.00  0.00    +0.000 A 
ATOM     17  C   UNL     1       8.096   7.149  18.461  0.00  0.00    +0.000 A 
ATOM     18  C   UNL     1       7.879   6.007  19.228  0.00  0.00    +0.000 A 
ATOM     19  C   UNL     1       6.981   5.034  18.787  0.00  0.00    +0.000 A 
ENDBRANCH  13  14
ENDBRANCH  12  13
ENDBRANCH   7  12
BRANCH  10  20
ATOM     20  C   UNL     1       1.658   9.537  18.325  0.00  0.00    +0.000 C 
BRANCH  20  21
ATOM     21  C   UNL     1       0.209   9.915  17.979  0.00  0.00    +0.000 C 
BRANCH  21  22
ATOM     22  N   UNL     1      -0.131  11.313  18.260  0.00  0.00    +0.000 NA
ATOM     23  H   UNL     1       0.733  11.818  18.472  0.00  0.00    +0.000 HD
ATOM     24  H   UNL     1      -0.691  11.355  19.111  0.00  0.00    +0.000 HD
ENDBRANCH  21  22
ENDBRANCH  20  21
ENDBRANCH  10  20
TORSDOF 6
ENDMDL
MODEL 8
REMARK VINA RESULT:      -6.9      1.838      3.121
REMARK  Name = 
REMARK  7 active torsions:
REMARK  status: ('A' for Active; 'I' for Inactive)
REMARK    1  A    between atoms: C_1  and  C_2
REMARK    2  A    between atoms: C_7  and  O_8
REMARK    3  A    between atoms: O_8  and  C_9
REMARK    4  A    between atoms: C_9  and  C_10
REMARK    5  A    between atoms: C_18  and  C_19
REMARK    6  A    between atoms: C_19  and  C_20
REMARK    7  A    between atoms: C_20  and  N_21
REMARK                            x       y       z     vdW  Elec       q    Type
REMARK                         _______ _______ _______ _____ _____    ______ ____
ROOT
ATOM      1  C   UNL     1       3.800   2.801  20.342  0.00  0.00    +0.000 C 
ATOM      2  C   UNL     1       4.445   3.318  19.109  0.00  0.00    +0.000 A 
ATOM      3  N   UNL     1       5.769   3.692  19.098  0.00  0.00    +0.000 N 
ATOM      4  C   UNL     1       6.135   4.144  17.854  0.00  0.00    +0.000 A 
ATOM      5  C   UNL     1       7.359   4.632  17.382  0.00  0.00    +0.000 A 
ATOM      6  C   UNL     1       7.412   5.068  16.049  0.00  0.00    +0.000 A 
ATOM      7  C   UNL     1       6.290   5.009  15.226  0.00  0.00    +0.000 A 
ATOM      8  C   UNL     1       5.104   4.443  15.699  0.00  0.00    +0.000 A 
ATOM      9  C   UNL     1       5.010   4.037  17.042  0.00  0.00    +0.000 A 
ATOM     10  C   UNL     1       3.940   3.513  17.832  0.00  0.00    +0.000 A 
ATOM     11  H   UNL     1       6.391   3.652  19.892  0.00  0.00    +0.000 HD
ENDROOT
BRANCH   7  12
ATOM     12  O   UNL     1       6.432   5.546  13.970  0.00  0.00    +0.000 OA
BRANCH  12  13
ATOM     13  C   UNL     1       7.387   4.866  13.145  0.00  0.00    +0.000 C 
BRANCH  13  14
ATOM     14  C   UNL     1       6.745   3.724  12.397  0.00  0.00    +0.000 A 
ATOM     15  C   UNL     1       5.356   3.634  12.242  0.00  0.00    +0.000 A 
ATOM     16  C   UNL     1       4.793   2.570  11.540  0.00  0.00    +0.000 A 
ATOM     17  C   UNL     1       5.611   1.594  10.971  0.00  0.00    +0.000 A 
ATOM     18  C   UNL     1       6.996   1.687  11.096  0.00  0.00    +0.000 A 
ATOM     19  C   UNL     1       7.560   2.750  11.799  0.00  0.00    +0.000 A 
ENDBRANCH  13  14
ENDBRANCH  12  13
ENDBRANCH   7  12
BRANCH  10  20
ATOM     20  C   UNL     1       2.553   3.232  17.325  0.00  0.00    +0.000 C 
BRANCH  20  21
ATOM     21  C   UNL     1       1.478   4.209  17.826  0.00  0.00    +0.000 C 
BRANCH  21  22
ATOM     22  N   UNL     1       1.941   5.594  17.965  0.00  0.00    +0.000 NA
ATOM     23  H   UNL     1       2.844   5.583  18.445  0.00  0.00    +0.000 HD
ATOM     24  H   UNL     1       1.305   6.098  18.582  0.00  0.00    +0.000 HD
ENDBRANCH  21  22
ENDBRANCH  20  21
ENDBRANCH  10  20
TORSDOF 6
ENDMDL
MODEL 9
REMARK VINA RESULT:      -6.8      2.560      4.940
REMARK  Name = 
REMARK  7 active torsions:
REMARK  status: ('A' for Active; 'I' for Inactive)
REMARK    1  A    between atoms: C_1  and  C_2
REMARK    2  A    between atoms: C_7  and  O_8
REMARK    3  A    between atoms: O_8  and  C_9
REMARK    4  A    between atoms: C_9  and  C_10
REMARK    5  A    between atoms: C_18  and  C_19
REMARK    6  A    between atoms: C_19  and  C_20
REMARK    7  A    between atoms: C_20  and  N_21
REMARK                            x       y       z     vdW  Elec       q    Type
REMARK                         _______ _______ _______ _____ _____    ______ ____
ROOT
ATOM      1  C   UNL     1       1.098   8.270  21.207  0.00  0.00    +0.000 C 
ATOM      2  C   UNL     1       1.778   7.263  20.355  0.00  0.00    +0.000 A 
ATOM      3  N   UNL     1       1.919   5.957  20.766  0.00  0.00    +0.000 N 
ATOM      4  C   UNL     1       2.585   5.220  19.818  0.00  0.00    +0.000 A 
ATOM      5  C   UNL     1       2.962   3.872  19.807  0.00  0.00    +0.000 A 
ATOM      6  C   UNL     1       3.686   3.411  18.697  0.00  0.00    +0.000 A 
ATOM      7  C   UNL     1       4.012   4.263  17.644  0.00  0.00    +0.000 A 
ATOM      8  C   UNL     1       3.554   5.582  17.644  0.00  0.00    +0.000 A 
ATOM      9  C   UNL     1       2.862   6.082  18.762  0.00  0.00    +0.000 A 
ATOM     10  C   UNL     1       2.351   7.374  19.097  0.00  0.00    +0.000 A 
ATOM     11  H   UNL     1       1.590   5.585  21.644  0.00  0.00    +0.000 HD
ENDROOT
BRANCH   7  12
ATOM     12  O   UNL     1       4.799   3.728  16.655  0.00  0.00    +0.000 OA
BRANCH  12  13
ATOM     13  C   UNL     1       5.588   4.693  15.944  0.00  0.00    +0.000 C 
BRANCH  13  14
ATOM     14  C   UNL     1       6.484   5.460  16.883  0.00  0.00    +0.000 A 
ATOM     15  C   UNL     1       6.663   6.844  16.763  0.00  0.00    +0.000 A 
ATOM     16  C   UNL     1       7.494   7.527  17.651  0.00  0.00    +0.000 A 
ATOM     17  C   UNL     1       8.141   6.839  18.677  0.00  0.00    +0.000 A 
ATOM     18  C   UNL     1       7.949   5.466  18.822  0.00  0.00    +0.000 A 
ATOM     19  C   UNL     1       7.120   4.782  17.935  0.00  0.00    +0.000 A 
ENDBRANCH  13  14
ENDBRANCH  12  13
ENDBRANCH   7  12
BRANCH  10  20
ATOM     20  C   UNL     1       2.433   8.588  18.214  0.00  0.00    +0.000 C 
BRANCH  20  21
ATOM     21  C   UNL     1       1.075   9.119  17.727  0.00  0.00    +0.000 C 
BRANCH  21  22
ATOM     22  N   UNL     1       0.830  10.528  18.049  0.00  0.00    +0.000 NA
ATOM     23  H   UNL     1       1.157  10.702  19.002  0.00  0.00    +0.000 HD
ATOM     24  H   UNL     1      -0.175  10.696  18.067  0.00  0.00    +0.000 HD
ENDBRANCH  21  22
ENDBRANCH  20  21
ENDBRANCH  10  20
TORSDOF 6
ENDMDL
