MODEL 1
REMARK VINA RESULT:      -4.7      0.000      0.000
REMARK  Name = 
REMARK  5 active torsions:
REMARK  status: ('A' for Active; 'I' for Inactive)
REMARK    1  A    between atoms: N_4  and  C_5
REMARK    2  A    between atoms: C_5  and  C_6
REMARK    3  A    between atoms: C_6  and  C_7
REMARK    4  A    between atoms: C_7  and  S_8
REMARK    5  A    between atoms: S_8  and  C_9
REMARK                            x       y       z     vdW  Elec       q    Type
REMARK                         _______ _______ _______ _____ _____    ______ ____
ROOT
ATOM      1  C   UNL     1       2.147   3.897  18.761  0.00  0.00    +0.000 C 
ENDROOT
BRANCH   1   5
ATOM      2  N   UNL     1       3.350   1.293  18.410  0.00  0.00    +0.000 NA
ATOM      3  C   UNL     1       3.877   2.106  19.257  0.00  0.00    +0.000 C 
ATOM      4  N   UNL     1       5.023   1.706  19.996  0.00  0.00    +0.000 N 
ATOM      5  N   UNL     1       3.320   3.403  19.466  0.00  0.00    +0.000 N 
ATOM      6  H   UNL     1       3.737   0.352  18.247  0.00  0.00    +0.000 HD
ATOM      7  H   UNL     1       5.440   0.773  19.859  0.00  0.00    +0.000 HD
ATOM      8  H   UNL     1       5.454   2.346  20.678  0.00  0.00    +0.000 HD
ATOM      9  H   UNL     1       3.771   4.025  20.154  0.00  0.00    +0.000 HD
ENDBRANCH   1   5
BRANCH   1  10
ATOM     10  C   UNL     1       2.526   5.115  17.913  0.00  0.00    +0.000 C 
BRANCH  10  11
ATOM     11  C   UNL     1       3.776   5.830  18.441  0.00  0.00    +0.000 C 
BRANCH  11  12
ATOM     12  S   UNL     1       4.952   6.042  17.056  0.00  0.00    +0.000 S 
BRANCH  12  13
ATOM     13  C   UNL     1       5.807   4.472  17.281  0.00  0.00    +0.000 C 
ATOM     14  N   UNL     1       6.409   4.214  18.387  0.00  0.00    +0.000 NA
ATOM     15  N   UNL     1       5.765   3.494  16.259  0.00  0.00    +0.000 N 
ATOM     16  H   UNL     1       6.431   4.899  19.156  0.00  0.00    +0.000 HD
ATOM     17  H   UNL     1       5.266   3.684  15.378  0.00  0.00    +0.000 HD
ATOM     18  H   UNL     1       6.209   2.574  16.396  0.00  0.00    +0.000 HD
ENDBRANCH  12  13
ENDBRANCH  11  12
ENDBRANCH  10  11
ENDBRANCH   1  10
TORSDOF 5
ENDMDL
MODEL 2
REMARK VINA RESULT:      -4.7      0.962      1.315
REMARK  Name = 
REMARK  5 active torsions:
REMARK  status: ('A' for Active; 'I' for Inactive)
REMARK    1  A    between atoms: N_4  and  C_5
REMARK    2  A    between atoms: C_5  and  C_6
REMARK    3  A    between atoms: C_6  and  C_7
REMARK    4  A    between atoms: C_7  and  S_8
REMARK    5  A    between atoms: S_8  and  C_9
REMARK                            x       y       z     vdW  Elec       q    Type
REMARK                         _______ _______ _______ _____ _____    ______ ____
ROOT
ATOM      1  C   UNL     1       2.670   4.243  19.428  0.00  0.00    +0.000 C 
ENDROOT
BRANCH   1   5
ATOM      2  N   UNL     1       4.892   2.440  19.823  0.00  0.00    +0.000 NA
ATOM      3  C   UNL     1       3.919   2.062  19.069  0.00  0.00    +0.000 C 
ATOM      4  N   UNL     1       3.964   0.784  18.451  0.00  0.00    +0.000 N 
ATOM      5  N   UNL     1       2.799   2.918  18.843  0.00  0.00    +0.000 N 
ATOM      6  H   UNL     1       5.710   1.836  19.996  0.00  0.00    +0.000 HD
ATOM      7  H   UNL     1       4.764   0.152  18.602  0.00  0.00    +0.000 HD
ATOM      8  H   UNL     1       3.193   0.471  17.843  0.00  0.00    +0.000 HD
ATOM      9  H   UNL     1       2.041   2.580  18.233  0.00  0.00    +0.000 HD
ENDBRANCH   1   5
BRANCH   1  10
ATOM     10  C   UNL     1       2.947   5.309  18.364  0.00  0.00    +0.000 C 
BRANCH  10  11
ATOM     11  C   UNL     1       4.415   5.752  18.346  0.00  0.00    +0.000 C 
BRANCH  11  12
ATOM     12  S   UNL     1       5.064   5.545  16.649  0.00  0.00    +0.000 S 
BRANCH  12  13
ATOM     13  C   UNL     1       6.616   4.765  17.124  0.00  0.00    +0.000 C 
ATOM     14  N   UNL     1       6.750   4.245  18.291  0.00  0.00    +0.000 NA
ATOM     15  N   UNL     1       7.673   4.670  16.188  0.00  0.00    +0.000 N 
ATOM     16  H   UNL     1       5.987   4.277  18.982  0.00  0.00    +0.000 HD
ATOM     17  H   UNL     1       7.567   5.065  15.242  0.00  0.00    +0.000 HD
ATOM     18  H   UNL     1       8.548   4.183  16.432  0.00  0.00    +0.000 HD
ENDBRANCH  12  13
ENDBRANCH  11  12
ENDBRANCH  10  11
ENDBRANCH   1  10
TORSDOF 5
ENDMDL
MODEL 3
REMARK VINA RESULT:      -4.7      1.869      3.903
REMARK  Name = 
REMARK  5 active torsions:
REMARK  status: ('A' for Active; 'I' for Inactive)
REMARK    1  A    between atoms: N_4  and  C_5
REMARK    2  A    between atoms: C_5  and  C_6
REMARK    3  A    between atoms: C_6  and  C_7
REMARK    4  A    between atoms: C_7  and  S_8
REMARK    5  A    between atoms: S_8  and  C_9
REMARK                            x       y       z     vdW  Elec       q    Type
REMARK                         _______ _______ _______ _____ _____    ______ ____
ROOT
ATOM      1  C   UNL     1       4.671   6.040  17.104  0.00  0.00    +0.000 C 
ENDROOT
BRANCH   1   5
ATOM      2  N   UNL     1       7.445   6.111  16.300  0.00  0.00    +0.000 NA
ATOM      3  C   UNL     1       7.065   5.197  17.123  0.00  0.00    +0.000 C 
ATOM      4  N   UNL     1       8.008   4.251  17.608  0.00  0.00    +0.000 N 
ATOM      5  N   UNL     1       5.705   5.121  17.550  0.00  0.00    +0.000 N 
ATOM      6  H   UNL     1       8.422   6.180  15.979  0.00  0.00    +0.000 HD
ATOM      7  H   UNL     1       8.995   4.290  17.311  0.00  0.00    +0.000 HD
ATOM      8  H   UNL     1       7.717   3.514  18.266  0.00  0.00    +0.000 HD
ATOM      9  H   UNL     1       5.441   4.375  18.210  0.00  0.00    +0.000 HD
ENDBRANCH   1   5
BRANCH   1  10
ATOM     10  C   UNL     1       3.474   5.978  18.058  0.00  0.00    +0.000 C 
BRANCH  10  11
ATOM     11  C   UNL     1       3.805   5.249  19.366  0.00  0.00    +0.000 C 
BRANCH  11  12
ATOM     12  S   UNL     1       2.615   3.877  19.583  0.00  0.00    +0.000 S 
BRANCH  12  13
ATOM     13  C   UNL     1       3.746   2.557  19.110  0.00  0.00    +0.000 C 
ATOM     14  N   UNL     1       4.994   2.634  19.409  0.00  0.00    +0.000 NA
ATOM     15  N   UNL     1       3.249   1.403  18.458  0.00  0.00    +0.000 N 
ATOM     16  H   UNL     1       5.376   3.451  19.906  0.00  0.00    +0.000 HD
ATOM     17  H   UNL     1       2.247   1.324  18.235  0.00  0.00    +0.000 HD
ATOM     18  H   UNL     1       3.879   0.620  18.227  0.00  0.00    +0.000 HD
ENDBRANCH  12  13
ENDBRANCH  11  12
ENDBRANCH  10  11
ENDBRANCH   1  10
TORSDOF 5
ENDMDL
MODEL 4
REMARK VINA RESULT:      -4.7      1.686      1.827
REMARK  Name = 
REMARK  5 active torsions:
REMARK  status: ('A' for Active; 'I' for Inactive)
REMARK    1  A    between atoms: N_4  and  C_5
REMARK    2  A    between atoms: C_5  and  C_6
REMARK    3  A    between atoms: C_6  and  C_7
REMARK    4  A    between atoms: C_7  and  S_8
REMARK    5  A    between atoms: S_8  and  C_9
REMARK                            x       y       z     vdW  Elec       q    Type
REMARK                         _______ _______ _______ _____ _____    ______ ____
ROOT
ATOM      1  C   UNL     1       4.058   3.841  17.127  0.00  0.00    +0.000 C 
ENDROOT
BRANCH   1   5
ATOM      2  N   UNL     1       2.966   2.289  19.306  0.00  0.00    +0.000 NA
ATOM      3  C   UNL     1       4.241   2.457  19.248  0.00  0.00    +0.000 C 
ATOM      4  N   UNL     1       5.071   1.886  20.249  0.00  0.00    +0.000 N 
ATOM      5  N   UNL     1       4.828   3.216  18.191  0.00  0.00    +0.000 N 
ATOM      6  H   UNL     1       2.524   1.746  20.062  0.00  0.00    +0.000 HD
ATOM      7  H   UNL     1       4.666   1.334  21.020  0.00  0.00    +0.000 HD
ATOM      8  H   UNL     1       6.093   2.014  20.215  0.00  0.00    +0.000 HD
ATOM      9  H   UNL     1       5.852   3.328  18.180  0.00  0.00    +0.000 HD
ENDBRANCH   1   5
BRANCH   1  10
ATOM     10  C   UNL     1       4.316   5.351  17.119  0.00  0.00    +0.000 C 
BRANCH  10  11
ATOM     11  C   UNL     1       5.333   5.778  18.185  0.00  0.00    +0.000 C 
BRANCH  11  12
ATOM     12  S   UNL     1       6.694   6.678  17.360  0.00  0.00    +0.000 S 
BRANCH  12  13
ATOM     13  C   UNL     1       7.376   5.253  16.492  0.00  0.00    +0.000 C 
ATOM     14  N   UNL     1       7.791   4.231  17.150  0.00  0.00    +0.000 NA
ATOM     15  N   UNL     1       7.399   5.235  15.077  0.00  0.00    +0.000 N 
ATOM     16  H   UNL     1       7.760   4.209  18.180  0.00  0.00    +0.000 HD
ATOM     17  H   UNL     1       7.047   6.041  14.541  0.00  0.00    +0.000 HD
ATOM     18  H   UNL     1       7.740   4.405  14.570  0.00  0.00    +0.000 HD
ENDBRANCH  12  13
ENDBRANCH  11  12
ENDBRANCH  10  11
ENDBRANCH   1  10
TORSDOF 5
ENDMDL
MODEL 5
REMARK VINA RESULT:      -4.7      2.172      3.056
REMARK  Name = 
REMARK  5 active torsions:
REMARK  status: ('A' for Active; 'I' for Inactive)
REMARK    1  A    between atoms: N_4  and  C_5
REMARK    2  A    between atoms: C_5  and  C_6
REMARK    3  A    between atoms: C_6  and  C_7
REMARK    4  A    between atoms: C_7  and  S_8
REMARK    5  A    between atoms: S_8  and  C_9
REMARK                            x       y       z     vdW  Elec       q    Type
REMARK                         _______ _______ _______ _____ _____    ______ ____
ROOT
ATOM      1  C   UNL     1       2.454   5.663  20.023  0.00  0.00    +0.000 C 
ENDROOT
BRANCH   1   5
ATOM      2  N   UNL     1       0.626   3.435  20.228  0.00  0.00    +0.000 NA
ATOM      3  C   UNL     1       1.569   3.539  21.097  0.00  0.00    +0.000 C 
ATOM      4  N   UNL     1       1.685   2.570  22.129  0.00  0.00    +0.000 N 
ATOM      5  N   UNL     1       2.497   4.623  21.038  0.00  0.00    +0.000 N 
ATOM      6  H   UNL     1      -0.055   2.661  20.256  0.00  0.00    +0.000 HD
ATOM      7  H   UNL     1       1.025   1.781  22.189  0.00  0.00    +0.000 HD
ATOM      8  H   UNL     1       2.435   2.643  22.833  0.00  0.00    +0.000 HD
ATOM      9  H   UNL     1       3.239   4.671  21.752  0.00  0.00    +0.000 HD
ENDBRANCH   1   5
BRANCH   1  10
ATOM     10  C   UNL     1       3.751   5.647  19.208  0.00  0.00    +0.000 C 
BRANCH  10  11
ATOM     11  C   UNL     1       3.497   5.471  17.706  0.00  0.00    +0.000 C 
BRANCH  11  12
ATOM     12  S   UNL     1       4.465   4.034  17.119  0.00  0.00    +0.000 S 
BRANCH  12  13
ATOM     13  C   UNL     1       3.359   2.771  17.772  0.00  0.00    +0.000 C 
ATOM     14  N   UNL     1       2.100   2.817  17.520  0.00  0.00    +0.000 NA
ATOM     15  N   UNL     1       3.887   1.689  18.517  0.00  0.00    +0.000 N 
ATOM     16  H   UNL     1       1.695   3.579  16.958  0.00  0.00    +0.000 HD
ATOM     17  H   UNL     1       4.898   1.632  18.705  0.00  0.00    +0.000 HD
ATOM     18  H   UNL     1       3.271   0.934  18.854  0.00  0.00    +0.000 HD
ENDBRANCH  12  13
ENDBRANCH  11  12
ENDBRANCH  10  11
ENDBRANCH   1  10
TORSDOF 5
ENDMDL
MODEL 6
REMARK VINA RESULT:      -4.6      2.093      4.486
REMARK  Name = 
REMARK  5 active torsions:
REMARK  status: ('A' for Active; 'I' for Inactive)
REMARK    1  A    between atoms: N_4  and  C_5
REMARK    2  A    between atoms: C_5  and  C_6
REMARK    3  A    between atoms: C_6  and  C_7
REMARK    4  A    between atoms: C_7  and  S_8
REMARK    5  A    between atoms: S_8  and  C_9
REMARK                            x       y       z     vdW  Elec       q    Type
REMARK                         _______ _______ _______ _____ _____    ______ ____
ROOT
ATOM      1  C   UNL     1       6.597   4.465  16.780  0.00  0.00    +0.000 C 
ENDROOT
BRANCH   1   5
ATOM      2  N   UNL     1       7.709   6.721  18.201  0.00  0.00    +0.000 NA
ATOM      3  C   UNL     1       7.688   5.575  18.786  0.00  0.00    +0.000 C 
ATOM      4  N   UNL     1       8.210   5.446  20.101  0.00  0.00    +0.000 N 
ATOM      5  N   UNL     1       7.148   4.430  18.125  0.00  0.00    +0.000 N 
ATOM      6  H   UNL     1       8.097   7.558  18.662  0.00  0.00    +0.000 HD
ATOM      7  H   UNL     1       8.604   6.261  20.595  0.00  0.00    +0.000 HD
ATOM      8  H   UNL     1       8.201   4.534  20.580  0.00  0.00    +0.000 HD
ATOM      9  H   UNL     1       7.149   3.530  18.627  0.00  0.00    +0.000 HD
ENDBRANCH   1   5
BRANCH   1  10
ATOM     10  C   UNL     1       5.130   4.024  16.808  0.00  0.00    +0.000 C 
BRANCH  10  11
ATOM     11  C   UNL     1       4.242   4.992  17.600  0.00  0.00    +0.000 C 
BRANCH  11  12
ATOM     12  S   UNL     1       3.507   4.086  19.008  0.00  0.00    +0.000 S 
BRANCH  12  13
ATOM     13  C   UNL     1       2.229   3.246  18.056  0.00  0.00    +0.000 C 
ATOM     14  N   UNL     1       1.355   3.924  17.403  0.00  0.00    +0.000 NA
ATOM     15  N   UNL     1       2.223   1.833  17.978  0.00  0.00    +0.000 N 
ATOM     16  H   UNL     1       1.354   4.954  17.421  0.00  0.00    +0.000 HD
ATOM     17  H   UNL     1       2.933   1.281  18.481  0.00  0.00    +0.000 HD
ATOM     18  H   UNL     1       1.526   1.343  17.397  0.00  0.00    +0.000 HD
ENDBRANCH  12  13
ENDBRANCH  11  12
ENDBRANCH  10  11
ENDBRANCH   1  10
TORSDOF 5
ENDMDL
MODEL 7
REMARK VINA RESULT:      -4.6      2.175      2.930
REMARK  Name = 
REMARK  5 active torsions:
REMARK  status: ('A' for Active; 'I' for Inactive)
REMARK    1  A    between atoms: N_4  and  C_5
REMARK    2  A    between atoms: C_5  and  C_6
REMARK    3  A    between atoms: C_6  and  C_7
REMARK    4  A    between atoms: C_7  and  S_8
REMARK    5  A    between atoms: S_8  and  C_9
REMARK                            x       y       z     vdW  Elec       q    Type
REMARK                         _______ _______ _______ _____ _____    ______ ____
ROOT
ATOM      1  C   UNL     1       4.780   3.859  17.047  0.00  0.00    +0.000 C 
ENDROOT
BRANCH   1   5
ATOM      2  N   UNL     1       4.144   1.314  18.257  0.00  0.00    +0.000 NA
ATOM      3  C   UNL     1       3.189   2.149  18.042  0.00  0.00    +0.000 C 
ATOM      4  N   UNL     1       1.857   1.802  18.395  0.00  0.00    +0.000 N 
ATOM      5  N   UNL     1       3.453   3.420  17.446  0.00  0.00    +0.000 N 
ATOM      6  H   UNL     1       3.972   0.392  18.684  0.00  0.00    +0.000 HD
ATOM      7  H   UNL     1       1.647   0.889  18.826  0.00  0.00    +0.000 HD
ATOM      8  H   UNL     1       1.083   2.460  18.226  0.00  0.00    +0.000 HD
ATOM      9  H   UNL     1       2.661   4.061  17.290  0.00  0.00    +0.000 HD
ENDBRANCH   1   5
BRANCH   1  10
ATOM     10  C   UNL     1       4.807   5.386  16.928  0.00  0.00    +0.000 C 
BRANCH  10  11
ATOM     11  C   UNL     1       6.234   5.947  16.898  0.00  0.00    +0.000 C 
BRANCH  11  12
ATOM     12  S   UNL     1       7.342   4.758  17.735  0.00  0.00    +0.000 S 
BRANCH  12  13
ATOM     13  C   UNL     1       7.858   5.866  19.059  0.00  0.00    +0.000 C 
ATOM     14  N   UNL     1       7.901   5.450  20.274  0.00  0.00    +0.000 NA
ATOM     15  N   UNL     1       8.277   7.183  18.752  0.00  0.00    +0.000 N 
ATOM     16  H   UNL     1       7.627   4.488  20.520  0.00  0.00    +0.000 HD
ATOM     17  H   UNL     1       8.267   7.518  17.777  0.00  0.00    +0.000 HD
ATOM     18  H   UNL     1       8.621   7.810  19.494  0.00  0.00    +0.000 HD
ENDBRANCH  12  13
ENDBRANCH  11  12
ENDBRANCH  10  11
ENDBRANCH   1  10
TORSDOF 5
ENDMDL
MODEL 8
REMARK VINA RESULT:      -4.6      1.799      3.572
REMARK  Name = 
REMARK  5 active torsions:
REMARK  status: ('A' for Active; 'I' for Inactive)
REMARK    1  A    between atoms: N_4  and  C_5
REMARK    2  A    between atoms: C_5  and  C_6
REMARK    3  A    between atoms: C_6  and  C_7
REMARK    4  A    between atoms: C_7  and  S_8
REMARK    5  A    between atoms: S_8  and  C_9
REMARK                            x       y       z     vdW  Elec       q    Type
REMARK                         _______ _______ _______ _____ _____    ______ ____
ROOT
ATOM      1  C   UNL     1       3.405   4.865  18.103  0.00  0.00    +0.000 C 
ENDROOT
BRANCH   1   5
ATOM      2  N   UNL     1       6.174   4.254  18.658  0.00  0.00    +0.000 NA
ATOM      3  C   UNL     1       5.799   4.352  17.430  0.00  0.00    +0.000 C 
ATOM      4  N   UNL     1       6.747   4.164  16.389  0.00  0.00    +0.000 N 
ATOM      5  N   UNL     1       4.442   4.652  17.105  0.00  0.00    +0.000 N 
ATOM      6  H   UNL     1       7.150   4.040  18.912  0.00  0.00    +0.000 HD
ATOM      7  H   UNL     1       7.731   3.946  16.604  0.00  0.00    +0.000 HD
ATOM      8  H   UNL     1       6.460   4.241  15.402  0.00  0.00    +0.000 HD
ATOM      9  H   UNL     1       4.181   4.722  16.110  0.00  0.00    +0.000 HD
ENDBRANCH   1   5
BRANCH   1  10
ATOM     10  C   UNL     1       2.107   4.188  17.654  0.00  0.00    +0.000 C 
BRANCH  10  11
ATOM     11  C   UNL     1       1.843   2.874  18.401  0.00  0.00    +0.000 C 
BRANCH  11  12
ATOM     12  S   UNL     1       2.764   2.910  19.980  0.00  0.00    +0.000 S 
BRANCH  12  13
ATOM     13  C   UNL     1       4.054   1.755  19.482  0.00  0.00    +0.000 C 
ATOM     14  N   UNL     1       5.130   1.644  20.176  0.00  0.00    +0.000 NA
ATOM     15  N   UNL     1       3.857   0.922  18.355  0.00  0.00    +0.000 N 
ATOM     16  H   UNL     1       5.286   2.220  21.016  0.00  0.00    +0.000 HD
ATOM     17  H   UNL     1       2.988   0.989  17.805  0.00  0.00    +0.000 HD
ATOM     18  H   UNL     1       4.567   0.223  18.089  0.00  0.00    +0.000 HD
ENDBRANCH  12  13
ENDBRANCH  11  12
ENDBRANCH  10  11
ENDBRANCH   1  10
TORSDOF 5
ENDMDL
MODEL 9
REMARK VINA RESULT:      -4.6      1.561      2.009
REMARK  Name = 
REMARK  5 active torsions:
REMARK  status: ('A' for Active; 'I' for Inactive)
REMARK    1  A    between atoms: N_4  and  C_5
REMARK    2  A    between atoms: C_5  and  C_6
REMARK    3  A    between atoms: C_6  and  C_7
REMARK    4  A    between atoms: C_7  and  S_8
REMARK    5  A    between atoms: S_8  and  C_9
REMARK                            x       y       z     vdW  Elec       q    Type
REMARK                         _______ _______ _______ _____ _____    ______ ____
ROOT
ATOM      1  C   UNL     1       3.741   4.838  19.629  0.00  0.00    +0.000 C 
ENDROOT
BRANCH   1   5
ATOM      2  N   UNL     1       4.875   2.186  19.794  0.00  0.00    +0.000 NA
ATOM      3  C   UNL     1       3.798   2.353  19.110  0.00  0.00    +0.000 C 
ATOM      4  N   UNL     1       3.201   1.243  18.455  0.00  0.00    +0.000 N 
ATOM      5  N   UNL     1       3.199   3.645  18.998  0.00  0.00    +0.000 N 
ATOM      6  H   UNL     1       5.323   1.262  19.885  0.00  0.00    +0.000 HD
ATOM      7  H   UNL     1       3.618   0.303  18.524  0.00  0.00    +0.000 HD
ATOM      8  H   UNL     1       2.340   1.363  17.903  0.00  0.00    +0.000 HD
ATOM      9  H   UNL     1       2.337   3.737  18.441  0.00  0.00    +0.000 HD
ENDBRANCH   1   5
BRANCH   1  10
ATOM     10  C   UNL     1       4.911   5.377  18.800  0.00  0.00    +0.000 C 
BRANCH  10  11
ATOM     11  C   UNL     1       4.530   5.613  17.333  0.00  0.00    +0.000 C 
BRANCH  11  12
ATOM     12  S   UNL     1       5.428   4.401  16.298  0.00  0.00    +0.000 S 
BRANCH  12  13
ATOM     13  C   UNL     1       7.083   4.999  16.684  0.00  0.00    +0.000 C 
ATOM     14  N   UNL     1       7.962   4.204  17.180  0.00  0.00    +0.000 NA
ATOM     15  N   UNL     1       7.436   6.337  16.384  0.00  0.00    +0.000 N 
ATOM     16  H   UNL     1       7.738   3.219  17.382  0.00  0.00    +0.000 HD
ATOM     17  H   UNL     1       6.745   6.976  15.966  0.00  0.00    +0.000 HD
ATOM     18  H   UNL     1       8.395   6.676  16.554  0.00  0.00    +0.000 HD
ENDBRANCH  12  13
ENDBRANCH  11  12
ENDBRANCH  10  11
ENDBRANCH   1  10
TORSDOF 5
ENDMDL
