MODEL 1
REMARK VINA RESULT:      -7.4      0.000      0.000
REMARK  Name = 
REMARK  9 active torsions:
REMARK  status: ('A' for Active; 'I' for Inactive)
REMARK    1  A    between atoms: C_1  and  C_2
REMARK    2  A    between atoms: C_7  and  C_8
REMARK    3  A    between atoms: C_8  and  C_9
REMARK    4  A    between atoms: N_16  and  C_17
REMARK    5  A    between atoms: C_17  and  C_18
REMARK    6  A    between atoms: C_18  and  C_19
REMARK    7  A    between atoms: C_19  and  N_20
REMARK    8  A    between atoms: N_20  and  C_21
REMARK    9  A    between atoms: N_20  and  C_22
REMARK                            x       y       z     vdW  Elec       q    Type
REMARK                         _______ _______ _______ _____ _____    ______ ____
ROOT
ATOM      1  C   UNL     1       6.341   3.760  14.314  0.00  0.00    +0.000 C 
ATOM      2  C   UNL     1       5.973   4.441  15.601  0.00  0.00    +0.000 A 
ATOM      3  C   UNL     1       6.939   5.110  16.360  0.00  0.00    +0.000 A 
ATOM      4  C   UNL     1       6.606   5.733  17.570  0.00  0.00    +0.000 A 
ATOM      5  C   UNL     1       5.283   5.656  18.026  0.00  0.00    +0.000 A 
ATOM      6  N   UNL     1       4.727   6.177  19.160  0.00  0.00    +0.000 NA
ATOM      7  C   UNL     1       3.460   5.802  19.163  0.00  0.00    +0.000 A 
ATOM      8  N   UNL     1       3.179   5.053  18.034  0.00  0.00    +0.000 N 
ATOM      9  C   UNL     1       4.334   4.977  17.278  0.00  0.00    +0.000 A 
ATOM     10  C   UNL     1       4.642   4.384  16.045  0.00  0.00    +0.000 A 
ENDROOT
BRANCH   7  11
ATOM     11  C   UNL     1       2.462   6.174  20.227  0.00  0.00    +0.000 C 
BRANCH  11  12
ATOM     12  C   UNL     1       1.904   7.573  20.039  0.00  0.00    +0.000 A 
ATOM     13  C   UNL     1       1.192   8.204  21.071  0.00  0.00    +0.000 A 
ATOM     14  C   UNL     1       0.568   9.434  20.852  0.00  0.00    +0.000 A 
ATOM     15  C   UNL     1       0.654  10.039  19.601  0.00  0.00    +0.000 A 
ATOM     16 BR   UNL     1      -0.252  11.667  19.280  0.00  0.00    +0.000 Br
ATOM     17  C   UNL     1       1.381   9.439  18.574  0.00  0.00    +0.000 A 
ATOM     18  C   UNL     1       2.003   8.209  18.793  0.00  0.00    +0.000 A 
ENDBRANCH  11  12
ENDBRANCH   7  11
BRANCH   8  19
ATOM     19  C   UNL     1       1.905   4.475  17.649  0.00  0.00    +0.000 C 
BRANCH  19  20
ATOM     20  C   UNL     1       1.723   3.002  18.033  0.00  0.00    +0.000 C 
BRANCH  20  21
ATOM     21  C   UNL     1       0.996   2.773  19.361  0.00  0.00    +0.000 C 
BRANCH  21  22
ATOM     22  N   UNL     1       1.838   2.197  20.424  0.00  0.00    +0.000 NA
ATOM     23  C   UNL     1       3.267   2.304  20.117  0.00  0.00    +0.000 C 
ATOM     24  C   UNL     1       1.559   2.893  21.686  0.00  0.00    +0.000 C 
ENDBRANCH  21  22
ENDBRANCH  20  21
ENDBRANCH  19  20
ENDBRANCH   8  19
TORSDOF 6
ENDMDL
MODEL 2
REMARK VINA RESULT:      -6.8      3.932      8.137
REMARK  Name = 
REMARK  9 active torsions:
REMARK  status: ('A' for Active; 'I' for Inactive)
REMARK    1  A    between atoms: C_1  and  C_2
REMARK    2  A    between atoms: C_7  and  C_8
REMARK    3  A    between atoms: C_8  and  C_9
REMARK    4  A    between atoms: N_16  and  C_17
REMARK    5  A    between atoms: C_17  and  C_18
REMARK    6  A    between atoms: C_18  and  C_19
REMARK    7  A    between atoms: C_19  and  N_20
REMARK    8  A    between atoms: N_20  and  C_21
REMARK    9  A    between atoms: N_20  and  C_22
REMARK                            x       y       z     vdW  Elec       q    Type
REMARK                         _______ _______ _______ _____ _____    ______ ____
ROOT
ATOM      1  C   UNL     1      -1.758  11.640  23.121  0.00  0.00    +0.000 C 
ATOM      2  C   UNL     1      -0.812  10.682  22.456  0.00  0.00    +0.000 A 
ATOM      3  C   UNL     1      -0.044   9.792  23.214  0.00  0.00    +0.000 A 
ATOM      4  C   UNL     1       0.854   8.908  22.602  0.00  0.00    +0.000 A 
ATOM      5  C   UNL     1       0.990   8.943  21.208  0.00  0.00    +0.000 A 
ATOM      6  N   UNL     1       1.790   8.189  20.397  0.00  0.00    +0.000 NA
ATOM      7  C   UNL     1       1.591   8.622  19.164  0.00  0.00    +0.000 A 
ATOM      8  N   UNL     1       0.657   9.643  19.161  0.00  0.00    +0.000 N 
ATOM      9  C   UNL     1       0.239   9.840  20.464  0.00  0.00    +0.000 A 
ATOM     10  C   UNL     1      -0.693  10.703  21.057  0.00  0.00    +0.000 A 
ENDROOT
BRANCH   7  11
ATOM     11  C   UNL     1       2.259   8.054  17.941  0.00  0.00    +0.000 C 
BRANCH  11  12
ATOM     12  C   UNL     1       2.657   6.600  18.116  0.00  0.00    +0.000 A 
ATOM     13  C   UNL     1       1.700   5.578  18.008  0.00  0.00    +0.000 A 
ATOM     14  C   UNL     1       2.040   4.255  18.299  0.00  0.00    +0.000 A 
ATOM     15  C   UNL     1       3.338   3.948  18.697  0.00  0.00    +0.000 A 
ATOM     16 BR   UNL     1       3.781   2.170  19.163  0.00  0.00    +0.000 Br
ATOM     17  C   UNL     1       4.307   4.946  18.783  0.00  0.00    +0.000 A 
ATOM     18  C   UNL     1       3.966   6.268  18.494  0.00  0.00    +0.000 A 
ENDBRANCH  11  12
ENDBRANCH   7  11
BRANCH   8  19
ATOM     19  C   UNL     1       0.145  10.370  18.014  0.00  0.00    +0.000 C 
BRANCH  19  20
ATOM     20  C   UNL     1      -1.231   9.908  17.520  0.00  0.00    +0.000 C 
BRANCH  20  21
ATOM     21  C   UNL     1      -2.122  11.028  16.973  0.00  0.00    +0.000 C 
BRANCH  21  22
ATOM     22  N   UNL     1      -3.420  10.571  16.447  0.00  0.00    +0.000 NA
ATOM     23  C   UNL     1      -4.520  11.454  16.844  0.00  0.00    +0.000 C 
ATOM     24  C   UNL     1      -3.349  10.512  14.982  0.00  0.00    +0.000 C 
ENDBRANCH  21  22
ENDBRANCH  20  21
ENDBRANCH  19  20
ENDBRANCH   8  19
TORSDOF 6
ENDMDL
MODEL 3
REMARK VINA RESULT:      -6.7      1.159      1.625
REMARK  Name = 
REMARK  9 active torsions:
REMARK  status: ('A' for Active; 'I' for Inactive)
REMARK    1  A    between atoms: C_1  and  C_2
REMARK    2  A    between atoms: C_7  and  C_8
REMARK    3  A    between atoms: C_8  and  C_9
REMARK    4  A    between atoms: N_16  and  C_17
REMARK    5  A    between atoms: C_17  and  C_18
REMARK    6  A    between atoms: C_18  and  C_19
REMARK    7  A    between atoms: C_19  and  N_20
REMARK    8  A    between atoms: N_20  and  C_21
REMARK    9  A    between atoms: N_20  and  C_22
REMARK                            x       y       z     vdW  Elec       q    Type
REMARK                         _______ _______ _______ _____ _____    ______ ____
ROOT
ATOM      1  C   UNL     1       6.210   3.348  12.597  0.00  0.00    +0.000 C 
ATOM      2  C   UNL     1       6.139   4.052  13.922  0.00  0.00    +0.000 A 
ATOM      3  C   UNL     1       7.199   4.848  14.368  0.00  0.00    +0.000 A 
ATOM      4  C   UNL     1       7.147   5.493  15.610  0.00  0.00    +0.000 A 
ATOM      5  C   UNL     1       6.017   5.311  16.418  0.00  0.00    +0.000 A 
ATOM      6  N   UNL     1       5.742   5.830  17.652  0.00  0.00    +0.000 NA
ATOM      7  C   UNL     1       4.572   5.334  18.015  0.00  0.00    +0.000 A 
ATOM      8  N   UNL     1       4.074   4.507  17.024  0.00  0.00    +0.000 N 
ATOM      9  C   UNL     1       4.977   4.507  15.978  0.00  0.00    +0.000 A 
ATOM     10  C   UNL     1       4.995   3.887  14.720  0.00  0.00    +0.000 A 
ENDROOT
BRANCH   7  11
ATOM     11  C   UNL     1       3.871   5.658  19.307  0.00  0.00    +0.000 C 
BRANCH  11  12
ATOM     12  C   UNL     1       3.010   6.903  19.206  0.00  0.00    +0.000 A 
ATOM     13  C   UNL     1       2.180   7.288  20.271  0.00  0.00    +0.000 A 
ATOM     14  C   UNL     1       1.292   8.356  20.128  0.00  0.00    +0.000 A 
ATOM     15  C   UNL     1       1.232   9.046  18.920  0.00  0.00    +0.000 A 
ATOM     16 BR   UNL     1      -0.021  10.445  18.699  0.00  0.00    +0.000 Br
ATOM     17  C   UNL     1       2.070   8.696  17.862  0.00  0.00    +0.000 A 
ATOM     18  C   UNL     1       2.955   7.627  18.006  0.00  0.00    +0.000 A 
ENDBRANCH  11  12
ENDBRANCH   7  11
BRANCH   8  19
ATOM     19  C   UNL     1       2.813   3.790  17.021  0.00  0.00    +0.000 C 
BRANCH  19  20
ATOM     20  C   UNL     1       2.772   2.552  17.925  0.00  0.00    +0.000 C 
BRANCH  20  21
ATOM     21  C   UNL     1       1.614   2.532  18.927  0.00  0.00    +0.000 C 
BRANCH  21  22
ATOM     22  N   UNL     1       1.867   3.290  20.164  0.00  0.00    +0.000 NA
ATOM     23  C   UNL     1       0.727   4.131  20.541  0.00  0.00    +0.000 C 
ATOM     24  C   UNL     1       2.155   2.349  21.253  0.00  0.00    +0.000 C 
ENDBRANCH  21  22
ENDBRANCH  20  21
ENDBRANCH  19  20
ENDBRANCH   8  19
TORSDOF 6
ENDMDL
MODEL 4
REMARK VINA RESULT:      -6.6      2.708      6.028
REMARK  Name = 
REMARK  9 active torsions:
REMARK  status: ('A' for Active; 'I' for Inactive)
REMARK    1  A    between atoms: C_1  and  C_2
REMARK    2  A    between atoms: C_7  and  C_8
REMARK    3  A    between atoms: C_8  and  C_9
REMARK    4  A    between atoms: N_16  and  C_17
REMARK    5  A    between atoms: C_17  and  C_18
REMARK    6  A    between atoms: C_18  and  C_19
REMARK    7  A    between atoms: C_19  and  N_20
REMARK    8  A    between atoms: N_20  and  C_21
REMARK    9  A    between atoms: N_20  and  C_22
REMARK                            x       y       z     vdW  Elec       q    Type
REMARK                         _______ _______ _______ _____ _____    ______ ____
ROOT
ATOM      1  C   UNL     1      -0.181  10.230  20.156  0.00  0.00    +0.000 C 
ATOM      2  C   UNL     1       0.881   9.421  19.468  0.00  0.00    +0.000 A 
ATOM      3  C   UNL     1       1.434   9.849  18.256  0.00  0.00    +0.000 A 
ATOM      4  C   UNL     1       2.412   9.091  17.600  0.00  0.00    +0.000 A 
ATOM      5  C   UNL     1       2.818   7.876  18.168  0.00  0.00    +0.000 A 
ATOM      6  N   UNL     1       3.743   6.977  17.719  0.00  0.00    +0.000 NA
ATOM      7  C   UNL     1       3.741   5.974  18.580  0.00  0.00    +0.000 A 
ATOM      8  N   UNL     1       2.832   6.217  19.595  0.00  0.00    +0.000 N 
ATOM      9  C   UNL     1       2.253   7.450  19.360  0.00  0.00    +0.000 A 
ATOM     10  C   UNL     1       1.303   8.215  20.051  0.00  0.00    +0.000 A 
ENDROOT
BRANCH   7  11
ATOM     11  C   UNL     1       4.630   4.763  18.483  0.00  0.00    +0.000 C 
BRANCH  11  12
ATOM     12  C   UNL     1       5.392   4.704  17.173  0.00  0.00    +0.000 A 
ATOM     13  C   UNL     1       6.689   5.235  17.074  0.00  0.00    +0.000 A 
ATOM     14  C   UNL     1       7.337   5.298  15.838  0.00  0.00    +0.000 A 
ATOM     15  C   UNL     1       6.692   4.829  14.696  0.00  0.00    +0.000 A 
ATOM     16 BR   UNL     1       7.537   4.982  13.012  0.00  0.00    +0.000 Br
ATOM     17  C   UNL     1       5.416   4.274  14.781  0.00  0.00    +0.000 A 
ATOM     18  C   UNL     1       4.769   4.212  16.016  0.00  0.00    +0.000 A 
ENDBRANCH  11  12
ENDBRANCH   7  11
BRANCH   8  19
ATOM     19  C   UNL     1       2.543   5.378  20.743  0.00  0.00    +0.000 C 
BRANCH  19  20
ATOM     20  C   UNL     1       1.231   4.591  20.653  0.00  0.00    +0.000 C 
BRANCH  20  21
ATOM     21  C   UNL     1       1.149   3.619  19.471  0.00  0.00    +0.000 C 
BRANCH  21  22
ATOM     22  N   UNL     1       1.566   2.242  19.787  0.00  0.00    +0.000 NA
ATOM     23  C   UNL     1       2.708   1.810  18.976  0.00  0.00    +0.000 C 
ATOM     24  C   UNL     1       1.924   2.163  21.209  0.00  0.00    +0.000 C 
ENDBRANCH  21  22
ENDBRANCH  20  21
ENDBRANCH  19  20
ENDBRANCH   8  19
TORSDOF 6
ENDMDL
MODEL 5
REMARK VINA RESULT:      -6.5      1.964      4.538
REMARK  Name = 
REMARK  9 active torsions:
REMARK  status: ('A' for Active; 'I' for Inactive)
REMARK    1  A    between atoms: C_1  and  C_2
REMARK    2  A    between atoms: C_7  and  C_8
REMARK    3  A    between atoms: C_8  and  C_9
REMARK    4  A    between atoms: N_16  and  C_17
REMARK    5  A    between atoms: C_17  and  C_18
REMARK    6  A    between atoms: C_18  and  C_19
REMARK    7  A    between atoms: C_19  and  N_20
REMARK    8  A    between atoms: N_20  and  C_21
REMARK    9  A    between atoms: N_20  and  C_22
REMARK                            x       y       z     vdW  Elec       q    Type
REMARK                         _______ _______ _______ _____ _____    ______ ____
ROOT
ATOM      1  C   UNL     1       4.144   2.162  19.975  0.00  0.00    +0.000 C 
ATOM      2  C   UNL     1       3.501   3.519  19.949  0.00  0.00    +0.000 A 
ATOM      3  C   UNL     1       2.512   3.861  20.877  0.00  0.00    +0.000 A 
ATOM      4  C   UNL     1       1.895   5.118  20.848  0.00  0.00    +0.000 A 
ATOM      5  C   UNL     1       2.271   6.031  19.854  0.00  0.00    +0.000 A 
ATOM      6  N   UNL     1       1.817   7.299  19.626  0.00  0.00    +0.000 NA
ATOM      7  C   UNL     1       2.447   7.736  18.550  0.00  0.00    +0.000 A 
ATOM      8  N   UNL     1       3.319   6.770  18.081  0.00  0.00    +0.000 N 
ATOM      9  C   UNL     1       3.240   5.680  18.926  0.00  0.00    +0.000 A 
ATOM     10  C   UNL     1       3.895   4.441  18.966  0.00  0.00    +0.000 A 
ENDROOT
BRANCH   7  11
ATOM     11  C   UNL     1       2.265   9.105  17.951  0.00  0.00    +0.000 C 
BRANCH  11  12
ATOM     12  C   UNL     1       1.033   9.814  18.482  0.00  0.00    +0.000 A 
ATOM     13  C   UNL     1      -0.211   9.659  17.850  0.00  0.00    +0.000 A 
ATOM     14  C   UNL     1      -1.313  10.412  18.259  0.00  0.00    +0.000 A 
ATOM     15  C   UNL     1      -1.177  11.323  19.303  0.00  0.00    +0.000 A 
ATOM     16 BR   UNL     1      -2.648  12.398  19.810  0.00  0.00    +0.000 Br
ATOM     17  C   UNL     1       0.044  11.470  19.960  0.00  0.00    +0.000 A 
ATOM     18  C   UNL     1       1.145  10.718  19.550  0.00  0.00    +0.000 A 
ENDBRANCH  11  12
ENDBRANCH   7  11
BRANCH   8  19
ATOM     19  C   UNL     1       4.211   6.862  16.940  0.00  0.00    +0.000 C 
BRANCH  19  20
ATOM     20  C   UNL     1       5.671   7.177  17.285  0.00  0.00    +0.000 C 
BRANCH  20  21
ATOM     21  C   UNL     1       6.702   6.351  16.510  0.00  0.00    +0.000 C 
BRANCH  21  22
ATOM     22  N   UNL     1       6.609   4.898  16.734  0.00  0.00    +0.000 NA
ATOM     23  C   UNL     1       6.722   4.137  15.487  0.00  0.00    +0.000 C 
ATOM     24  C   UNL     1       7.677   4.484  17.653  0.00  0.00    +0.000 C 
ENDBRANCH  21  22
ENDBRANCH  20  21
ENDBRANCH  19  20
ENDBRANCH   8  19
TORSDOF 6
ENDMDL
MODEL 6
REMARK VINA RESULT:      -6.4      1.598      4.520
REMARK  Name = 
REMARK  9 active torsions:
REMARK  status: ('A' for Active; 'I' for Inactive)
REMARK    1  A    between atoms: C_1  and  C_2
REMARK    2  A    between atoms: C_7  and  C_8
REMARK    3  A    between atoms: C_8  and  C_9
REMARK    4  A    between atoms: N_16  and  C_17
REMARK    5  A    between atoms: C_17  and  C_18
REMARK    6  A    between atoms: C_18  and  C_19
REMARK    7  A    between atoms: C_19  and  N_20
REMARK    8  A    between atoms: N_20  and  C_21
REMARK    9  A    between atoms: N_20  and  C_22
REMARK                            x       y       z     vdW  Elec       q    Type
REMARK                         _______ _______ _______ _____ _____    ______ ____
ROOT
ATOM      1  C   UNL     1       4.209   0.770  18.915  0.00  0.00    +0.000 C 
ATOM      2  C   UNL     1       3.466   2.065  18.750  0.00  0.00    +0.000 A 
ATOM      3  C   UNL     1       2.068   2.090  18.725  0.00  0.00    +0.000 A 
ATOM      4  C   UNL     1       1.368   3.292  18.554  0.00  0.00    +0.000 A 
ATOM      5  C   UNL     1       2.096   4.477  18.385  0.00  0.00    +0.000 A 
ATOM      6  N   UNL     1       1.643   5.753  18.204  0.00  0.00    +0.000 NA
ATOM      7  C   UNL     1       2.713   6.515  18.054  0.00  0.00    +0.000 A 
ATOM      8  N   UNL     1       3.861   5.750  18.150  0.00  0.00    +0.000 N 
ATOM      9  C   UNL     1       3.482   4.443  18.393  0.00  0.00    +0.000 A 
ATOM     10  C   UNL     1       4.197   3.255  18.604  0.00  0.00    +0.000 A 
ENDROOT
BRANCH   7  11
ATOM     11  C   UNL     1       2.678   8.005  17.848  0.00  0.00    +0.000 C 
BRANCH  11  12
ATOM     12  C   UNL     1       1.751   8.706  18.823  0.00  0.00    +0.000 A 
ATOM     13  C   UNL     1       1.041   9.855  18.437  0.00  0.00    +0.000 A 
ATOM     14  C   UNL     1       0.291  10.573  19.371  0.00  0.00    +0.000 A 
ATOM     15  C   UNL     1       0.247  10.146  20.695  0.00  0.00    +0.000 A 
ATOM     16 BR   UNL     1      -0.705  11.158  21.977  0.00  0.00    +0.000 Br
ATOM     17  C   UNL     1       0.923   8.992  21.090  0.00  0.00    +0.000 A 
ATOM     18  C   UNL     1       1.673   8.276  20.156  0.00  0.00    +0.000 A 
ENDBRANCH  11  12
ENDBRANCH   7  11
BRANCH   8  19
ATOM     19  C   UNL     1       5.237   6.204  18.066  0.00  0.00    +0.000 C 
BRANCH  19  20
ATOM     20  C   UNL     1       5.787   6.336  16.640  0.00  0.00    +0.000 C 
BRANCH  20  21
ATOM     21  C   UNL     1       7.167   5.706  16.428  0.00  0.00    +0.000 C 
BRANCH  21  22
ATOM     22  N   UNL     1       7.181   4.579  15.479  0.00  0.00    +0.000 NA
ATOM     23  C   UNL     1       5.992   3.733  15.607  0.00  0.00    +0.000 C 
ATOM     24  C   UNL     1       7.256   5.106  14.111  0.00  0.00    +0.000 C 
ENDBRANCH  21  22
ENDBRANCH  20  21
ENDBRANCH  19  20
ENDBRANCH   8  19
TORSDOF 6
ENDMDL
MODEL 7
REMARK VINA RESULT:      -6.4      3.102      6.007
REMARK  Name = 
REMARK  9 active torsions:
REMARK  status: ('A' for Active; 'I' for Inactive)
REMARK    1  A    between atoms: C_1  and  C_2
REMARK    2  A    between atoms: C_7  and  C_8
REMARK    3  A    between atoms: C_8  and  C_9
REMARK    4  A    between atoms: N_16  and  C_17
REMARK    5  A    between atoms: C_17  and  C_18
REMARK    6  A    between atoms: C_18  and  C_19
REMARK    7  A    between atoms: C_19  and  N_20
REMARK    8  A    between atoms: N_20  and  C_21
REMARK    9  A    between atoms: N_20  and  C_22
REMARK                            x       y       z     vdW  Elec       q    Type
REMARK                         _______ _______ _______ _____ _____    ______ ____
ROOT
ATOM      1  C   UNL     1       2.660   3.400  20.934  0.00  0.00    +0.000 C 
ATOM      2  C   UNL     1       2.498   4.629  20.085  0.00  0.00    +0.000 A 
ATOM      3  C   UNL     1       2.807   4.603  18.721  0.00  0.00    +0.000 A 
ATOM      4  C   UNL     1       2.675   5.749  17.926  0.00  0.00    +0.000 A 
ATOM      5  C   UNL     1       2.247   6.940  18.528  0.00  0.00    +0.000 A 
ATOM      6  N   UNL     1       2.046   8.169  17.966  0.00  0.00    +0.000 NA
ATOM      7  C   UNL     1       1.681   8.975  18.948  0.00  0.00    +0.000 A 
ATOM      8  N   UNL     1       1.628   8.280  20.143  0.00  0.00    +0.000 N 
ATOM      9  C   UNL     1       1.959   6.964  19.884  0.00  0.00    +0.000 A 
ATOM     10  C   UNL     1       2.047   5.816  20.684  0.00  0.00    +0.000 A 
ENDROOT
BRANCH   7  11
ATOM     11  C   UNL     1       1.336  10.430  18.775  0.00  0.00    +0.000 C 
BRANCH  11  12
ATOM     12  C   UNL     1      -0.125  10.645  18.425  0.00  0.00    +0.000 A 
ATOM     13  C   UNL     1      -0.857   9.646  17.765  0.00  0.00    +0.000 A 
ATOM     14  C   UNL     1      -2.160   9.894  17.327  0.00  0.00    +0.000 A 
ATOM     15  C   UNL     1      -2.737  11.142  17.549  0.00  0.00    +0.000 A 
ATOM     16 BR   UNL     1      -4.472  11.505  16.893  0.00  0.00    +0.000 Br
ATOM     17  C   UNL     1      -2.033  12.136  18.228  0.00  0.00    +0.000 A 
ATOM     18  C   UNL     1      -0.731  11.888  18.664  0.00  0.00    +0.000 A 
ENDBRANCH  11  12
ENDBRANCH   7  11
BRANCH   8  19
ATOM     19  C   UNL     1       1.250   8.791  21.448  0.00  0.00    +0.000 C 
BRANCH  19  20
ATOM     20  C   UNL     1      -0.222   9.199  21.580  0.00  0.00    +0.000 C 
BRANCH  20  21
ATOM     21  C   UNL     1      -0.505  10.215  22.691  0.00  0.00    +0.000 C 
BRANCH  21  22
ATOM     22  N   UNL     1      -1.282  11.389  22.258  0.00  0.00    +0.000 NA
ATOM     23  C   UNL     1      -2.311  11.762  23.232  0.00  0.00    +0.000 C 
ATOM     24  C   UNL     1      -0.368  12.521  22.060  0.00  0.00    +0.000 C 
ENDBRANCH  21  22
ENDBRANCH  20  21
ENDBRANCH  19  20
ENDBRANCH   8  19
TORSDOF 6
ENDMDL
MODEL 8
REMARK VINA RESULT:      -6.3      1.863      4.527
REMARK  Name = 
REMARK  9 active torsions:
REMARK  status: ('A' for Active; 'I' for Inactive)
REMARK    1  A    between atoms: C_1  and  C_2
REMARK    2  A    between atoms: C_7  and  C_8
REMARK    3  A    between atoms: C_8  and  C_9
REMARK    4  A    between atoms: N_16  and  C_17
REMARK    5  A    between atoms: C_17  and  C_18
REMARK    6  A    between atoms: C_18  and  C_19
REMARK    7  A    between atoms: C_19  and  N_20
REMARK    8  A    between atoms: N_20  and  C_21
REMARK    9  A    between atoms: N_20  and  C_22
REMARK                            x       y       z     vdW  Elec       q    Type
REMARK                         _______ _______ _______ _____ _____    ______ ____
ROOT
ATOM      1  C   UNL     1       2.657   1.761  17.974  0.00  0.00    +0.000 C 
ATOM      2  C   UNL     1       2.338   3.012  18.742  0.00  0.00    +0.000 A 
ATOM      3  C   UNL     1       1.600   2.956  19.929  0.00  0.00    +0.000 A 
ATOM      4  C   UNL     1       1.284   4.120  20.641  0.00  0.00    +0.000 A 
ATOM      5  C   UNL     1       1.704   5.356  20.133  0.00  0.00    +0.000 A 
ATOM      6  N   UNL     1       1.518   6.610  20.642  0.00  0.00    +0.000 NA
ATOM      7  C   UNL     1       2.064   7.450  19.781  0.00  0.00    +0.000 A 
ATOM      8  N   UNL     1       2.617   6.756  18.720  0.00  0.00    +0.000 N 
ATOM      9  C   UNL     1       2.421   5.407  18.947  0.00  0.00    +0.000 A 
ATOM     10  C   UNL     1       2.780   4.248  18.243  0.00  0.00    +0.000 A 
ENDROOT
BRANCH   7  11
ATOM     11  C   UNL     1       2.107   8.945  19.956  0.00  0.00    +0.000 C 
BRANCH  11  12
ATOM     12  C   UNL     1       0.858   9.629  19.433  0.00  0.00    +0.000 A 
ATOM     13  C   UNL     1       0.004  10.324  20.305  0.00  0.00    +0.000 A 
ATOM     14  C   UNL     1      -1.210  10.840  19.846  0.00  0.00    +0.000 A 
ATOM     15  C   UNL     1      -1.574  10.665  18.514  0.00  0.00    +0.000 A 
ATOM     16 BR   UNL     1      -3.250  11.298  17.908  0.00  0.00    +0.000 Br
ATOM     17  C   UNL     1      -0.725  10.002  17.628  0.00  0.00    +0.000 A 
ATOM     18  C   UNL     1       0.487   9.486  18.088  0.00  0.00    +0.000 A 
ENDBRANCH  11  12
ENDBRANCH   7  11
BRANCH   8  19
ATOM     19  C   UNL     1       3.327   7.302  17.579  0.00  0.00    +0.000 C 
BRANCH  19  20
ATOM     20  C   UNL     1       4.794   6.869  17.464  0.00  0.00    +0.000 C 
BRANCH  20  21
ATOM     21  C   UNL     1       5.158   6.195  16.137  0.00  0.00    +0.000 C 
BRANCH  21  22
ATOM     22  N   UNL     1       6.593   5.903  15.978  0.00  0.00    +0.000 NA
ATOM     23  C   UNL     1       7.163   5.262  17.166  0.00  0.00    +0.000 C 
ATOM     24  C   UNL     1       6.778   5.024  14.816  0.00  0.00    +0.000 C 
ENDBRANCH  21  22
ENDBRANCH  20  21
ENDBRANCH  19  20
ENDBRANCH   8  19
TORSDOF 6
ENDMDL
MODEL 9
REMARK VINA RESULT:      -6.3      3.842      8.512
REMARK  Name = 
REMARK  9 active torsions:
REMARK  status: ('A' for Active; 'I' for Inactive)
REMARK    1  A    between atoms: C_1  and  C_2
REMARK    2  A    between atoms: C_7  and  C_8
REMARK    3  A    between atoms: C_8  and  C_9
REMARK    4  A    between atoms: N_16  and  C_17
REMARK    5  A    between atoms: C_17  and  C_18
REMARK    6  A    between atoms: C_18  and  C_19
REMARK    7  A    between atoms: C_19  and  N_20
REMARK    8  A    between atoms: N_20  and  C_21
REMARK    9  A    between atoms: N_20  and  C_22
REMARK                            x       y       z     vdW  Elec       q    Type
REMARK                         _______ _______ _______ _____ _____    ______ ____
ROOT
ATOM      1  C   UNL     1      -1.472  11.969  22.908  0.00  0.00    +0.000 C 
ATOM      2  C   UNL     1      -0.671  10.853  22.301  0.00  0.00    +0.000 A 
ATOM      3  C   UNL     1      -0.371   9.703  23.039  0.00  0.00    +0.000 A 
ATOM      4  C   UNL     1       0.391   8.666  22.485  0.00  0.00    +0.000 A 
ATOM      5  C   UNL     1       0.871   8.807  21.176  0.00  0.00    +0.000 A 
ATOM      6  N   UNL     1       1.624   7.942  20.433  0.00  0.00    +0.000 NA
ATOM      7  C   UNL     1       1.853   8.542  19.277  0.00  0.00    +0.000 A 
ATOM      8  N   UNL     1       1.246   9.785  19.254  0.00  0.00    +0.000 N 
ATOM      9  C   UNL     1       0.584   9.956  20.456  0.00  0.00    +0.000 A 
ATOM     10  C   UNL     1      -0.210  10.985  20.981  0.00  0.00    +0.000 A 
ENDROOT
BRANCH   7  11
ATOM     11  C   UNL     1       2.633   7.937  18.141  0.00  0.00    +0.000 C 
BRANCH  11  12
ATOM     12  C   UNL     1       2.791   6.434  18.279  0.00  0.00    +0.000 A 
ATOM     13  C   UNL     1       4.019   5.877  18.672  0.00  0.00    +0.000 A 
ATOM     14  C   UNL     1       4.201   4.492  18.672  0.00  0.00    +0.000 A 
ATOM     15  C   UNL     1       3.157   3.659  18.279  0.00  0.00    +0.000 A 
ATOM     16 BR   UNL     1       3.424   1.788  18.206  0.00  0.00    +0.000 Br
ATOM     17  C   UNL     1       1.923   4.195  17.913  0.00  0.00    +0.000 A 
ATOM     18  C   UNL     1       1.742   5.578  17.912  0.00  0.00    +0.000 A 
ENDBRANCH  11  12
ENDBRANCH   7  11
BRANCH   8  19
ATOM     19  C   UNL     1       1.237  10.746  18.167  0.00  0.00    +0.000 C 
BRANCH  19  20
ATOM     20  C   UNL     1       2.148  11.962  18.374  0.00  0.00    +0.000 C 
BRANCH  20  21
ATOM     21  C   UNL     1       1.415  13.306  18.424  0.00  0.00    +0.000 C 
BRANCH  21  22
ATOM     22  N   UNL     1       2.246  14.434  18.882  0.00  0.00    +0.000 NA
ATOM     23  C   UNL     1       3.338  14.730  17.952  0.00  0.00    +0.000 C 
ATOM     24  C   UNL     1       1.399  15.624  19.030  0.00  0.00    +0.000 C 
ENDBRANCH  21  22
ENDBRANCH  20  21
ENDBRANCH  19  20
ENDBRANCH   8  19
TORSDOF 6
ENDMDL
