MODEL 1
REMARK VINA RESULT:      -8.6      0.000      0.000
REMARK  Name = 
REMARK  3 active torsions:
REMARK  status: ('A' for Active; 'I' for Inactive)
REMARK    1  A    between atoms: C_4  and  N_5
REMARK    2  A    between atoms: C_14  and  C_15
REMARK    3  A    between atoms: C_16  and  C_17
REMARK                            x       y       z     vdW  Elec       q    Type
REMARK                         _______ _______ _______ _____ _____    ______ ____
ROOT
ATOM      1  O   UNL     1       5.627   3.127  15.348  0.00  0.00    +0.000 OA
ATOM      2  C   UNL     1       5.328   3.750  16.358  0.00  0.00    +0.000 A 
ATOM      3  C   UNL     1       4.284   3.266  17.267  0.00  0.00    +0.000 A 
ATOM      4  C   UNL     1       3.962   3.949  18.378  0.00  0.00    +0.000 A 
ATOM      5  O   UNL     1       4.631   5.122  18.741  0.00  0.00    +0.000 OA
ATOM      6  C   UNL     1       5.627   5.611  17.931  0.00  0.00    +0.000 A 
ATOM      7  C   UNL     1       6.287   6.774  18.339  0.00  0.00    +0.000 A 
ATOM      8  C   UNL     1       7.272   7.343  17.520  0.00  0.00    +0.000 A 
ATOM      9  C   UNL     1       7.586   6.749  16.290  0.00  0.00    +0.000 A 
ATOM     10  C   UNL     1       6.949   5.573  15.898  0.00  0.00    +0.000 A 
ATOM     11  C   UNL     1       5.982   5.006  16.731  0.00  0.00    +0.000 A 
ENDROOT
BRANCH   4  12
ATOM     12  N   UNL     1       2.969   3.535  19.264  0.00  0.00    +0.000 N 
ATOM     13  C   UNL     1       1.548   3.910  19.084  0.00  0.00    +0.000 C 
ATOM     14  C   UNL     1       0.897   4.193  20.446  0.00  0.00    +0.000 C 
ATOM     15  O   UNL     1       1.049   3.086  21.352  0.00  0.00    +0.000 OA
ATOM     16  C   UNL     1       2.441   2.794  21.547  0.00  0.00    +0.000 C 
ATOM     17  C   UNL     1       3.122   2.422  20.223  0.00  0.00    +0.000 C 
ENDBRANCH   4  12
BRANCH   8  18
ATOM     18  C   UNL     1       7.976   8.521  17.926  0.00  0.00    +0.000 C 
ATOM     19  C   UNL     1       8.563   9.498  18.305  0.00  0.00    +0.000 C 
BRANCH  19  20
ATOM     20  C   UNL     1       9.277  10.649  18.762  0.00  0.00    +0.000 A 
ATOM     21  C   UNL     1       9.495  11.721  17.894  0.00  0.00    +0.000 A 
ATOM     22  C   UNL     1      10.219  12.836  18.325  0.00  0.00    +0.000 A 
ATOM     23  C   UNL     1      10.720  12.882  19.625  0.00  0.00    +0.000 A 
ATOM     24  C   UNL     1      10.493  11.819  20.499  0.00  0.00    +0.000 A 
ATOM     25  C   UNL     1       9.770  10.704  20.069  0.00  0.00    +0.000 A 
ENDBRANCH  19  20
ENDBRANCH   8  18
TORSDOF 3
ENDMDL
MODEL 2
REMARK VINA RESULT:      -8.4      0.668      1.245
REMARK  Name = 
REMARK  3 active torsions:
REMARK  status: ('A' for Active; 'I' for Inactive)
REMARK    1  A    between atoms: C_4  and  N_5
REMARK    2  A    between atoms: C_14  and  C_15
REMARK    3  A    between atoms: C_16  and  C_17
REMARK                            x       y       z     vdW  Elec       q    Type
REMARK                         _______ _______ _______ _____ _____    ______ ____
ROOT
ATOM      1  O   UNL     1       5.711   3.272  15.082  0.00  0.00    +0.000 OA
ATOM      2  C   UNL     1       5.402   3.838  16.122  0.00  0.00    +0.000 A 
ATOM      3  C   UNL     1       4.322   3.326  16.972  0.00  0.00    +0.000 A 
ATOM      4  C   UNL     1       3.988   3.945  18.116  0.00  0.00    +0.000 A 
ATOM      5  O   UNL     1       4.677   5.073  18.570  0.00  0.00    +0.000 OA
ATOM      6  C   UNL     1       5.706   5.587  17.818  0.00  0.00    +0.000 A 
ATOM      7  C   UNL     1       6.385   6.702  18.317  0.00  0.00    +0.000 A 
ATOM      8  C   UNL     1       7.405   7.295  17.561  0.00  0.00    +0.000 A 
ATOM      9  C   UNL     1       7.737   6.772  16.304  0.00  0.00    +0.000 A 
ATOM     10  C   UNL     1       7.080   5.642  15.820  0.00  0.00    +0.000 A 
ATOM     11  C   UNL     1       6.077   5.049  16.591  0.00  0.00    +0.000 A 
ENDROOT
BRANCH   4  12
ATOM     12  N   UNL     1       2.961   3.503  18.949  0.00  0.00    +0.000 N 
ATOM     13  C   UNL     1       2.151   2.306  18.631  0.00  0.00    +0.000 C 
ATOM     14  C   UNL     1       0.686   2.535  19.032  0.00  0.00    +0.000 C 
ATOM     15  O   UNL     1       0.563   2.914  20.414  0.00  0.00    +0.000 OA
ATOM     16  C   UNL     1       1.313   4.111  20.667  0.00  0.00    +0.000 C 
ATOM     17  C   UNL     1       2.803   3.910  20.360  0.00  0.00    +0.000 C 
ENDBRANCH   4  12
BRANCH   8  18
ATOM     18  C   UNL     1       8.128   8.426  18.059  0.00  0.00    +0.000 C 
ATOM     19  C   UNL     1       8.727   9.393  18.444  0.00  0.00    +0.000 C 
BRANCH  19  20
ATOM     20  C   UNL     1       9.424  10.555  18.900  0.00  0.00    +0.000 A 
ATOM     21  C   UNL     1       9.522  10.812  20.270  0.00  0.00    +0.000 A 
ATOM     22  C   UNL     1      10.174  11.962  20.722  0.00  0.00    +0.000 A 
ATOM     23  C   UNL     1      10.733  12.852  19.806  0.00  0.00    +0.000 A 
ATOM     24  C   UNL     1      10.649  12.592  18.438  0.00  0.00    +0.000 A 
ATOM     25  C   UNL     1       9.997  11.443  17.985  0.00  0.00    +0.000 A 
ENDBRANCH  19  20
ENDBRANCH   8  18
TORSDOF 3
ENDMDL
MODEL 3
REMARK VINA RESULT:      -8.3      0.583      1.375
REMARK  Name = 
REMARK  3 active torsions:
REMARK  status: ('A' for Active; 'I' for Inactive)
REMARK    1  A    between atoms: C_4  and  N_5
REMARK    2  A    between atoms: C_14  and  C_15
REMARK    3  A    between atoms: C_16  and  C_17
REMARK                            x       y       z     vdW  Elec       q    Type
REMARK                         _______ _______ _______ _____ _____    ______ ____
ROOT
ATOM      1  O   UNL     1       5.671   3.213  15.306  0.00  0.00    +0.000 OA
ATOM      2  C   UNL     1       5.324   3.878  16.272  0.00  0.00    +0.000 A 
ATOM      3  C   UNL     1       4.182   3.476  17.100  0.00  0.00    +0.000 A 
ATOM      4  C   UNL     1       3.807   4.204  18.165  0.00  0.00    +0.000 A 
ATOM      5  O   UNL     1       4.508   5.349  18.557  0.00  0.00    +0.000 OA
ATOM      6  C   UNL     1       5.593   5.763  17.823  0.00  0.00    +0.000 A 
ATOM      7  C   UNL     1       6.281   6.899  18.260  0.00  0.00    +0.000 A 
ATOM      8  C   UNL     1       7.361   7.392  17.515  0.00  0.00    +0.000 A 
ATOM      9  C   UNL     1       7.743   6.749  16.330  0.00  0.00    +0.000 A 
ATOM     10  C   UNL     1       7.076   5.599  15.911  0.00  0.00    +0.000 A 
ATOM     11  C   UNL     1       6.013   5.107  16.671  0.00  0.00    +0.000 A 
ENDROOT
BRANCH   4  12
ATOM     12  N   UNL     1       2.722   3.868  18.972  0.00  0.00    +0.000 N 
ATOM     13  C   UNL     1       2.725   4.107  20.433  0.00  0.00    +0.000 C 
ATOM     14  C   UNL     1       2.025   2.950  21.161  0.00  0.00    +0.000 C 
ATOM     15  O   UNL     1       0.696   2.727  20.657  0.00  0.00    +0.000 OA
ATOM     16  C   UNL     1       0.742   2.440  19.252  0.00  0.00    +0.000 C 
ATOM     17  C   UNL     1       1.360   3.604  18.465  0.00  0.00    +0.000 C 
ENDBRANCH   4  12
BRANCH   8  18
ATOM     18  C   UNL     1       8.093   8.541  17.953  0.00  0.00    +0.000 C 
ATOM     19  C   UNL     1       8.677   9.515  18.343  0.00  0.00    +0.000 C 
BRANCH  19  20
ATOM     20  C   UNL     1       9.371  10.669  18.826  0.00  0.00    +0.000 A 
ATOM     21  C   UNL     1       9.666  10.781  20.186  0.00  0.00    +0.000 A 
ATOM     22  C   UNL     1      10.317  11.919  20.670  0.00  0.00    +0.000 A 
ATOM     23  C   UNL     1      10.677  12.942  19.794  0.00  0.00    +0.000 A 
ATOM     24  C   UNL     1      10.395  12.827  18.433  0.00  0.00    +0.000 A 
ATOM     25  C   UNL     1       9.745  11.690  17.948  0.00  0.00    +0.000 A 
ENDBRANCH  19  20
ENDBRANCH   8  18
TORSDOF 3
ENDMDL
MODEL 4
REMARK VINA RESULT:      -8.0      4.180      7.512
REMARK  Name = 
REMARK  3 active torsions:
REMARK  status: ('A' for Active; 'I' for Inactive)
REMARK    1  A    between atoms: C_4  and  N_5
REMARK    2  A    between atoms: C_14  and  C_15
REMARK    3  A    between atoms: C_16  and  C_17
REMARK                            x       y       z     vdW  Elec       q    Type
REMARK                         _______ _______ _______ _____ _____    ______ ____
ROOT
ATOM      1  O   UNL     1       2.650   1.764  19.031  0.00  0.00    +0.000 OA
ATOM      2  C   UNL     1       3.115   2.858  18.743  0.00  0.00    +0.000 A 
ATOM      3  C   UNL     1       4.210   2.986  17.775  0.00  0.00    +0.000 A 
ATOM      4  C   UNL     1       4.714   4.189  17.455  0.00  0.00    +0.000 A 
ATOM      5  O   UNL     1       4.195   5.371  17.992  0.00  0.00    +0.000 OA
ATOM      6  C   UNL     1       3.160   5.308  18.894  0.00  0.00    +0.000 A 
ATOM      7  C   UNL     1       2.654   6.513  19.391  0.00  0.00    +0.000 A 
ATOM      8  C   UNL     1       1.636   6.499  20.354  0.00  0.00    +0.000 A 
ATOM      9  C   UNL     1       1.133   5.277  20.821  0.00  0.00    +0.000 A 
ATOM     10  C   UNL     1       1.617   4.077  20.302  0.00  0.00    +0.000 A 
ATOM     11  C   UNL     1       2.619   4.104  19.330  0.00  0.00    +0.000 A 
ENDROOT
BRANCH   4  12
ATOM     12  N   UNL     1       5.762   4.359  16.552  0.00  0.00    +0.000 N 
ATOM     13  C   UNL     1       7.014   5.057  16.921  0.00  0.00    +0.000 C 
ATOM     14  C   UNL     1       7.517   5.902  15.742  0.00  0.00    +0.000 C 
ATOM     15  O   UNL     1       7.675   5.115  14.549  0.00  0.00    +0.000 OA
ATOM     16  C   UNL     1       6.427   4.504  14.190  0.00  0.00    +0.000 C 
ATOM     17  C   UNL     1       5.919   3.580  15.306  0.00  0.00    +0.000 C 
ENDBRANCH   4  12
BRANCH   8  18
ATOM     18  C   UNL     1       1.089   7.719  20.862  0.00  0.00    +0.000 C 
ATOM     19  C   UNL     1       0.658   8.763  21.272  0.00  0.00    +0.000 C 
BRANCH  19  20
ATOM     20  C   UNL     1       0.142  10.012  21.740  0.00  0.00    +0.000 A 
ATOM     21  C   UNL     1      -0.765  10.034  22.801  0.00  0.00    +0.000 A 
ATOM     22  C   UNL     1      -1.297  11.248  23.244  0.00  0.00    +0.000 A 
ATOM     23  C   UNL     1      -0.918  12.440  22.629  0.00  0.00    +0.000 A 
ATOM     24  C   UNL     1      -0.002  12.423  21.578  0.00  0.00    +0.000 A 
ATOM     25  C   UNL     1       0.531  11.211  21.134  0.00  0.00    +0.000 A 
ENDBRANCH  19  20
ENDBRANCH   8  18
TORSDOF 3
ENDMDL
MODEL 5
REMARK VINA RESULT:      -7.8      4.410      7.529
REMARK  Name = 
REMARK  3 active torsions:
REMARK  status: ('A' for Active; 'I' for Inactive)
REMARK    1  A    between atoms: C_4  and  N_5
REMARK    2  A    between atoms: C_14  and  C_15
REMARK    3  A    between atoms: C_16  and  C_17
REMARK                            x       y       z     vdW  Elec       q    Type
REMARK                         _______ _______ _______ _____ _____    ______ ____
ROOT
ATOM      1  O   UNL     1       2.949   2.125  18.987  0.00  0.00    +0.000 OA
ATOM      2  C   UNL     1       3.258   3.231  18.567  0.00  0.00    +0.000 A 
ATOM      3  C   UNL     1       4.145   3.382  17.408  0.00  0.00    +0.000 A 
ATOM      4  C   UNL     1       4.477   4.598  16.944  0.00  0.00    +0.000 A 
ATOM      5  O   UNL     1       3.963   5.769  17.512  0.00  0.00    +0.000 OA
ATOM      6  C   UNL     1       3.118   5.682  18.591  0.00  0.00    +0.000 A 
ATOM      7  C   UNL     1       2.607   6.873  19.117  0.00  0.00    +0.000 A 
ATOM      8  C   UNL     1       1.785   6.841  20.251  0.00  0.00    +0.000 A 
ATOM      9  C   UNL     1       1.482   5.616  20.860  0.00  0.00    +0.000 A 
ATOM     10  C   UNL     1       1.966   4.426  20.317  0.00  0.00    +0.000 A 
ATOM     11  C   UNL     1       2.770   4.470  19.177  0.00  0.00    +0.000 A 
ENDROOT
BRANCH   4  12
ATOM     12  N   UNL     1       5.326   4.792  15.856  0.00  0.00    +0.000 N 
ATOM     13  C   UNL     1       4.933   4.427  14.477  0.00  0.00    +0.000 C 
ATOM     14  C   UNL     1       6.135   3.849  13.717  0.00  0.00    +0.000 C 
ATOM     15  O   UNL     1       7.260   4.745  13.734  0.00  0.00    +0.000 OA
ATOM     16  C   UNL     1       7.649   5.025  15.087  0.00  0.00    +0.000 C 
ATOM     17  C   UNL     1       6.504   5.683  15.870  0.00  0.00    +0.000 C 
ENDBRANCH   4  12
BRANCH   8  18
ATOM     18  C   UNL     1       1.234   8.045  20.794  0.00  0.00    +0.000 C 
ATOM     19  C   UNL     1       0.745   9.055  21.222  0.00  0.00    +0.000 C 
BRANCH  19  20
ATOM     20  C   UNL     1       0.145  10.248  21.735  0.00  0.00    +0.000 A 
ATOM     21  C   UNL     1      -0.794  10.164  22.766  0.00  0.00    +0.000 A 
ATOM     22  C   UNL     1      -1.407  11.322  23.250  0.00  0.00    +0.000 A 
ATOM     23  C   UNL     1      -1.078  12.564  22.708  0.00  0.00    +0.000 A 
ATOM     24  C   UNL     1      -0.132  12.652  21.688  0.00  0.00    +0.000 A 
ATOM     25  C   UNL     1       0.481  11.495  21.202  0.00  0.00    +0.000 A 
ENDBRANCH  19  20
ENDBRANCH   8  18
TORSDOF 3
ENDMDL
MODEL 6
REMARK VINA RESULT:      -7.8      4.667      7.458
REMARK  Name = 
REMARK  3 active torsions:
REMARK  status: ('A' for Active; 'I' for Inactive)
REMARK    1  A    between atoms: C_4  and  N_5
REMARK    2  A    between atoms: C_14  and  C_15
REMARK    3  A    between atoms: C_16  and  C_17
REMARK                            x       y       z     vdW  Elec       q    Type
REMARK                         _______ _______ _______ _____ _____    ______ ____
ROOT
ATOM      1  O   UNL     1       3.610   1.852  18.779  0.00  0.00    +0.000 OA
ATOM      2  C   UNL     1       3.772   2.966  18.299  0.00  0.00    +0.000 A 
ATOM      3  C   UNL     1       4.535   3.155  17.061  0.00  0.00    +0.000 A 
ATOM      4  C   UNL     1       4.706   4.378  16.533  0.00  0.00    +0.000 A 
ATOM      5  O   UNL     1       4.131   5.516  17.110  0.00  0.00    +0.000 OA
ATOM      6  C   UNL     1       3.395   5.391  18.264  0.00  0.00    +0.000 A 
ATOM      7  C   UNL     1       2.819   6.548  18.797  0.00  0.00    +0.000 A 
ATOM      8  C   UNL     1       2.106   6.482  20.001  0.00  0.00    +0.000 A 
ATOM      9  C   UNL     1       1.978   5.257  20.671  0.00  0.00    +0.000 A 
ATOM     10  C   UNL     1       2.527   4.099  20.123  0.00  0.00    +0.000 A 
ATOM     11  C   UNL     1       3.221   4.175  18.914  0.00  0.00    +0.000 A 
ENDROOT
BRANCH   4  12
ATOM     12  N   UNL     1       5.434   4.609  15.367  0.00  0.00    +0.000 N 
ATOM     13  C   UNL     1       5.006   4.077  14.055  0.00  0.00    +0.000 C 
ATOM     14  C   UNL     1       6.228   3.628  13.240  0.00  0.00    +0.000 C 
ATOM     15  O   UNL     1       7.195   4.684  13.100  0.00  0.00    +0.000 OA
ATOM     16  C   UNL     1       7.629   5.130  14.393  0.00  0.00    +0.000 C 
ATOM     17  C   UNL     1       6.454   5.668  15.221  0.00  0.00    +0.000 C 
ENDBRANCH   4  12
BRANCH   8  18
ATOM     18  C   UNL     1       1.489   7.648  20.556  0.00  0.00    +0.000 C 
ATOM     19  C   UNL     1       0.937   8.609  21.018  0.00  0.00    +0.000 C 
BRANCH  19  20
ATOM     20  C   UNL     1       0.274   9.743  21.585  0.00  0.00    +0.000 A 
ATOM     21  C   UNL     1       0.453  11.007  21.018  0.00  0.00    +0.000 A 
ATOM     22  C   UNL     1      -0.167  12.123  21.584  0.00  0.00    +0.000 A 
ATOM     23  C   UNL     1      -0.971  11.976  22.714  0.00  0.00    +0.000 A 
ATOM     24  C   UNL     1      -1.162  10.713  23.275  0.00  0.00    +0.000 A 
ATOM     25  C   UNL     1      -0.543   9.597  22.710  0.00  0.00    +0.000 A 
ENDBRANCH  19  20
ENDBRANCH   8  18
TORSDOF 3
ENDMDL
MODEL 7
REMARK VINA RESULT:      -7.7      6.481      8.411
REMARK  Name = 
REMARK  3 active torsions:
REMARK  status: ('A' for Active; 'I' for Inactive)
REMARK    1  A    between atoms: C_4  and  N_5
REMARK    2  A    between atoms: C_14  and  C_15
REMARK    3  A    between atoms: C_16  and  C_17
REMARK                            x       y       z     vdW  Elec       q    Type
REMARK                         _______ _______ _______ _____ _____    ______ ____
ROOT
ATOM      1  O   UNL     1       2.993   8.360  16.798  0.00  0.00    +0.000 OA
ATOM      2  C   UNL     1       2.630   7.963  17.897  0.00  0.00    +0.000 A 
ATOM      3  C   UNL     1       3.009   6.633  18.386  0.00  0.00    +0.000 A 
ATOM      4  C   UNL     1       2.616   6.202  19.596  0.00  0.00    +0.000 A 
ATOM      5  O   UNL     1       1.869   7.010  20.458  0.00  0.00    +0.000 OA
ATOM      6  C   UNL     1       1.498   8.270  20.054  0.00  0.00    +0.000 A 
ATOM      7  C   UNL     1       0.771   9.056  20.953  0.00  0.00    +0.000 A 
ATOM      8  C   UNL     1       0.323  10.326  20.567  0.00  0.00    +0.000 A 
ATOM      9  C   UNL     1       0.599  10.803  19.278  0.00  0.00    +0.000 A 
ATOM     10  C   UNL     1       1.350  10.031  18.393  0.00  0.00    +0.000 A 
ATOM     11  C   UNL     1       1.807   8.774  18.795  0.00  0.00    +0.000 A 
ENDROOT
BRANCH   4  12
ATOM     12  N   UNL     1       2.940   4.942  20.097  0.00  0.00    +0.000 N 
ATOM     13  C   UNL     1       4.187   4.241  19.716  0.00  0.00    +0.000 C 
ATOM     14  C   UNL     1       3.924   2.735  19.566  0.00  0.00    +0.000 C 
ATOM     15  O   UNL     1       3.335   2.175  20.753  0.00  0.00    +0.000 OA
ATOM     16  C   UNL     1       2.099   2.840  21.053  0.00  0.00    +0.000 C 
ATOM     17  C   UNL     1       2.320   4.340  21.295  0.00  0.00    +0.000 C 
ENDBRANCH   4  12
BRANCH   8  18
ATOM     18  C   UNL     1      -0.405  11.157  21.477  0.00  0.00    +0.000 C 
ATOM     19  C   UNL     1      -1.047  11.854  22.215  0.00  0.00    +0.000 C 
BRANCH  19  20
ATOM     20  C   UNL     1      -1.824  12.669  23.096  0.00  0.00    +0.000 A 
ATOM     21  C   UNL     1      -3.101  12.254  23.481  0.00  0.00    +0.000 A 
ATOM     22  C   UNL     1      -3.878  13.059  24.316  0.00  0.00    +0.000 A 
ATOM     23  C   UNL     1      -3.378  14.279  24.771  0.00  0.00    +0.000 A 
ATOM     24  C   UNL     1      -2.099  14.691  24.400  0.00  0.00    +0.000 A 
ATOM     25  C   UNL     1      -1.320  13.886  23.565  0.00  0.00    +0.000 A 
ENDBRANCH  19  20
ENDBRANCH   8  18
TORSDOF 3
ENDMDL
MODEL 8
REMARK VINA RESULT:      -7.6      7.234      9.950
REMARK  Name = 
REMARK  3 active torsions:
REMARK  status: ('A' for Active; 'I' for Inactive)
REMARK    1  A    between atoms: C_4  and  N_5
REMARK    2  A    between atoms: C_14  and  C_15
REMARK    3  A    between atoms: C_16  and  C_17
REMARK                            x       y       z     vdW  Elec       q    Type
REMARK                         _______ _______ _______ _____ _____    ______ ____
ROOT
ATOM      1  O   UNL     1      -0.963  10.663  23.491  0.00  0.00    +0.000 OA
ATOM      2  C   UNL     1      -0.627  11.006  22.366  0.00  0.00    +0.000 A 
ATOM      3  C   UNL     1      -0.943  12.344  21.854  0.00  0.00    +0.000 A 
ATOM      4  C   UNL     1      -0.567  12.721  20.621  0.00  0.00    +0.000 A 
ATOM      5  O   UNL     1       0.177  11.878  19.789  0.00  0.00    +0.000 OA
ATOM      6  C   UNL     1       0.512  10.619  20.225  0.00  0.00    +0.000 A 
ATOM      7  C   UNL     1       1.275   9.815  19.373  0.00  0.00    +0.000 A 
ATOM      8  C   UNL     1       1.594   8.504  19.750  0.00  0.00    +0.000 A 
ATOM      9  C   UNL     1       1.142   8.000  20.977  0.00  0.00    +0.000 A 
ATOM     10  C   UNL     1       0.407   8.812  21.839  0.00  0.00    +0.000 A 
ATOM     11  C   UNL     1       0.110  10.123  21.460  0.00  0.00    +0.000 A 
ENDROOT
BRANCH   4  12
ATOM     12  N   UNL     1      -0.856  13.975  20.087  0.00  0.00    +0.000 N 
ATOM     13  C   UNL     1      -0.333  14.411  18.773  0.00  0.00    +0.000 C 
ATOM     14  C   UNL     1       0.041  15.900  18.817  0.00  0.00    +0.000 C 
ATOM     15  O   UNL     1      -1.062  16.715  19.252  0.00  0.00    +0.000 OA
ATOM     16  C   UNL     1      -1.500  16.301  20.555  0.00  0.00    +0.000 C 
ATOM     17  C   UNL     1      -1.964  14.838  20.547  0.00  0.00    +0.000 C 
ENDBRANCH   4  12
BRANCH   8  18
ATOM     18  C   UNL     1       2.391   7.669  18.904  0.00  0.00    +0.000 C 
ATOM     19  C   UNL     1       3.058   6.940  18.221  0.00  0.00    +0.000 C 
BRANCH  19  20
ATOM     20  C   UNL     1       3.837   6.059  17.407  0.00  0.00    +0.000 A 
ATOM     21  C   UNL     1       4.741   6.587  16.482  0.00  0.00    +0.000 A 
ATOM     22  C   UNL     1       5.482   5.733  15.661  0.00  0.00    +0.000 A 
ATOM     23  C   UNL     1       5.324   4.352  15.769  0.00  0.00    +0.000 A 
ATOM     24  C   UNL     1       4.432   3.821  16.700  0.00  0.00    +0.000 A 
ATOM     25  C   UNL     1       3.690   4.674  17.521  0.00  0.00    +0.000 A 
ENDBRANCH  19  20
ENDBRANCH   8  18
TORSDOF 3
ENDMDL
MODEL 9
REMARK VINA RESULT:      -7.4      5.251      7.287
REMARK  Name = 
REMARK  3 active torsions:
REMARK  status: ('A' for Active; 'I' for Inactive)
REMARK    1  A    between atoms: C_4  and  N_5
REMARK    2  A    between atoms: C_14  and  C_15
REMARK    3  A    between atoms: C_16  and  C_17
REMARK                            x       y       z     vdW  Elec       q    Type
REMARK                         _______ _______ _______ _____ _____    ______ ____
ROOT
ATOM      1  O   UNL     1       1.807   3.884  21.716  0.00  0.00    +0.000 OA
ATOM      2  C   UNL     1       1.960   4.843  20.973  0.00  0.00    +0.000 A 
ATOM      3  C   UNL     1       1.458   6.172  21.336  0.00  0.00    +0.000 A 
ATOM      4  C   UNL     1       1.633   7.226  20.522  0.00  0.00    +0.000 A 
ATOM      5  O   UNL     1       2.336   7.116  19.317  0.00  0.00    +0.000 OA
ATOM      6  C   UNL     1       2.839   5.896  18.936  0.00  0.00    +0.000 A 
ATOM      7  C   UNL     1       3.555   5.831  17.737  0.00  0.00    +0.000 A 
ATOM      8  C   UNL     1       4.040   4.600  17.278  0.00  0.00    +0.000 A 
ATOM      9  C   UNL     1       3.801   3.435  18.019  0.00  0.00    +0.000 A 
ATOM     10  C   UNL     1       3.113   3.504  19.230  0.00  0.00    +0.000 A 
ATOM     11  C   UNL     1       2.650   4.740  19.685  0.00  0.00    +0.000 A 
ENDROOT
BRANCH   4  12
ATOM     12  N   UNL     1       1.162   8.504  20.818  0.00  0.00    +0.000 N 
ATOM     13  C   UNL     1       1.205   9.059  22.189  0.00  0.00    +0.000 C 
ATOM     14  C   UNL     1      -0.058   9.889  22.465  0.00  0.00    +0.000 C 
ATOM     15  O   UNL     1      -0.250  10.916  21.477  0.00  0.00    +0.000 OA
ATOM     16  C   UNL     1      -0.347  10.331  20.169  0.00  0.00    +0.000 C 
ATOM     17  C   UNL     1       0.928   9.557  19.809  0.00  0.00    +0.000 C 
ENDBRANCH   4  12
BRANCH   8  18
ATOM     18  C   UNL     1       4.793   4.512  16.064  0.00  0.00    +0.000 C 
ATOM     19  C   UNL     1       5.404   4.406  15.035  0.00  0.00    +0.000 C 
BRANCH  19  20
ATOM     20  C   UNL     1       6.115   4.283  13.801  0.00  0.00    +0.000 A 
ATOM     21  C   UNL     1       5.728   3.315  12.871  0.00  0.00    +0.000 A 
ATOM     22  C   UNL     1       6.437   3.168  11.676  0.00  0.00    +0.000 A 
ATOM     23  C   UNL     1       7.530   3.991  11.409  0.00  0.00    +0.000 A 
ATOM     24  C   UNL     1       7.912   4.967  12.329  0.00  0.00    +0.000 A 
ATOM     25  C   UNL     1       7.204   5.115  13.524  0.00  0.00    +0.000 A 
ENDBRANCH  19  20
ENDBRANCH   8  18
TORSDOF 3
ENDMDL
