MODEL 1
REMARK VINA RESULT:      -6.5      0.000      0.000
REMARK  Name = 
REMARK  13 active torsions:
REMARK  status: ('A' for Active; 'I' for Inactive)
REMARK    1  A    between atoms: C_1  and  C_2
REMARK    2  A    between atoms: C_2  and  O_4
REMARK    3  A    between atoms: O_4  and  C_5
REMARK    4  A    between atoms: C_5  and  C_6
REMARK    5  A    between atoms: C_8  and  C_9
REMARK    6  A    between atoms: C_9  and  C_10
REMARK    7  A    between atoms: C_10  and  O_11
REMARK    8  A    between atoms: O_11  and  N_12
REMARK    9  A    between atoms: C_13  and  C_14
REMARK   10  A    between atoms: C_13  and  C_15
REMARK   11  A    between atoms: C_18  and  O_19
REMARK   12  A    between atoms: O_19  and  C_20
REMARK   13  A    between atoms: C_20  and  C_21
REMARK                            x       y       z     vdW  Elec       q    Type
REMARK                         _______ _______ _______ _____ _____    ______ ____
ROOT
ATOM      1  C   UNL     1       3.741   5.737  18.948  0.00  0.00    +0.000 C 
ATOM      2  O   UNL     1       4.147   5.885  17.576  0.00  0.00    +0.000 OA
ATOM      3  C   UNL     1       5.201   5.008  17.170  0.00  0.00    +0.000 C 
ATOM      4  C   UNL     1       4.959   3.597  17.645  0.00  0.00    +0.000 C 
ATOM      5  C   UNL     1       4.016   3.278  18.544  0.00  0.00    +0.000 C 
ATOM      6  C   UNL     1       3.151   4.326  19.197  0.00  0.00    +0.000 C 
ENDROOT
BRANCH   1   7
ATOM      7  C   UNL     1       2.733   6.862  19.210  0.00  0.00    +0.000 C 
BRANCH   7   8
ATOM      8  O   UNL     1       2.528   7.658  18.018  0.00  0.00    +0.000 OA
BRANCH   8  10
ATOM      9  C   UNL     1       1.299   8.932  19.558  0.00  0.00    +0.000 C 
ATOM     10  C   UNL     1       1.956   8.875  18.210  0.00  0.00    +0.000 C 
ATOM     11  O   UNL     1       1.945   9.784  17.395  0.00  0.00    +0.000 OA
ENDBRANCH   8  10
ENDBRANCH   7   8
ENDBRANCH   1   7
BRANCH   3  12
ATOM     12  C   UNL     1       5.231   5.088  15.644  0.00  0.00    +0.000 C 
BRANCH  12  13
ATOM     13  C   UNL     1       6.653   4.950  15.103  0.00  0.00    +0.000 C 
BRANCH  13  14
ATOM     14  O   UNL     1       6.650   3.917  14.113  0.00  0.00    +0.000 OA
BRANCH  14  15
ATOM     15  N   UNL     1       5.415   3.934  13.454  0.00  0.00    +0.000 NA
ATOM     16  C   UNL     1       5.485   3.359  12.292  0.00  0.00    +0.000 C 
ATOM     17  C   UNL     1       6.721   2.729  11.695  0.00  0.00    +0.000 C 
ATOM     18  C   UNL     1       4.228   3.296  11.460  0.00  0.00    +0.000 C 
ENDBRANCH  14  15
ENDBRANCH  13  14
ENDBRANCH  12  13
ENDBRANCH   3  12
BRANCH   6  19
ATOM     19  O   UNL     1       1.833   4.172  18.627  0.00  0.00    +0.000 OA
BRANCH  19  20
ATOM     20  C   UNL     1       1.085   3.151  19.111  0.00  0.00    +0.000 C 
ATOM     21  C   UNL     1       0.965   3.211  20.604  0.00  0.00    +0.000 C 
ATOM     22  O   UNL     1       0.535   2.291  18.431  0.00  0.00    +0.000 OA
ENDBRANCH  19  20
ENDBRANCH   6  19
TORSDOF 9
ENDMDL
MODEL 2
REMARK VINA RESULT:      -6.5      2.714      6.899
REMARK  Name = 
REMARK  13 active torsions:
REMARK  status: ('A' for Active; 'I' for Inactive)
REMARK    1  A    between atoms: C_1  and  C_2
REMARK    2  A    between atoms: C_2  and  O_4
REMARK    3  A    between atoms: O_4  and  C_5
REMARK    4  A    between atoms: C_5  and  C_6
REMARK    5  A    between atoms: C_8  and  C_9
REMARK    6  A    between atoms: C_9  and  C_10
REMARK    7  A    between atoms: C_10  and  O_11
REMARK    8  A    between atoms: O_11  and  N_12
REMARK    9  A    between atoms: C_13  and  C_14
REMARK   10  A    between atoms: C_13  and  C_15
REMARK   11  A    between atoms: C_18  and  O_19
REMARK   12  A    between atoms: O_19  and  C_20
REMARK   13  A    between atoms: C_20  and  C_21
REMARK                            x       y       z     vdW  Elec       q    Type
REMARK                         _______ _______ _______ _____ _____    ______ ____
ROOT
ATOM      1  C   UNL     1       4.562   3.495  17.286  0.00  0.00    +0.000 C 
ATOM      2  O   UNL     1       3.174   3.818  17.482  0.00  0.00    +0.000 OA
ATOM      3  C   UNL     1       2.512   3.024  18.469  0.00  0.00    +0.000 C 
ATOM      4  C   UNL     1       3.347   2.885  19.718  0.00  0.00    +0.000 C 
ATOM      5  C   UNL     1       4.638   3.245  19.780  0.00  0.00    +0.000 C 
ATOM      6  C   UNL     1       5.377   3.770  18.575  0.00  0.00    +0.000 C 
ENDROOT
BRANCH   1   7
ATOM      7  C   UNL     1       5.024   4.341  16.094  0.00  0.00    +0.000 C 
BRANCH   7   8
ATOM      8  O   UNL     1       6.326   3.911  15.631  0.00  0.00    +0.000 OA
BRANCH   8  10
ATOM      9  C   UNL     1       6.194   3.835  13.289  0.00  0.00    +0.000 C 
ATOM     10  C   UNL     1       6.779   4.507  14.497  0.00  0.00    +0.000 C 
ATOM     11  O   UNL     1       7.572   5.434  14.458  0.00  0.00    +0.000 OA
ENDBRANCH   8  10
ENDBRANCH   7   8
ENDBRANCH   1   7
BRANCH   3  12
ATOM     12  C   UNL     1       1.194   3.743  18.753  0.00  0.00    +0.000 C 
BRANCH  12  13
ATOM     13  C   UNL     1       1.241   4.498  20.080  0.00  0.00    +0.000 C 
BRANCH  13  14
ATOM     14  O   UNL     1       1.895   5.749  19.854  0.00  0.00    +0.000 OA
BRANCH  14  15
ATOM     15  N   UNL     1       1.552   6.626  20.890  0.00  0.00    +0.000 NA
ATOM     16  C   UNL     1       1.557   7.863  20.493  0.00  0.00    +0.000 C 
ATOM     17  C   UNL     1       1.874   8.335  19.094  0.00  0.00    +0.000 C 
ATOM     18  C   UNL     1       1.203   8.928  21.500  0.00  0.00    +0.000 C 
ENDBRANCH  14  15
ENDBRANCH  13  14
ENDBRANCH  12  13
ENDBRANCH   3  12
BRANCH   6  19
ATOM     19  O   UNL     1       5.578   5.181  18.810  0.00  0.00    +0.000 OA
BRANCH  19  20
ATOM     20  C   UNL     1       6.845   5.569  19.095  0.00  0.00    +0.000 C 
ATOM     21  C   UNL     1       7.437   6.386  17.986  0.00  0.00    +0.000 C 
ATOM     22  O   UNL     1       7.443   5.323  20.137  0.00  0.00    +0.000 OA
ENDBRANCH  19  20
ENDBRANCH   6  19
TORSDOF 9
ENDMDL
MODEL 3
REMARK VINA RESULT:      -6.5      2.105      4.537
REMARK  Name = 
REMARK  13 active torsions:
REMARK  status: ('A' for Active; 'I' for Inactive)
REMARK    1  A    between atoms: C_1  and  C_2
REMARK    2  A    between atoms: C_2  and  O_4
REMARK    3  A    between atoms: O_4  and  C_5
REMARK    4  A    between atoms: C_5  and  C_6
REMARK    5  A    between atoms: C_8  and  C_9
REMARK    6  A    between atoms: C_9  and  C_10
REMARK    7  A    between atoms: C_10  and  O_11
REMARK    8  A    between atoms: O_11  and  N_12
REMARK    9  A    between atoms: C_13  and  C_14
REMARK   10  A    between atoms: C_13  and  C_15
REMARK   11  A    between atoms: C_18  and  O_19
REMARK   12  A    between atoms: O_19  and  C_20
REMARK   13  A    between atoms: C_20  and  C_21
REMARK                            x       y       z     vdW  Elec       q    Type
REMARK                         _______ _______ _______ _____ _____    ______ ____
ROOT
ATOM      1  C   UNL     1       2.624   5.452  19.353  0.00  0.00    +0.000 C 
ATOM      2  O   UNL     1       4.005   5.278  19.714  0.00  0.00    +0.000 OA
ATOM      3  C   UNL     1       4.922   5.374  18.622  0.00  0.00    +0.000 C 
ATOM      4  C   UNL     1       4.608   6.555  17.738  0.00  0.00    +0.000 C 
ATOM      5  C   UNL     1       3.468   7.256  17.830  0.00  0.00    +0.000 C 
ATOM      6  C   UNL     1       2.377   6.878  18.799  0.00  0.00    +0.000 C 
ENDROOT
BRANCH   1   7
ATOM      7  C   UNL     1       1.818   5.156  20.623  0.00  0.00    +0.000 C 
BRANCH   7   8
ATOM      8  O   UNL     1       0.931   4.030  20.420  0.00  0.00    +0.000 OA
BRANCH   8  10
ATOM      9  C   UNL     1       1.672   1.992  19.524  0.00  0.00    +0.000 C 
ATOM     10  C   UNL     1       1.432   2.813  20.757  0.00  0.00    +0.000 C 
ATOM     11  O   UNL     1       1.629   2.424  21.897  0.00  0.00    +0.000 OA
ENDBRANCH   8  10
ENDBRANCH   7   8
ENDBRANCH   1   7
BRANCH   3  12
ATOM     12  C   UNL     1       6.305   5.504  19.261  0.00  0.00    +0.000 C 
BRANCH  12  13
ATOM     13  C   UNL     1       7.417   5.191  18.262  0.00  0.00    +0.000 C 
BRANCH  13  14
ATOM     14  O   UNL     1       6.848   4.436  17.189  0.00  0.00    +0.000 OA
BRANCH  14  15
ATOM     15  N   UNL     1       7.518   4.768  16.005  0.00  0.00    +0.000 NA
ATOM     16  C   UNL     1       6.760   4.604  14.963  0.00  0.00    +0.000 C 
ATOM     17  C   UNL     1       5.326   4.130  14.986  0.00  0.00    +0.000 C 
ATOM     18  C   UNL     1       7.343   4.925  13.610  0.00  0.00    +0.000 C 
ENDBRANCH  14  15
ENDBRANCH  13  14
ENDBRANCH  12  13
ENDBRANCH   3  12
BRANCH   6  19
ATOM     19  O   UNL     1       2.393   7.883  19.836  0.00  0.00    +0.000 OA
BRANCH  19  20
ATOM     20  C   UNL     1       1.326   8.717  19.882  0.00  0.00    +0.000 C 
ATOM     21  C   UNL     1       0.640   8.666  21.214  0.00  0.00    +0.000 C 
ATOM     22  O   UNL     1       0.965   9.456  18.973  0.00  0.00    +0.000 OA
ENDBRANCH  19  20
ENDBRANCH   6  19
TORSDOF 9
ENDMDL
MODEL 4
REMARK VINA RESULT:      -6.5      2.055      4.467
REMARK  Name = 
REMARK  13 active torsions:
REMARK  status: ('A' for Active; 'I' for Inactive)
REMARK    1  A    between atoms: C_1  and  C_2
REMARK    2  A    between atoms: C_2  and  O_4
REMARK    3  A    between atoms: O_4  and  C_5
REMARK    4  A    between atoms: C_5  and  C_6
REMARK    5  A    between atoms: C_8  and  C_9
REMARK    6  A    between atoms: C_9  and  C_10
REMARK    7  A    between atoms: C_10  and  O_11
REMARK    8  A    between atoms: O_11  and  N_12
REMARK    9  A    between atoms: C_13  and  C_14
REMARK   10  A    between atoms: C_13  and  C_15
REMARK   11  A    between atoms: C_18  and  O_19
REMARK   12  A    between atoms: O_19  and  C_20
REMARK   13  A    between atoms: C_20  and  C_21
REMARK                            x       y       z     vdW  Elec       q    Type
REMARK                         _______ _______ _______ _____ _____    ______ ____
ROOT
ATOM      1  C   UNL     1       2.576   5.525  19.315  0.00  0.00    +0.000 C 
ATOM      2  O   UNL     1       3.965   5.315  19.623  0.00  0.00    +0.000 OA
ATOM      3  C   UNL     1       4.840   5.375  18.494  0.00  0.00    +0.000 C 
ATOM      4  C   UNL     1       4.523   6.557  17.611  0.00  0.00    +0.000 C 
ATOM      5  C   UNL     1       3.407   7.291  17.742  0.00  0.00    +0.000 C 
ATOM      6  C   UNL     1       2.346   6.952  18.757  0.00  0.00    +0.000 C 
ENDROOT
BRANCH   1   7
ATOM      7  C   UNL     1       1.814   5.263  20.620  0.00  0.00    +0.000 C 
BRANCH   7   8
ATOM      8  O   UNL     1       0.768   4.283  20.417  0.00  0.00    +0.000 OA
BRANCH   8  10
ATOM      9  C   UNL     1       1.775   2.540  21.623  0.00  0.00    +0.000 C 
ATOM     10  C   UNL     1       1.176   2.991  20.323  0.00  0.00    +0.000 C 
ATOM     11  O   UNL     1       1.101   2.300  19.319  0.00  0.00    +0.000 OA
ENDBRANCH   8  10
ENDBRANCH   7   8
ENDBRANCH   1   7
BRANCH   3  12
ATOM     12  C   UNL     1       6.250   5.472  19.076  0.00  0.00    +0.000 C 
BRANCH  12  13
ATOM     13  C   UNL     1       7.278   5.823  18.002  0.00  0.00    +0.000 C 
BRANCH  13  14
ATOM     14  O   UNL     1       7.574   4.634  17.267  0.00  0.00    +0.000 OA
BRANCH  14  15
ATOM     15  N   UNL     1       7.631   4.953  15.905  0.00  0.00    +0.000 NA
ATOM     16  C   UNL     1       6.698   4.351  15.232  0.00  0.00    +0.000 C 
ATOM     17  C   UNL     1       5.654   3.426  15.811  0.00  0.00    +0.000 C 
ATOM     18  C   UNL     1       6.628   4.599  13.746  0.00  0.00    +0.000 C 
ENDBRANCH  14  15
ENDBRANCH  13  14
ENDBRANCH  12  13
ENDBRANCH   3  12
BRANCH   6  19
ATOM     19  O   UNL     1       2.432   7.965  19.783  0.00  0.00    +0.000 OA
BRANCH  19  20
ATOM     20  C   UNL     1       1.307   8.685  20.012  0.00  0.00    +0.000 C 
ATOM     21  C   UNL     1       1.051   9.677  18.917  0.00  0.00    +0.000 C 
ATOM     22  O   UNL     1       0.556   8.540  20.971  0.00  0.00    +0.000 OA
ENDBRANCH  19  20
ENDBRANCH   6  19
TORSDOF 9
ENDMDL
MODEL 5
REMARK VINA RESULT:      -6.4      3.179      6.567
REMARK  Name = 
REMARK  13 active torsions:
REMARK  status: ('A' for Active; 'I' for Inactive)
REMARK    1  A    between atoms: C_1  and  C_2
REMARK    2  A    between atoms: C_2  and  O_4
REMARK    3  A    between atoms: O_4  and  C_5
REMARK    4  A    between atoms: C_5  and  C_6
REMARK    5  A    between atoms: C_8  and  C_9
REMARK    6  A    between atoms: C_9  and  C_10
REMARK    7  A    between atoms: C_10  and  O_11
REMARK    8  A    between atoms: O_11  and  N_12
REMARK    9  A    between atoms: C_13  and  C_14
REMARK   10  A    between atoms: C_13  and  C_15
REMARK   11  A    between atoms: C_18  and  O_19
REMARK   12  A    between atoms: O_19  and  C_20
REMARK   13  A    between atoms: C_20  and  C_21
REMARK                            x       y       z     vdW  Elec       q    Type
REMARK                         _______ _______ _______ _____ _____    ______ ____
ROOT
ATOM      1  C   UNL     1       6.245   5.253  18.136  0.00  0.00    +0.000 C 
ATOM      2  O   UNL     1       5.870   4.036  18.804  0.00  0.00    +0.000 OA
ATOM      3  C   UNL     1       4.466   3.766  18.805  0.00  0.00    +0.000 C 
ATOM      4  C   UNL     1       3.859   3.993  17.442  0.00  0.00    +0.000 C 
ATOM      5  C   UNL     1       4.509   4.611  16.444  0.00  0.00    +0.000 C 
ATOM      6  C   UNL     1       5.892   5.182  16.629  0.00  0.00    +0.000 C 
ENDROOT
BRANCH   1   7
ATOM      7  C   UNL     1       7.747   5.425  18.391  0.00  0.00    +0.000 C 
BRANCH   7   8
ATOM      8  O   UNL     1       8.041   6.764  18.855  0.00  0.00    +0.000 OA
BRANCH   8  10
ATOM      9  C   UNL     1       8.471   9.044  18.506  0.00  0.00    +0.000 C 
ATOM     10  C   UNL     1       8.114   7.721  17.893  0.00  0.00    +0.000 C 
ATOM     11  O   UNL     1       7.890   7.545  16.707  0.00  0.00    +0.000 OA
ENDBRANCH   8  10
ENDBRANCH   7   8
ENDBRANCH   1   7
BRANCH   3  12
ATOM     12  C   UNL     1       4.332   2.308  19.243  0.00  0.00    +0.000 C 
BRANCH  12  13
ATOM     13  C   UNL     1       3.177   1.611  18.526  0.00  0.00    +0.000 C 
BRANCH  13  14
ATOM     14  O   UNL     1       2.051   1.601  19.407  0.00  0.00    +0.000 OA
BRANCH  14  15
ATOM     15  N   UNL     1       1.385   2.827  19.292  0.00  0.00    +0.000 NA
ATOM     16  C   UNL     1       1.309   3.441  20.433  0.00  0.00    +0.000 C 
ATOM     17  C   UNL     1       1.870   2.936  21.742  0.00  0.00    +0.000 C 
ATOM     18  C   UNL     1       0.618   4.782  20.469  0.00  0.00    +0.000 C 
ENDBRANCH  14  15
ENDBRANCH  13  14
ENDBRANCH  12  13
ENDBRANCH   3  12
BRANCH   6  19
ATOM     19  O   UNL     1       6.786   4.319  15.893  0.00  0.00    +0.000 OA
BRANCH  19  20
ATOM     20  C   UNL     1       7.019   4.656  14.601  0.00  0.00    +0.000 C 
ATOM     21  C   UNL     1       6.189   3.839  13.657  0.00  0.00    +0.000 C 
ATOM     22  O   UNL     1       7.783   5.540  14.226  0.00  0.00    +0.000 OA
ENDBRANCH  19  20
ENDBRANCH   6  19
TORSDOF 9
ENDMDL
MODEL 6
REMARK VINA RESULT:      -6.4      2.757      6.958
REMARK  Name = 
REMARK  13 active torsions:
REMARK  status: ('A' for Active; 'I' for Inactive)
REMARK    1  A    between atoms: C_1  and  C_2
REMARK    2  A    between atoms: C_2  and  O_4
REMARK    3  A    between atoms: O_4  and  C_5
REMARK    4  A    between atoms: C_5  and  C_6
REMARK    5  A    between atoms: C_8  and  C_9
REMARK    6  A    between atoms: C_9  and  C_10
REMARK    7  A    between atoms: C_10  and  O_11
REMARK    8  A    between atoms: O_11  and  N_12
REMARK    9  A    between atoms: C_13  and  C_14
REMARK   10  A    between atoms: C_13  and  C_15
REMARK   11  A    between atoms: C_18  and  O_19
REMARK   12  A    between atoms: O_19  and  C_20
REMARK   13  A    between atoms: C_20  and  C_21
REMARK                            x       y       z     vdW  Elec       q    Type
REMARK                         _______ _______ _______ _____ _____    ______ ____
ROOT
ATOM      1  C   UNL     1       4.716   4.999  17.075  0.00  0.00    +0.000 C 
ATOM      2  O   UNL     1       3.443   5.344  17.649  0.00  0.00    +0.000 OA
ATOM      3  C   UNL     1       2.781   4.268  18.319  0.00  0.00    +0.000 C 
ATOM      4  C   UNL     1       3.730   3.505  19.209  0.00  0.00    +0.000 C 
ATOM      5  C   UNL     1       5.061   3.664  19.169  0.00  0.00    +0.000 C 
ATOM      6  C   UNL     1       5.723   4.589  18.179  0.00  0.00    +0.000 C 
ENDROOT
BRANCH   1   7
ATOM      7  C   UNL     1       5.165   6.232  16.283  0.00  0.00    +0.000 C 
BRANCH   7   8
ATOM      8  O   UNL     1       5.458   5.884  14.909  0.00  0.00    +0.000 OA
BRANCH   8  10
ATOM      9  C   UNL     1       6.210   3.919  13.871  0.00  0.00    +0.000 C 
ATOM     10  C   UNL     1       6.557   5.110  14.715  0.00  0.00    +0.000 C 
ATOM     11  O   UNL     1       7.663   5.327  15.184  0.00  0.00    +0.000 OA
ENDBRANCH   8  10
ENDBRANCH   7   8
ENDBRANCH   1   7
BRANCH   3  12
ATOM     12  C   UNL     1       1.657   4.919  19.124  0.00  0.00    +0.000 C 
BRANCH  12  13
ATOM     13  C   UNL     1       2.038   5.077  20.594  0.00  0.00    +0.000 C 
BRANCH  13  14
ATOM     14  O   UNL     1       1.621   6.375  21.023  0.00  0.00    +0.000 OA
BRANCH  14  15
ATOM     15  N   UNL     1       1.833   7.280  19.975  0.00  0.00    +0.000 NA
ATOM     16  C   UNL     1       1.291   8.434  20.222  0.00  0.00    +0.000 C 
ATOM     17  C   UNL     1       0.531   8.798  21.475  0.00  0.00    +0.000 C 
ATOM     18  C   UNL     1       1.436   9.518  19.183  0.00  0.00    +0.000 C 
ENDBRANCH  14  15
ENDBRANCH  13  14
ENDBRANCH  12  13
ENDBRANCH   3  12
BRANCH   6  19
ATOM     19  O   UNL     1       6.197   5.720  18.941  0.00  0.00    +0.000 OA
BRANCH  19  20
ATOM     20  C   UNL     1       7.542   5.861  19.033  0.00  0.00    +0.000 C 
ATOM     21  C   UNL     1       8.017   7.109  18.350  0.00  0.00    +0.000 C 
ATOM     22  O   UNL     1       8.296   5.096  19.625  0.00  0.00    +0.000 OA
ENDBRANCH  19  20
ENDBRANCH   6  19
TORSDOF 9
ENDMDL
MODEL 7
REMARK VINA RESULT:      -6.4      2.236      3.494
REMARK  Name = 
REMARK  13 active torsions:
REMARK  status: ('A' for Active; 'I' for Inactive)
REMARK    1  A    between atoms: C_1  and  C_2
REMARK    2  A    between atoms: C_2  and  O_4
REMARK    3  A    between atoms: O_4  and  C_5
REMARK    4  A    between atoms: C_5  and  C_6
REMARK    5  A    between atoms: C_8  and  C_9
REMARK    6  A    between atoms: C_9  and  C_10
REMARK    7  A    between atoms: C_10  and  O_11
REMARK    8  A    between atoms: O_11  and  N_12
REMARK    9  A    between atoms: C_13  and  C_14
REMARK   10  A    between atoms: C_13  and  C_15
REMARK   11  A    between atoms: C_18  and  O_19
REMARK   12  A    between atoms: O_19  and  C_20
REMARK   13  A    between atoms: C_20  and  C_21
REMARK                            x       y       z     vdW  Elec       q    Type
REMARK                         _______ _______ _______ _____ _____    ______ ____
ROOT
ATOM      1  C   UNL     1       3.535   5.899  19.464  0.00  0.00    +0.000 C 
ATOM      2  O   UNL     1       3.863   6.003  18.068  0.00  0.00    +0.000 OA
ATOM      3  C   UNL     1       4.983   5.214  17.659  0.00  0.00    +0.000 C 
ATOM      4  C   UNL     1       4.910   3.817  18.224  0.00  0.00    +0.000 C 
ATOM      5  C   UNL     1       4.045   3.460  19.186  0.00  0.00    +0.000 C 
ATOM      6  C   UNL     1       3.106   4.453  19.821  0.00  0.00    +0.000 C 
ENDROOT
BRANCH   1   7
ATOM      7  C   UNL     1       2.429   6.930  19.713  0.00  0.00    +0.000 C 
BRANCH   7   8
ATOM      8  O   UNL     1       2.369   7.892  18.633  0.00  0.00    +0.000 OA
BRANCH   8  10
ATOM      9  C   UNL     1       1.979  10.079  17.877  0.00  0.00    +0.000 C 
ATOM     10  C   UNL     1       1.641   9.013  18.878  0.00  0.00    +0.000 C 
ATOM     11  O   UNL     1       0.849   9.151  19.796  0.00  0.00    +0.000 OA
ENDBRANCH   8  10
ENDBRANCH   7   8
ENDBRANCH   1   7
BRANCH   3  12
ATOM     12  C   UNL     1       4.937   5.203  16.131  0.00  0.00    +0.000 C 
BRANCH  12  13
ATOM     13  C   UNL     1       6.340   5.220  15.528  0.00  0.00    +0.000 C 
BRANCH  13  14
ATOM     14  O   UNL     1       7.267   5.521  16.573  0.00  0.00    +0.000 OA
BRANCH  14  15
ATOM     15  N   UNL     1       7.505   6.900  16.575  0.00  0.00    +0.000 NA
ATOM     16  C   UNL     1       7.847   7.326  17.754  0.00  0.00    +0.000 C 
ATOM     17  C   UNL     1       7.993   6.470  18.989  0.00  0.00    +0.000 C 
ATOM     18  C   UNL     1       8.139   8.797  17.915  0.00  0.00    +0.000 C 
ENDBRANCH  14  15
ENDBRANCH  13  14
ENDBRANCH  12  13
ENDBRANCH   3  12
BRANCH   6  19
ATOM     19  O   UNL     1       1.787   4.133  19.328  0.00  0.00    +0.000 OA
BRANCH  19  20
ATOM     20  C   UNL     1       1.181   3.057  19.888  0.00  0.00    +0.000 C 
ATOM     21  C   UNL     1       0.638   2.123  18.849  0.00  0.00    +0.000 C 
ATOM     22  O   UNL     1       1.103   2.836  21.092  0.00  0.00    +0.000 OA
ENDBRANCH  19  20
ENDBRANCH   6  19
TORSDOF 9
ENDMDL
MODEL 8
REMARK VINA RESULT:      -6.4      2.745      7.029
REMARK  Name = 
REMARK  13 active torsions:
REMARK  status: ('A' for Active; 'I' for Inactive)
REMARK    1  A    between atoms: C_1  and  C_2
REMARK    2  A    between atoms: C_2  and  O_4
REMARK    3  A    between atoms: O_4  and  C_5
REMARK    4  A    between atoms: C_5  and  C_6
REMARK    5  A    between atoms: C_8  and  C_9
REMARK    6  A    between atoms: C_9  and  C_10
REMARK    7  A    between atoms: C_10  and  O_11
REMARK    8  A    between atoms: O_11  and  N_12
REMARK    9  A    between atoms: C_13  and  C_14
REMARK   10  A    between atoms: C_13  and  C_15
REMARK   11  A    between atoms: C_18  and  O_19
REMARK   12  A    between atoms: O_19  and  C_20
REMARK   13  A    between atoms: C_20  and  C_21
REMARK                            x       y       z     vdW  Elec       q    Type
REMARK                         _______ _______ _______ _____ _____    ______ ____
ROOT
ATOM      1  C   UNL     1       6.211   4.090  15.641  0.00  0.00    +0.000 C 
ATOM      2  O   UNL     1       4.890   4.514  16.023  0.00  0.00    +0.000 OA
ATOM      3  C   UNL     1       4.495   4.115  17.338  0.00  0.00    +0.000 C 
ATOM      4  C   UNL     1       5.591   4.362  18.344  0.00  0.00    +0.000 C 
ATOM      5  C   UNL     1       6.850   4.671  17.995  0.00  0.00    +0.000 C 
ATOM      6  C   UNL     1       7.282   4.741  16.553  0.00  0.00    +0.000 C 
ENDROOT
BRANCH   1   7
ATOM      7  C   UNL     1       6.364   4.477  14.166  0.00  0.00    +0.000 C 
BRANCH   7   8
ATOM      8  O   UNL     1       5.387   3.790  13.348  0.00  0.00    +0.000 OA
BRANCH   8  10
ATOM      9  C   UNL     1       7.158   3.857  11.810  0.00  0.00    +0.000 C 
ATOM     10  C   UNL     1       5.865   3.212  12.215  0.00  0.00    +0.000 C 
ATOM     11  O   UNL     1       5.311   2.320  11.593  0.00  0.00    +0.000 OA
ENDBRANCH   8  10
ENDBRANCH   7   8
ENDBRANCH   1   7
BRANCH   3  12
ATOM     12  C   UNL     1       3.247   4.939  17.655  0.00  0.00    +0.000 C 
BRANCH  12  13
ATOM     13  C   UNL     1       1.975   4.104  17.527  0.00  0.00    +0.000 C 
BRANCH  13  14
ATOM     14  O   UNL     1       2.185   2.869  18.215  0.00  0.00    +0.000 OA
BRANCH  14  15
ATOM     15  N   UNL     1       1.381   2.854  19.361  0.00  0.00    +0.000 NA
ATOM     16  C   UNL     1       2.080   2.646  20.436  0.00  0.00    +0.000 C 
ATOM     17  C   UNL     1       3.576   2.453  20.486  0.00  0.00    +0.000 C 
ATOM     18  C   UNL     1       1.350   2.606  21.755  0.00  0.00    +0.000 C 
ENDBRANCH  14  15
ENDBRANCH  13  14
ENDBRANCH  12  13
ENDBRANCH   3  12
BRANCH   6  19
ATOM     19  O   UNL     1       7.477   6.141  16.259  0.00  0.00    +0.000 OA
BRANCH  19  20
ATOM     20  C   UNL     1       6.965   7.021  17.154  0.00  0.00    +0.000 C 
ATOM     21  C   UNL     1       8.016   7.531  18.093  0.00  0.00    +0.000 C 
ATOM     22  O   UNL     1       5.798   7.395  17.191  0.00  0.00    +0.000 OA
ENDBRANCH  19  20
ENDBRANCH   6  19
TORSDOF 9
ENDMDL
MODEL 9
REMARK VINA RESULT:      -6.3      2.326      6.953
REMARK  Name = 
REMARK  13 active torsions:
REMARK  status: ('A' for Active; 'I' for Inactive)
REMARK    1  A    between atoms: C_1  and  C_2
REMARK    2  A    between atoms: C_2  and  O_4
REMARK    3  A    between atoms: O_4  and  C_5
REMARK    4  A    between atoms: C_5  and  C_6
REMARK    5  A    between atoms: C_8  and  C_9
REMARK    6  A    between atoms: C_9  and  C_10
REMARK    7  A    between atoms: C_10  and  O_11
REMARK    8  A    between atoms: O_11  and  N_12
REMARK    9  A    between atoms: C_13  and  C_14
REMARK   10  A    between atoms: C_13  and  C_15
REMARK   11  A    between atoms: C_18  and  O_19
REMARK   12  A    between atoms: O_19  and  C_20
REMARK   13  A    between atoms: C_20  and  C_21
REMARK                            x       y       z     vdW  Elec       q    Type
REMARK                         _______ _______ _______ _____ _____    ______ ____
ROOT
ATOM      1  C   UNL     1       6.321   3.902  15.657  0.00  0.00    +0.000 C 
ATOM      2  O   UNL     1       4.942   4.193  15.940  0.00  0.00    +0.000 OA
ATOM      3  C   UNL     1       4.507   3.802  17.245  0.00  0.00    +0.000 C 
ATOM      4  C   UNL     1       5.504   4.203  18.303  0.00  0.00    +0.000 C 
ATOM      5  C   UNL     1       6.742   4.634  18.017  0.00  0.00    +0.000 C 
ATOM      6  C   UNL     1       7.256   4.698  16.602  0.00  0.00    +0.000 C 
ENDROOT
BRANCH   1   7
ATOM      7  C   UNL     1       6.528   4.250  14.178  0.00  0.00    +0.000 C 
BRANCH   7   8
ATOM      8  O   UNL     1       5.346   3.935  13.405  0.00  0.00    +0.000 OA
BRANCH   8  10
ATOM      9  C   UNL     1       4.284   3.212  11.441  0.00  0.00    +0.000 C 
ATOM     10  C   UNL     1       5.562   3.301  12.223  0.00  0.00    +0.000 C 
ATOM     11  O   UNL     1       6.632   2.840  11.857  0.00  0.00    +0.000 OA
ENDBRANCH   8  10
ENDBRANCH   7   8
ENDBRANCH   1   7
BRANCH   3  12
ATOM     12  C   UNL     1       3.161   4.497  17.450  0.00  0.00    +0.000 C 
BRANCH  12  13
ATOM     13  C   UNL     1       2.625   4.275  18.863  0.00  0.00    +0.000 C 
BRANCH  13  14
ATOM     14  O   UNL     1       2.415   5.555  19.463  0.00  0.00    +0.000 OA
BRANCH  14  15
ATOM     15  N   UNL     1       2.524   6.536  18.470  0.00  0.00    +0.000 NA
ATOM     16  C   UNL     1       2.172   7.706  18.910  0.00  0.00    +0.000 C 
ATOM     17  C   UNL     1       1.710   8.013  20.315  0.00  0.00    +0.000 C 
ATOM     18  C   UNL     1       2.238   8.870  17.953  0.00  0.00    +0.000 C 
ENDBRANCH  14  15
ENDBRANCH  13  14
ENDBRANCH  12  13
ENDBRANCH   3  12
BRANCH   6  19
ATOM     19  O   UNL     1       7.321   6.100  16.260  0.00  0.00    +0.000 OA
BRANCH  19  20
ATOM     20  C   UNL     1       6.812   6.965  17.172  0.00  0.00    +0.000 C 
ATOM     21  C   UNL     1       7.883   7.532  18.055  0.00  0.00    +0.000 C 
ATOM     22  O   UNL     1       5.632   7.286  17.262  0.00  0.00    +0.000 OA
ENDBRANCH  19  20
ENDBRANCH   6  19
TORSDOF 9
ENDMDL
