MODEL 1
REMARK VINA RESULT:      -8.4      0.000      0.000
REMARK  Name = 
REMARK  5 active torsions:
REMARK  status: ('A' for Active; 'I' for Inactive)
REMARK    1  A    between atoms: C_1  and  C_2
REMARK    2  A    between atoms: C_5  and  C_6
REMARK    3  A    between atoms: C_16  and  N_17
REMARK    4  A    between atoms: C_18  and  C_20
REMARK    5  A    between atoms: C_20  and  C_21
REMARK                            x       y       z     vdW  Elec       q    Type
REMARK                         _______ _______ _______ _____ _____    ______ ____
ROOT
ATOM      1  C   UNL     1       4.092   2.453  19.302  0.00  0.00    +0.000 C 
ATOM      2  C   UNL     1       3.550   3.850  19.437  0.00  0.00    +0.000 A 
ATOM      3  C   UNL     1       2.399   4.025  20.229  0.00  0.00    +0.000 A 
ATOM      4  C   UNL     1       1.833   5.288  20.415  0.00  0.00    +0.000 A 
ATOM      5  C   UNL     1       2.379   6.403  19.781  0.00  0.00    +0.000 A 
ATOM      6  C   UNL     1       3.501   6.220  18.961  0.00  0.00    +0.000 A 
ATOM      7  C   UNL     1       4.120   4.972  18.802  0.00  0.00    +0.000 A 
ENDROOT
BRANCH   5   8
ATOM      8  C   UNL     1       1.812   7.723  20.008  0.00  0.00    +0.000 A 
ATOM      9  C   UNL     1       1.280   8.193  21.192  0.00  0.00    +0.000 A 
ATOM     10  N   UNL     1       0.813   9.445  20.909  0.00  0.00    +0.000 N 
ATOM     11  C   UNL     1       0.162  10.353  21.730  0.00  0.00    +0.000 A 
ATOM     12  C   UNL     1      -0.229  11.528  21.220  0.00  0.00    +0.000 A 
ATOM     13  C   UNL     1       0.095  11.724  19.776  0.00  0.00    +0.000 A 
ATOM     14  N   UNL     1       0.710  10.890  18.999  0.00  0.00    +0.000 NA
ATOM     15  C   UNL     1       1.088   9.706  19.568  0.00  0.00    +0.000 A 
ATOM     16  N   UNL     1       1.702   8.676  19.025  0.00  0.00    +0.000 NA
ENDBRANCH   5   8
BRANCH   7  17
ATOM     17  N   UNL     1       5.302   4.837  18.024  0.00  0.00    +0.000 N 
ATOM     18  C   UNL     1       5.559   5.466  16.810  0.00  0.00    +0.000 C 
ATOM     19  O   UNL     1       4.824   6.265  16.232  0.00  0.00    +0.000 OA
ATOM     20  H   UNL     1       6.079   4.354  18.455  0.00  0.00    +0.000 HD
BRANCH  18  21
ATOM     21  C   UNL     1       6.913   5.124  16.209  0.00  0.00    +0.000 C 
BRANCH  21  22
ATOM     22  C   UNL     1       6.882   4.748  14.745  0.00  0.00    +0.000 A 
ATOM     23  C   UNL     1       5.942   3.804  14.305  0.00  0.00    +0.000 A 
ATOM     24  C   UNL     1       5.875   3.437  12.960  0.00  0.00    +0.000 A 
ATOM     25  C   UNL     1       6.738   4.018  12.033  0.00  0.00    +0.000 A 
ATOM     26  C   UNL     1       7.648   4.987  12.448  0.00  0.00    +0.000 A 
ATOM     27  C   UNL     1       7.711   5.360  13.792  0.00  0.00    +0.000 A 
ENDBRANCH  21  22
ENDBRANCH  18  21
ENDBRANCH   7  17
TORSDOF 4
ENDMDL
MODEL 2
REMARK VINA RESULT:      -8.3      0.652      1.168
REMARK  Name = 
REMARK  5 active torsions:
REMARK  status: ('A' for Active; 'I' for Inactive)
REMARK    1  A    between atoms: C_1  and  C_2
REMARK    2  A    between atoms: C_5  and  C_6
REMARK    3  A    between atoms: C_16  and  N_17
REMARK    4  A    between atoms: C_18  and  C_20
REMARK    5  A    between atoms: C_20  and  C_21
REMARK                            x       y       z     vdW  Elec       q    Type
REMARK                         _______ _______ _______ _____ _____    ______ ____
ROOT
ATOM      1  C   UNL     1       4.130   2.538  19.360  0.00  0.00    +0.000 C 
ATOM      2  C   UNL     1       3.569   3.929  19.475  0.00  0.00    +0.000 A 
ATOM      3  C   UNL     1       2.424   4.103  20.277  0.00  0.00    +0.000 A 
ATOM      4  C   UNL     1       1.843   5.361  20.445  0.00  0.00    +0.000 A 
ATOM      5  C   UNL     1       2.366   6.471  19.784  0.00  0.00    +0.000 A 
ATOM      6  C   UNL     1       3.481   6.289  18.955  0.00  0.00    +0.000 A 
ATOM      7  C   UNL     1       4.116   5.047  18.812  0.00  0.00    +0.000 A 
ENDROOT
BRANCH   5   8
ATOM      8  C   UNL     1       1.782   7.787  19.994  0.00  0.00    +0.000 A 
ATOM      9  C   UNL     1       1.604   8.765  19.037  0.00  0.00    +0.000 A 
ATOM     10  N   UNL     1       1.091   9.840  19.707  0.00  0.00    +0.000 N 
ATOM     11  C   UNL     1       0.750  11.097  19.232  0.00  0.00    +0.000 A 
ATOM     12  C   UNL     1       0.279  12.011  20.091  0.00  0.00    +0.000 A 
ATOM     13  C   UNL     1       0.176  11.549  21.506  0.00  0.00    +0.000 A 
ATOM     14  N   UNL     1       0.481  10.375  21.963  0.00  0.00    +0.000 NA
ATOM     15  C   UNL     1       0.957   9.479  21.046  0.00  0.00    +0.000 A 
ATOM     16  N   UNL     1       1.360   8.238  21.221  0.00  0.00    +0.000 NA
ENDBRANCH   5   8
BRANCH   7  17
ATOM     17  N   UNL     1       5.291   4.914  18.023  0.00  0.00    +0.000 N 
ATOM     18  C   UNL     1       5.575   5.610  16.853  0.00  0.00    +0.000 C 
ATOM     19  O   UNL     1       4.874   6.477  16.332  0.00  0.00    +0.000 OA
ATOM     20  H   UNL     1       6.047   4.370  18.420  0.00  0.00    +0.000 HD
BRANCH  18  21
ATOM     21  C   UNL     1       6.912   5.252  16.227  0.00  0.00    +0.000 C 
BRANCH  21  22
ATOM     22  C   UNL     1       6.839   4.799  14.787  0.00  0.00    +0.000 A 
ATOM     23  C   UNL     1       5.854   3.871  14.415  0.00  0.00    +0.000 A 
ATOM     24  C   UNL     1       5.747   3.434  13.094  0.00  0.00    +0.000 A 
ATOM     25  C   UNL     1       6.615   3.928  12.122  0.00  0.00    +0.000 A 
ATOM     26  C   UNL     1       7.571   4.880  12.468  0.00  0.00    +0.000 A 
ATOM     27  C   UNL     1       7.674   5.323  13.788  0.00  0.00    +0.000 A 
ENDBRANCH  21  22
ENDBRANCH  18  21
ENDBRANCH   7  17
TORSDOF 4
ENDMDL
MODEL 3
REMARK VINA RESULT:      -8.1      3.824      9.735
REMARK  Name = 
REMARK  5 active torsions:
REMARK  status: ('A' for Active; 'I' for Inactive)
REMARK    1  A    between atoms: C_1  and  C_2
REMARK    2  A    between atoms: C_5  and  C_6
REMARK    3  A    between atoms: C_16  and  N_17
REMARK    4  A    between atoms: C_18  and  C_20
REMARK    5  A    between atoms: C_20  and  C_21
REMARK                            x       y       z     vdW  Elec       q    Type
REMARK                         _______ _______ _______ _____ _____    ______ ____
ROOT
ATOM      1  C   UNL     1       0.913  11.551  18.902  0.00  0.00    +0.000 C 
ATOM      2  C   UNL     1       1.304  10.098  18.921  0.00  0.00    +0.000 A 
ATOM      3  C   UNL     1       2.144   9.639  17.889  0.00  0.00    +0.000 A 
ATOM      4  C   UNL     1       2.562   8.307  17.835  0.00  0.00    +0.000 A 
ATOM      5  C   UNL     1       2.118   7.392  18.788  0.00  0.00    +0.000 A 
ATOM      6  C   UNL     1       1.250   7.843  19.792  0.00  0.00    +0.000 A 
ATOM      7  C   UNL     1       0.860   9.185  19.900  0.00  0.00    +0.000 A 
ENDROOT
BRANCH   5   8
ATOM      8  C   UNL     1       2.587   6.015  18.752  0.00  0.00    +0.000 A 
ATOM      9  C   UNL     1       2.145   5.022  17.903  0.00  0.00    +0.000 A 
ATOM     10  N   UNL     1       2.817   3.894  18.283  0.00  0.00    +0.000 N 
ATOM     11  C   UNL     1       2.733   2.604  17.782  0.00  0.00    +0.000 A 
ATOM     12  C   UNL     1       3.482   1.641  18.335  0.00  0.00    +0.000 A 
ATOM     13  C   UNL     1       4.347   2.090  19.465  0.00  0.00    +0.000 A 
ATOM     14  N   UNL     1       4.443   3.293  19.938  0.00  0.00    +0.000 NA
ATOM     15  C   UNL     1       3.658   4.238  19.339  0.00  0.00    +0.000 A 
ATOM     16  N   UNL     1       3.534   5.519  19.616  0.00  0.00    +0.000 NA
ENDBRANCH   5   8
BRANCH   7  17
ATOM     17  N   UNL     1       0.039   9.623  20.975  0.00  0.00    +0.000 N 
ATOM     18  C   UNL     1       0.433   9.760  22.303  0.00  0.00    +0.000 C 
ATOM     19  O   UNL     1       1.560   9.559  22.754  0.00  0.00    +0.000 OA
ATOM     20  H   UNL     1      -0.867  10.002  20.732  0.00  0.00    +0.000 HD
BRANCH  18  21
ATOM     21  C   UNL     1      -0.668  10.248  23.229  0.00  0.00    +0.000 C 
BRANCH  21  22
ATOM     22  C   UNL     1      -1.242  11.601  22.878  0.00  0.00    +0.000 A 
ATOM     23  C   UNL     1      -2.560  11.899  23.253  0.00  0.00    +0.000 A 
ATOM     24  C   UNL     1      -3.125  13.140  22.955  0.00  0.00    +0.000 A 
ATOM     25  C   UNL     1      -2.374  14.107  22.291  0.00  0.00    +0.000 A 
ATOM     26  C   UNL     1      -1.050  13.841  21.948  0.00  0.00    +0.000 A 
ATOM     27  C   UNL     1      -0.483  12.602  22.252  0.00  0.00    +0.000 A 
ENDBRANCH  21  22
ENDBRANCH  18  21
ENDBRANCH   7  17
TORSDOF 4
ENDMDL
MODEL 4
REMARK VINA RESULT:      -7.9      1.279      2.025
REMARK  Name = 
REMARK  5 active torsions:
REMARK  status: ('A' for Active; 'I' for Inactive)
REMARK    1  A    between atoms: C_1  and  C_2
REMARK    2  A    between atoms: C_5  and  C_6
REMARK    3  A    between atoms: C_16  and  N_17
REMARK    4  A    between atoms: C_18  and  C_20
REMARK    5  A    between atoms: C_20  and  C_21
REMARK                            x       y       z     vdW  Elec       q    Type
REMARK                         _______ _______ _______ _____ _____    ______ ____
ROOT
ATOM      1  C   UNL     1       3.907   3.002  19.519  0.00  0.00    +0.000 C 
ATOM      2  C   UNL     1       3.331   4.385  19.658  0.00  0.00    +0.000 A 
ATOM      3  C   UNL     1       2.181   4.532  20.457  0.00  0.00    +0.000 A 
ATOM      4  C   UNL     1       1.586   5.780  20.648  0.00  0.00    +0.000 A 
ATOM      5  C   UNL     1       2.101   6.909  20.011  0.00  0.00    +0.000 A 
ATOM      6  C   UNL     1       3.222   6.754  19.184  0.00  0.00    +0.000 A 
ATOM      7  C   UNL     1       3.871   5.521  19.020  0.00  0.00    +0.000 A 
ENDROOT
BRANCH   5   8
ATOM      8  C   UNL     1       1.504   8.214  20.243  0.00  0.00    +0.000 A 
ATOM      9  C   UNL     1       1.309   9.205  19.302  0.00  0.00    +0.000 A 
ATOM     10  N   UNL     1       0.787  10.263  19.991  0.00  0.00    +0.000 N 
ATOM     11  C   UNL     1       0.428  11.523  19.537  0.00  0.00    +0.000 A 
ATOM     12  C   UNL     1      -0.048  12.419  20.412  0.00  0.00    +0.000 A 
ATOM     13  C   UNL     1      -0.138  11.934  21.820  0.00  0.00    +0.000 A 
ATOM     14  N   UNL     1       0.183  10.757  22.257  0.00  0.00    +0.000 NA
ATOM     15  C   UNL     1       0.664   9.881  21.325  0.00  0.00    +0.000 A 
ATOM     16  N   UNL     1       1.082   8.642  21.479  0.00  0.00    +0.000 NA
ENDBRANCH   5   8
BRANCH   7  17
ATOM     17  N   UNL     1       5.050   5.415  18.234  0.00  0.00    +0.000 N 
ATOM     18  C   UNL     1       6.351   5.318  18.719  0.00  0.00    +0.000 C 
ATOM     19  O   UNL     1       6.688   5.273  19.902  0.00  0.00    +0.000 OA
ATOM     20  H   UNL     1       4.925   5.255  17.243  0.00  0.00    +0.000 HD
BRANCH  18  21
ATOM     21  C   UNL     1       7.411   5.220  17.635  0.00  0.00    +0.000 C 
BRANCH  21  22
ATOM     22  C   UNL     1       6.901   4.767  16.286  0.00  0.00    +0.000 A 
ATOM     23  C   UNL     1       7.510   5.268  15.126  0.00  0.00    +0.000 A 
ATOM     24  C   UNL     1       7.075   4.868  13.861  0.00  0.00    +0.000 A 
ATOM     25  C   UNL     1       6.034   3.951  13.739  0.00  0.00    +0.000 A 
ATOM     26  C   UNL     1       5.447   3.413  14.882  0.00  0.00    +0.000 A 
ATOM     27  C   UNL     1       5.887   3.808  16.147  0.00  0.00    +0.000 A 
ENDBRANCH  21  22
ENDBRANCH  18  21
ENDBRANCH   7  17
TORSDOF 4
ENDMDL
MODEL 5
REMARK VINA RESULT:      -7.9      2.549      9.066
REMARK  Name = 
REMARK  5 active torsions:
REMARK  status: ('A' for Active; 'I' for Inactive)
REMARK    1  A    between atoms: C_1  and  C_2
REMARK    2  A    between atoms: C_5  and  C_6
REMARK    3  A    between atoms: C_16  and  N_17
REMARK    4  A    between atoms: C_18  and  C_20
REMARK    5  A    between atoms: C_20  and  C_21
REMARK                            x       y       z     vdW  Elec       q    Type
REMARK                         _______ _______ _______ _____ _____    ______ ____
ROOT
ATOM      1  C   UNL     1      -0.077   9.269  21.522  0.00  0.00    +0.000 C 
ATOM      2  C   UNL     1       0.849   8.617  20.530  0.00  0.00    +0.000 A 
ATOM      3  C   UNL     1       1.517   7.447  20.940  0.00  0.00    +0.000 A 
ATOM      4  C   UNL     1       2.388   6.773  20.080  0.00  0.00    +0.000 A 
ATOM      5  C   UNL     1       2.644   7.274  18.805  0.00  0.00    +0.000 A 
ATOM      6  C   UNL     1       2.008   8.460  18.414  0.00  0.00    +0.000 A 
ATOM      7  C   UNL     1       1.088   9.126  19.237  0.00  0.00    +0.000 A 
ENDROOT
BRANCH   5   8
ATOM      8  C   UNL     1       3.520   6.548  17.898  0.00  0.00    +0.000 A 
ATOM      9  C   UNL     1       3.478   5.196  17.627  0.00  0.00    +0.000 A 
ATOM     10  N   UNL     1       4.525   4.963  16.781  0.00  0.00    +0.000 N 
ATOM     11  C   UNL     1       4.959   3.772  16.218  0.00  0.00    +0.000 A 
ATOM     12  C   UNL     1       6.038   3.782  15.424  0.00  0.00    +0.000 A 
ATOM     13  C   UNL     1       6.666   5.123  15.236  0.00  0.00    +0.000 A 
ATOM     14  N   UNL     1       6.266   6.245  15.747  0.00  0.00    +0.000 NA
ATOM     15  C   UNL     1       5.162   6.180  16.549  0.00  0.00    +0.000 A 
ATOM     16  N   UNL     1       4.551   7.141  17.209  0.00  0.00    +0.000 NA
ENDBRANCH   5   8
BRANCH   7  17
ATOM     17  N   UNL     1       0.403  10.285  18.780  0.00  0.00    +0.000 N 
ATOM     18  C   UNL     1       0.712  11.600  19.108  0.00  0.00    +0.000 C 
ATOM     19  O   UNL     1       1.645  11.976  19.817  0.00  0.00    +0.000 OA
ATOM     20  H   UNL     1      -0.277  10.151  18.043  0.00  0.00    +0.000 HD
BRANCH  18  21
ATOM     21  C   UNL     1      -0.203  12.631  18.467  0.00  0.00    +0.000 C 
BRANCH  21  22
ATOM     22  C   UNL     1      -1.675  12.436  18.747  0.00  0.00    +0.000 A 
ATOM     23  C   UNL     1      -2.460  11.748  17.810  0.00  0.00    +0.000 A 
ATOM     24  C   UNL     1      -3.822  11.540  18.035  0.00  0.00    +0.000 A 
ATOM     25  C   UNL     1      -4.415  12.004  19.207  0.00  0.00    +0.000 A 
ATOM     26  C   UNL     1      -3.640  12.653  20.165  0.00  0.00    +0.000 A 
ATOM     27  C   UNL     1      -2.277  12.856  19.944  0.00  0.00    +0.000 A 
ENDBRANCH  21  22
ENDBRANCH  18  21
ENDBRANCH   7  17
TORSDOF 4
ENDMDL
MODEL 6
REMARK VINA RESULT:      -7.8      2.930      9.307
REMARK  Name = 
REMARK  5 active torsions:
REMARK  status: ('A' for Active; 'I' for Inactive)
REMARK    1  A    between atoms: C_1  and  C_2
REMARK    2  A    between atoms: C_5  and  C_6
REMARK    3  A    between atoms: C_16  and  N_17
REMARK    4  A    between atoms: C_18  and  C_20
REMARK    5  A    between atoms: C_20  and  C_21
REMARK                            x       y       z     vdW  Elec       q    Type
REMARK                         _______ _______ _______ _____ _____    ______ ____
ROOT
ATOM      1  C   UNL     1      -0.245   9.377  21.957  0.00  0.00    +0.000 C 
ATOM      2  C   UNL     1       0.635   8.746  20.913  0.00  0.00    +0.000 A 
ATOM      3  C   UNL     1       1.356   7.594  21.282  0.00  0.00    +0.000 A 
ATOM      4  C   UNL     1       2.189   6.939  20.373  0.00  0.00    +0.000 A 
ATOM      5  C   UNL     1       2.357   7.443  19.084  0.00  0.00    +0.000 A 
ATOM      6  C   UNL     1       1.669   8.612  18.731  0.00  0.00    +0.000 A 
ATOM      7  C   UNL     1       0.784   9.257  19.607  0.00  0.00    +0.000 A 
ENDROOT
BRANCH   5   8
ATOM      8  C   UNL     1       3.194   6.737  18.127  0.00  0.00    +0.000 A 
ATOM      9  C   UNL     1       3.278   5.369  17.965  0.00  0.00    +0.000 A 
ATOM     10  N   UNL     1       4.234   5.174  17.009  0.00  0.00    +0.000 N 
ATOM     11  C   UNL     1       4.732   3.991  16.484  0.00  0.00    +0.000 A 
ATOM     12  C   UNL     1       5.698   4.046  15.558  0.00  0.00    +0.000 A 
ATOM     13  C   UNL     1       6.138   5.424  15.190  0.00  0.00    +0.000 A 
ATOM     14  N   UNL     1       5.676   6.538  15.664  0.00  0.00    +0.000 NA
ATOM     15  C   UNL     1       4.692   6.427  16.606  0.00  0.00    +0.000 A 
ATOM     16  N   UNL     1       4.058   7.373  17.268  0.00  0.00    +0.000 NA
ENDBRANCH   5   8
BRANCH   7  17
ATOM     17  N   UNL     1       0.045  10.398  19.190  0.00  0.00    +0.000 N 
ATOM     18  C   UNL     1      -0.888  10.437  18.160  0.00  0.00    +0.000 C 
ATOM     19  O   UNL     1      -1.251   9.487  17.467  0.00  0.00    +0.000 OA
ATOM     20  H   UNL     1       0.098  11.216  19.783  0.00  0.00    +0.000 HD
BRANCH  18  21
ATOM     21  C   UNL     1      -1.517  11.804  17.944  0.00  0.00    +0.000 C 
BRANCH  21  22
ATOM     22  C   UNL     1      -2.925  11.947  18.474  0.00  0.00    +0.000 A 
ATOM     23  C   UNL     1      -3.118  12.486  19.754  0.00  0.00    +0.000 A 
ATOM     24  C   UNL     1      -4.403  12.644  20.277  0.00  0.00    +0.000 A 
ATOM     25  C   UNL     1      -5.514  12.276  19.522  0.00  0.00    +0.000 A 
ATOM     26  C   UNL     1      -5.340  11.778  18.233  0.00  0.00    +0.000 A 
ATOM     27  C   UNL     1      -4.056  11.627  17.707  0.00  0.00    +0.000 A 
ENDBRANCH  21  22
ENDBRANCH  18  21
ENDBRANCH   7  17
TORSDOF 4
ENDMDL
MODEL 7
REMARK VINA RESULT:      -7.8      1.059      1.445
REMARK  Name = 
REMARK  5 active torsions:
REMARK  status: ('A' for Active; 'I' for Inactive)
REMARK    1  A    between atoms: C_1  and  C_2
REMARK    2  A    between atoms: C_5  and  C_6
REMARK    3  A    between atoms: C_16  and  N_17
REMARK    4  A    between atoms: C_18  and  C_20
REMARK    5  A    between atoms: C_20  and  C_21
REMARK                            x       y       z     vdW  Elec       q    Type
REMARK                         _______ _______ _______ _____ _____    ______ ____
ROOT
ATOM      1  C   UNL     1       3.997   3.004  17.504  0.00  0.00    +0.000 C 
ATOM      2  C   UNL     1       3.436   4.262  18.111  0.00  0.00    +0.000 A 
ATOM      3  C   UNL     1       2.405   4.120  19.059  0.00  0.00    +0.000 A 
ATOM      4  C   UNL     1       1.833   5.233  19.679  0.00  0.00    +0.000 A 
ATOM      5  C   UNL     1       2.248   6.519  19.335  0.00  0.00    +0.000 A 
ATOM      6  C   UNL     1       3.247   6.659  18.362  0.00  0.00    +0.000 A 
ATOM      7  C   UNL     1       3.875   5.556  17.766  0.00  0.00    +0.000 A 
ENDROOT
BRANCH   5   8
ATOM      8  C   UNL     1       1.679   7.675  20.011  0.00  0.00    +0.000 A 
ATOM      9  C   UNL     1       1.180   7.708  21.297  0.00  0.00    +0.000 A 
ATOM     10  N   UNL     1       0.697   8.974  21.466  0.00  0.00    +0.000 N 
ATOM     11  C   UNL     1       0.064   9.540  22.563  0.00  0.00    +0.000 A 
ATOM     12  C   UNL     1      -0.350  10.812  22.491  0.00  0.00    +0.000 A 
ATOM     13  C   UNL     1      -0.072  11.490  21.191  0.00  0.00    +0.000 A 
ATOM     14  N   UNL     1       0.526  10.978  20.162  0.00  0.00    +0.000 NA
ATOM     15  C   UNL     1       0.929   9.678  20.287  0.00  0.00    +0.000 A 
ATOM     16  N   UNL     1       1.534   8.903  19.411  0.00  0.00    +0.000 NA
ENDBRANCH   5   8
BRANCH   7  17
ATOM     17  N   UNL     1       4.937   5.734  16.838  0.00  0.00    +0.000 N 
ATOM     18  C   UNL     1       6.260   5.346  17.024  0.00  0.00    +0.000 C 
ATOM     19  O   UNL     1       6.717   4.756  18.002  0.00  0.00    +0.000 OA
ATOM     20  H   UNL     1       4.684   6.041  15.908  0.00  0.00    +0.000 HD
BRANCH  18  21
ATOM     21  C   UNL     1       7.173   5.672  15.852  0.00  0.00    +0.000 C 
BRANCH  21  22
ATOM     22  C   UNL     1       6.839   4.950  14.567  0.00  0.00    +0.000 A 
ATOM     23  C   UNL     1       7.668   5.134  13.450  0.00  0.00    +0.000 A 
ATOM     24  C   UNL     1       7.399   4.479  12.246  0.00  0.00    +0.000 A 
ATOM     25  C   UNL     1       6.306   3.622  12.146  0.00  0.00    +0.000 A 
ATOM     26  C   UNL     1       5.498   3.398  13.259  0.00  0.00    +0.000 A 
ATOM     27  C   UNL     1       5.770   4.047  14.465  0.00  0.00    +0.000 A 
ENDBRANCH  21  22
ENDBRANCH  18  21
ENDBRANCH   7  17
TORSDOF 4
ENDMDL
MODEL 8
REMARK VINA RESULT:      -7.7      3.845      9.761
REMARK  Name = 
REMARK  5 active torsions:
REMARK  status: ('A' for Active; 'I' for Inactive)
REMARK    1  A    between atoms: C_1  and  C_2
REMARK    2  A    between atoms: C_5  and  C_6
REMARK    3  A    between atoms: C_16  and  N_17
REMARK    4  A    between atoms: C_18  and  C_20
REMARK    5  A    between atoms: C_20  and  C_21
REMARK                            x       y       z     vdW  Elec       q    Type
REMARK                         _______ _______ _______ _____ _____    ______ ____
ROOT
ATOM      1  C   UNL     1       0.951  11.556  18.930  0.00  0.00    +0.000 C 
ATOM      2  C   UNL     1       1.305  10.094  18.969  0.00  0.00    +0.000 A 
ATOM      3  C   UNL     1       2.172   9.610  17.970  0.00  0.00    +0.000 A 
ATOM      4  C   UNL     1       2.559   8.269  17.936  0.00  0.00    +0.000 A 
ATOM      5  C   UNL     1       2.057   7.368  18.873  0.00  0.00    +0.000 A 
ATOM      6  C   UNL     1       1.163   7.843  19.842  0.00  0.00    +0.000 A 
ATOM      7  C   UNL     1       0.802   9.195  19.932  0.00  0.00    +0.000 A 
ENDROOT
BRANCH   5   8
ATOM      8  C   UNL     1       2.493   5.980  18.859  0.00  0.00    +0.000 A 
ATOM      9  C   UNL     1       3.417   5.404  19.707  0.00  0.00    +0.000 A 
ATOM     10  N   UNL     1       3.553   4.115  19.273  0.00  0.00    +0.000 N 
ATOM     11  C   UNL     1       4.372   3.104  19.751  0.00  0.00    +0.000 A 
ATOM     12  C   UNL     1       4.352   1.909  19.144  0.00  0.00    +0.000 A 
ATOM     13  C   UNL     1       3.417   1.809  17.986  0.00  0.00    +0.000 A 
ATOM     14  N   UNL     1       2.639   2.742  17.534  0.00  0.00    +0.000 NA
ATOM     15  C   UNL     1       2.697   3.941  18.188  0.00  0.00    +0.000 A 
ATOM     16  N   UNL     1       2.046   5.059  17.943  0.00  0.00    +0.000 NA
ENDBRANCH   5   8
BRANCH   7  17
ATOM     17  N   UNL     1      -0.048   9.657  20.974  0.00  0.00    +0.000 N 
ATOM     18  C   UNL     1       0.317   9.852  22.302  0.00  0.00    +0.000 C 
ATOM     19  O   UNL     1       1.438   9.691  22.783  0.00  0.00    +0.000 OA
ATOM     20  H   UNL     1      -0.957  10.007  20.700  0.00  0.00    +0.000 HD
BRANCH  18  21
ATOM     21  C   UNL     1      -0.812  10.352  23.189  0.00  0.00    +0.000 C 
BRANCH  21  22
ATOM     22  C   UNL     1      -1.302  11.745  22.869  0.00  0.00    +0.000 A 
ATOM     23  C   UNL     1      -0.439  12.635  22.213  0.00  0.00    +0.000 A 
ATOM     24  C   UNL     1      -0.856  13.928  21.892  0.00  0.00    +0.000 A 
ATOM     25  C   UNL     1      -2.146  14.345  22.210  0.00  0.00    +0.000 A 
ATOM     26  C   UNL     1      -3.028  13.459  22.825  0.00  0.00    +0.000 A 
ATOM     27  C   UNL     1      -2.614  12.164  23.140  0.00  0.00    +0.000 A 
ENDBRANCH  21  22
ENDBRANCH  18  21
ENDBRANCH   7  17
TORSDOF 4
ENDMDL
MODEL 9
REMARK VINA RESULT:      -7.7      3.938      6.664
REMARK  Name = 
REMARK  5 active torsions:
REMARK  status: ('A' for Active; 'I' for Inactive)
REMARK    1  A    between atoms: C_1  and  C_2
REMARK    2  A    between atoms: C_5  and  C_6
REMARK    3  A    between atoms: C_16  and  N_17
REMARK    4  A    between atoms: C_18  and  C_20
REMARK    5  A    between atoms: C_20  and  C_21
REMARK                            x       y       z     vdW  Elec       q    Type
REMARK                         _______ _______ _______ _____ _____    ______ ____
ROOT
ATOM      1  C   UNL     1      -0.516   8.336  21.765  0.00  0.00    +0.000 C 
ATOM      2  C   UNL     1      -0.036   9.578  21.064  0.00  0.00    +0.000 A 
ATOM      3  C   UNL     1      -0.770  10.763  21.269  0.00  0.00    +0.000 A 
ATOM      4  C   UNL     1      -0.390  11.962  20.663  0.00  0.00    +0.000 A 
ATOM      5  C   UNL     1       0.708  12.000  19.805  0.00  0.00    +0.000 A 
ATOM      6  C   UNL     1       1.412  10.811  19.571  0.00  0.00    +0.000 A 
ATOM      7  C   UNL     1       1.085   9.606  20.210  0.00  0.00    +0.000 A 
ENDROOT
BRANCH   5   8
ATOM      8  C   UNL     1       1.124  13.260  19.208  0.00  0.00    +0.000 A 
ATOM      9  C   UNL     1       2.308  13.497  18.540  0.00  0.00    +0.000 A 
ATOM     10  N   UNL     1       2.286  14.825  18.223  0.00  0.00    +0.000 N 
ATOM     11  C   UNL     1       3.239  15.595  17.572  0.00  0.00    +0.000 A 
ATOM     12  C   UNL     1       3.006  16.901  17.390  0.00  0.00    +0.000 A 
ATOM     13  C   UNL     1       1.703  17.388  17.929  0.00  0.00    +0.000 A 
ATOM     14  N   UNL     1       0.799  16.680  18.531  0.00  0.00    +0.000 NA
ATOM     15  C   UNL     1       1.085  15.353  18.691  0.00  0.00    +0.000 A 
ATOM     16  N   UNL     1       0.375  14.410  19.274  0.00  0.00    +0.000 NA
ENDBRANCH   5   8
BRANCH   7  17
ATOM     17  N   UNL     1       1.868   8.437  20.008  0.00  0.00    +0.000 N 
ATOM     18  C   UNL     1       2.155   7.845  18.782  0.00  0.00    +0.000 C 
ATOM     19  O   UNL     1       1.810   8.255  17.675  0.00  0.00    +0.000 OA
ATOM     20  H   UNL     1       2.375   8.085  20.809  0.00  0.00    +0.000 HD
BRANCH  18  21
ATOM     21  C   UNL     1       3.017   6.597  18.883  0.00  0.00    +0.000 C 
BRANCH  21  22
ATOM     22  C   UNL     1       2.252   5.312  19.097  0.00  0.00    +0.000 A 
ATOM     23  C   UNL     1       1.811   4.990  20.389  0.00  0.00    +0.000 A 
ATOM     24  C   UNL     1       1.094   3.816  20.627  0.00  0.00    +0.000 A 
ATOM     25  C   UNL     1       0.796   2.954  19.574  0.00  0.00    +0.000 A 
ATOM     26  C   UNL     1       1.191   3.280  18.279  0.00  0.00    +0.000 A 
ATOM     27  C   UNL     1       1.903   4.458  18.039  0.00  0.00    +0.000 A 
ENDBRANCH  21  22
ENDBRANCH  18  21
ENDBRANCH   7  17
TORSDOF 4
ENDMDL
