MODEL 1
REMARK VINA RESULT:      -7.4      0.000      0.000
REMARK  Name = 
REMARK  4 active torsions:
REMARK  status: ('A' for Active; 'I' for Inactive)
REMARK    1  A    between atoms: C_7  and  S_8
REMARK    2  A    between atoms: S_8  and  C_9
REMARK    3  A    between atoms: C_9  and  C_10
REMARK    4  A    between atoms: C_11  and  C_12
REMARK                            x       y       z     vdW  Elec       q    Type
REMARK                         _______ _______ _______ _____ _____    ______ ____
ROOT
ATOM      1  N   UNL     1       8.397   5.195  20.538  0.00  0.00    +0.000 N 
ATOM      2  C   UNL     1       8.110   5.691  19.267  0.00  0.00    +0.000 A 
ATOM      3  C   UNL     1       8.161   7.046  19.049  0.00  0.00    +0.000 A 
ATOM      4  C   UNL     1       7.807   7.443  17.790  0.00  0.00    +0.000 A 
ATOM      5 CL   UNL     1       7.833   9.102  17.353  0.00  0.00    +0.000 Cl
ATOM      6  N   UNL     1       7.420   6.620  16.812  0.00  0.00    +0.000 NA
ATOM      7  C   UNL     1       7.377   5.321  17.129  0.00  0.00    +0.000 A 
ATOM      8  N   UNL     1       7.715   4.814  18.328  0.00  0.00    +0.000 NA
ATOM      9  H   UNL     1       9.255   5.562  20.935  0.00  0.00    +0.000 HD
ATOM     10  H   UNL     1       8.378   4.177  20.515  0.00  0.00    +0.000 HD
ENDROOT
BRANCH   7  11
ATOM     11  S   UNL     1       6.771   4.275  15.828  0.00  0.00    +0.000 S 
BRANCH  11  12
ATOM     12  C   UNL     1       5.076   4.874  15.595  0.00  0.00    +0.000 C 
BRANCH  12  13
ATOM     13  C   UNL     1       4.341   4.687  16.900  0.00  0.00    +0.000 C 
ATOM     14  C   UNL     1       3.153   4.072  17.037  0.00  0.00    +0.000 C 
BRANCH  14  15
ATOM     15  C   UNL     1       2.441   3.905  18.319  0.00  0.00    +0.000 A 
ATOM     16  C   UNL     1       1.795   2.713  18.674  0.00  0.00    +0.000 A 
ATOM     17  C   UNL     1       1.118   2.599  19.892  0.00  0.00    +0.000 A 
ATOM     18  C   UNL     1       1.097   3.670  20.783  0.00  0.00    +0.000 A 
ATOM     19  C   UNL     1       1.770   4.847  20.464  0.00  0.00    +0.000 A 
ATOM     20  C   UNL     1       2.443   4.961  19.243  0.00  0.00    +0.000 A 
ENDBRANCH  14  15
ENDBRANCH  12  13
ENDBRANCH  11  12
ENDBRANCH   7  11
TORSDOF 4
ENDMDL
MODEL 2
REMARK VINA RESULT:      -7.3      1.199      1.393
REMARK  Name = 
REMARK  4 active torsions:
REMARK  status: ('A' for Active; 'I' for Inactive)
REMARK    1  A    between atoms: C_7  and  S_8
REMARK    2  A    between atoms: S_8  and  C_9
REMARK    3  A    between atoms: C_9  and  C_10
REMARK    4  A    between atoms: C_11  and  C_12
REMARK                            x       y       z     vdW  Elec       q    Type
REMARK                         _______ _______ _______ _____ _____    ______ ____
ROOT
ATOM      1  N   UNL     1       8.270   5.214  19.972  0.00  0.00    +0.000 N 
ATOM      2  C   UNL     1       7.906   6.022  18.895  0.00  0.00    +0.000 A 
ATOM      3  C   UNL     1       8.302   7.337  18.879  0.00  0.00    +0.000 A 
ATOM      4  C   UNL     1       7.849   8.064  17.815  0.00  0.00    +0.000 A 
ATOM      5 CL   UNL     1       8.269   9.719  17.640  0.00  0.00    +0.000 Cl
ATOM      6  N   UNL     1       7.067   7.587  16.843  0.00  0.00    +0.000 NA
ATOM      7  C   UNL     1       6.712   6.303  16.961  0.00  0.00    +0.000 A 
ATOM      8  N   UNL     1       7.108   5.488  17.955  0.00  0.00    +0.000 NA
ATOM      9  H   UNL     1       9.255   5.266  20.206  0.00  0.00    +0.000 HD
ATOM     10  H   UNL     1       7.955   4.261  19.800  0.00  0.00    +0.000 HD
ENDROOT
BRANCH   7  11
ATOM     11  S   UNL     1       5.601   5.737  15.697  0.00  0.00    +0.000 S 
BRANCH  11  12
ATOM     12  C   UNL     1       5.322   4.007  16.160  0.00  0.00    +0.000 C 
BRANCH  12  13
ATOM     13  C   UNL     1       4.347   3.993  17.312  0.00  0.00    +0.000 C 
ATOM     14  C   UNL     1       3.998   2.902  18.017  0.00  0.00    +0.000 C 
BRANCH  14  15
ATOM     15  C   UNL     1       3.036   2.900  19.135  0.00  0.00    +0.000 A 
ATOM     16  C   UNL     1       3.424   2.697  20.466  0.00  0.00    +0.000 A 
ATOM     17  C   UNL     1       2.479   2.688  21.496  0.00  0.00    +0.000 A 
ATOM     18  C   UNL     1       1.133   2.907  21.212  0.00  0.00    +0.000 A 
ATOM     19  C   UNL     1       0.736   3.152  19.900  0.00  0.00    +0.000 A 
ATOM     20  C   UNL     1       1.682   3.157  18.870  0.00  0.00    +0.000 A 
ENDBRANCH  14  15
ENDBRANCH  12  13
ENDBRANCH  11  12
ENDBRANCH   7  11
TORSDOF 4
ENDMDL
MODEL 3
REMARK VINA RESULT:      -7.2      4.094      8.408
REMARK  Name = 
REMARK  4 active torsions:
REMARK  status: ('A' for Active; 'I' for Inactive)
REMARK    1  A    between atoms: C_7  and  S_8
REMARK    2  A    between atoms: S_8  and  C_9
REMARK    3  A    between atoms: C_9  and  C_10
REMARK    4  A    between atoms: C_11  and  C_12
REMARK                            x       y       z     vdW  Elec       q    Type
REMARK                         _______ _______ _______ _____ _____    ______ ____
ROOT
ATOM      1  N   UNL     1       7.226   4.995  13.506  0.00  0.00    +0.000 N 
ATOM      2  C   UNL     1       6.782   4.956  14.828  0.00  0.00    +0.000 A 
ATOM      3  C   UNL     1       5.637   4.259  15.130  0.00  0.00    +0.000 A 
ATOM      4  C   UNL     1       5.248   4.327  16.438  0.00  0.00    +0.000 A 
ATOM      5 CL   UNL     1       3.847   3.498  16.981  0.00  0.00    +0.000 Cl
ATOM      6  N   UNL     1       5.887   5.014  17.389  0.00  0.00    +0.000 NA
ATOM      7  C   UNL     1       6.976   5.682  16.991  0.00  0.00    +0.000 A 
ATOM      8  N   UNL     1       7.460   5.677  15.736  0.00  0.00    +0.000 NA
ATOM      9  H   UNL     1       7.265   4.084  13.062  0.00  0.00    +0.000 HD
ATOM     10  H   UNL     1       8.112   5.493  13.463  0.00  0.00    +0.000 HD
ENDROOT
BRANCH   7  11
ATOM     11  S   UNL     1       7.740   6.652  18.267  0.00  0.00    +0.000 S 
BRANCH  11  12
ATOM     12  C   UNL     1       7.499   8.347  17.674  0.00  0.00    +0.000 C 
BRANCH  12  13
ATOM     13  C   UNL     1       8.537   9.217  18.338  0.00  0.00    +0.000 C 
ATOM     14  C   UNL     1       9.025  10.363  17.831  0.00  0.00    +0.000 C 
BRANCH  14  15
ATOM     15  C   UNL     1      10.048  11.199  18.487  0.00  0.00    +0.000 A 
ATOM     16  C   UNL     1      10.975  11.965  17.766  0.00  0.00    +0.000 A 
ATOM     17  C   UNL     1      11.940  12.733  18.425  0.00  0.00    +0.000 A 
ATOM     18  C   UNL     1      11.976  12.766  19.817  0.00  0.00    +0.000 A 
ATOM     19  C   UNL     1      11.035  12.045  20.549  0.00  0.00    +0.000 A 
ATOM     20  C   UNL     1      10.074  11.273  19.889  0.00  0.00    +0.000 A 
ENDBRANCH  14  15
ENDBRANCH  12  13
ENDBRANCH  11  12
ENDBRANCH   7  11
TORSDOF 4
ENDMDL
MODEL 4
REMARK VINA RESULT:      -7.0      3.733      7.642
REMARK  Name = 
REMARK  4 active torsions:
REMARK  status: ('A' for Active; 'I' for Inactive)
REMARK    1  A    between atoms: C_7  and  S_8
REMARK    2  A    between atoms: S_8  and  C_9
REMARK    3  A    between atoms: C_9  and  C_10
REMARK    4  A    between atoms: C_11  and  C_12
REMARK                            x       y       z     vdW  Elec       q    Type
REMARK                         _______ _______ _______ _____ _____    ______ ____
ROOT
ATOM      1  N   UNL     1       4.195   2.183  19.548  0.00  0.00    +0.000 N 
ATOM      2  C   UNL     1       4.489   3.508  19.229  0.00  0.00    +0.000 A 
ATOM      3  C   UNL     1       3.469   4.353  18.864  0.00  0.00    +0.000 A 
ATOM      4  C   UNL     1       3.861   5.614  18.513  0.00  0.00    +0.000 A 
ATOM      5 CL   UNL     1       2.705   6.794  18.047  0.00  0.00    +0.000 Cl
ATOM      6  N   UNL     1       5.125   6.041  18.492  0.00  0.00    +0.000 NA
ATOM      7  C   UNL     1       6.050   5.138  18.837  0.00  0.00    +0.000 A 
ATOM      8  N   UNL     1       5.782   3.875  19.215  0.00  0.00    +0.000 NA
ATOM      9  H   UNL     1       3.431   2.083  20.208  0.00  0.00    +0.000 HD
ATOM     10  H   UNL     1       5.044   1.714  19.855  0.00  0.00    +0.000 HD
ENDROOT
BRANCH   7  11
ATOM     11  S   UNL     1       7.721   5.723  18.710  0.00  0.00    +0.000 S 
BRANCH  11  12
ATOM     12  C   UNL     1       7.543   7.211  17.689  0.00  0.00    +0.000 C 
BRANCH  12  13
ATOM     13  C   UNL     1       8.309   8.323  18.363  0.00  0.00    +0.000 C 
ATOM     14  C   UNL     1       8.349   9.599  17.942  0.00  0.00    +0.000 C 
BRANCH  14  15
ATOM     15  C   UNL     1       9.110  10.675  18.605  0.00  0.00    +0.000 A 
ATOM     16  C   UNL     1       9.559  10.577  19.930  0.00  0.00    +0.000 A 
ATOM     17  C   UNL     1      10.265  11.625  20.528  0.00  0.00    +0.000 A 
ATOM     18  C   UNL     1      10.552  12.778  19.801  0.00  0.00    +0.000 A 
ATOM     19  C   UNL     1      10.150  12.875  18.472  0.00  0.00    +0.000 A 
ATOM     20  C   UNL     1       9.440  11.828  17.876  0.00  0.00    +0.000 A 
ENDBRANCH  14  15
ENDBRANCH  12  13
ENDBRANCH  11  12
ENDBRANCH   7  11
TORSDOF 4
ENDMDL
MODEL 5
REMARK VINA RESULT:      -7.0      3.095      4.219
REMARK  Name = 
REMARK  4 active torsions:
REMARK  status: ('A' for Active; 'I' for Inactive)
REMARK    1  A    between atoms: C_7  and  S_8
REMARK    2  A    between atoms: S_8  and  C_9
REMARK    3  A    between atoms: C_9  and  C_10
REMARK    4  A    between atoms: C_11  and  C_12
REMARK                            x       y       z     vdW  Elec       q    Type
REMARK                         _______ _______ _______ _____ _____    ______ ____
ROOT
ATOM      1  N   UNL     1       5.816   2.332  11.964  0.00  0.00    +0.000 N 
ATOM      2  C   UNL     1       6.394   3.435  12.591  0.00  0.00    +0.000 A 
ATOM      3  C   UNL     1       7.120   4.329  11.842  0.00  0.00    +0.000 A 
ATOM      4  C   UNL     1       7.697   5.344  12.552  0.00  0.00    +0.000 A 
ATOM      5 CL   UNL     1       8.623   6.552  11.760  0.00  0.00    +0.000 Cl
ATOM      6  N   UNL     1       7.608   5.495  13.875  0.00  0.00    +0.000 NA
ATOM      7  C   UNL     1       6.903   4.558  14.521  0.00  0.00    +0.000 A 
ATOM      8  N   UNL     1       6.280   3.525  13.927  0.00  0.00    +0.000 NA
ATOM      9  H   UNL     1       5.290   2.567  11.130  0.00  0.00    +0.000 HD
ATOM     10  H   UNL     1       5.266   1.809  12.642  0.00  0.00    +0.000 HD
ENDROOT
BRANCH   7  11
ATOM     11  S   UNL     1       6.887   4.750  16.286  0.00  0.00    +0.000 S 
BRANCH  11  12
ATOM     12  C   UNL     1       5.429   5.792  16.559  0.00  0.00    +0.000 C 
BRANCH  12  13
ATOM     13  C   UNL     1       4.618   5.165  17.665  0.00  0.00    +0.000 C 
ATOM     14  C   UNL     1       3.303   4.892  17.600  0.00  0.00    +0.000 C 
BRANCH  14  15
ATOM     15  C   UNL     1       2.519   4.287  18.693  0.00  0.00    +0.000 A 
ATOM     16  C   UNL     1       1.436   3.427  18.461  0.00  0.00    +0.000 A 
ATOM     17  C   UNL     1       0.709   2.885  19.525  0.00  0.00    +0.000 A 
ATOM     18  C   UNL     1       1.068   3.178  20.838  0.00  0.00    +0.000 A 
ATOM     19  C   UNL     1       2.167   3.997  21.087  0.00  0.00    +0.000 A 
ATOM     20  C   UNL     1       2.891   4.542  20.022  0.00  0.00    +0.000 A 
ENDBRANCH  14  15
ENDBRANCH  12  13
ENDBRANCH  11  12
ENDBRANCH   7  11
TORSDOF 4
ENDMDL
MODEL 6
REMARK VINA RESULT:      -6.9      3.670      6.559
REMARK  Name = 
REMARK  4 active torsions:
REMARK  status: ('A' for Active; 'I' for Inactive)
REMARK    1  A    between atoms: C_7  and  S_8
REMARK    2  A    between atoms: S_8  and  C_9
REMARK    3  A    between atoms: C_9  and  C_10
REMARK    4  A    between atoms: C_11  and  C_12
REMARK                            x       y       z     vdW  Elec       q    Type
REMARK                         _______ _______ _______ _____ _____    ______ ____
ROOT
ATOM      1  N   UNL     1       3.819   0.789  18.078  0.00  0.00    +0.000 N 
ATOM      2  C   UNL     1       3.646   2.063  18.618  0.00  0.00    +0.000 A 
ATOM      3  C   UNL     1       2.460   2.373  19.238  0.00  0.00    +0.000 A 
ATOM      4  C   UNL     1       2.360   3.661  19.684  0.00  0.00    +0.000 A 
ATOM      5 CL   UNL     1       0.947   4.202  20.493  0.00  0.00    +0.000 Cl
ATOM      6  N   UNL     1       3.307   4.592  19.542  0.00  0.00    +0.000 NA
ATOM      7  C   UNL     1       4.415   4.202  18.902  0.00  0.00    +0.000 A 
ATOM      8  N   UNL     1       4.630   2.959  18.433  0.00  0.00    +0.000 NA
ATOM      9  H   UNL     1       3.572   0.039  18.713  0.00  0.00    +0.000 HD
ATOM     10  H   UNL     1       4.767   0.703  17.715  0.00  0.00    +0.000 HD
ENDROOT
BRANCH   7  11
ATOM     11  S   UNL     1       5.607   5.495  18.658  0.00  0.00    +0.000 S 
BRANCH  11  12
ATOM     12  C   UNL     1       4.775   6.583  17.472  0.00  0.00    +0.000 C 
BRANCH  12  13
ATOM     13  C   UNL     1       5.068   6.060  16.087  0.00  0.00    +0.000 C 
ATOM     14  C   UNL     1       6.125   5.298  15.756  0.00  0.00    +0.000 C 
BRANCH  14  15
ATOM     15  C   UNL     1       6.405   4.802  14.395  0.00  0.00    +0.000 A 
ATOM     16  C   UNL     1       5.609   3.835  13.765  0.00  0.00    +0.000 A 
ATOM     17  C   UNL     1       5.916   3.379  12.479  0.00  0.00    +0.000 A 
ATOM     18  C   UNL     1       7.011   3.903  11.795  0.00  0.00    +0.000 A 
ATOM     19  C   UNL     1       7.786   4.895  12.390  0.00  0.00    +0.000 A 
ATOM     20  C   UNL     1       7.481   5.347  13.678  0.00  0.00    +0.000 A 
ENDBRANCH  14  15
ENDBRANCH  12  13
ENDBRANCH  11  12
ENDBRANCH   7  11
TORSDOF 4
ENDMDL
MODEL 7
REMARK VINA RESULT:      -6.8      3.052      4.190
REMARK  Name = 
REMARK  4 active torsions:
REMARK  status: ('A' for Active; 'I' for Inactive)
REMARK    1  A    between atoms: C_7  and  S_8
REMARK    2  A    between atoms: S_8  and  C_9
REMARK    3  A    between atoms: C_9  and  C_10
REMARK    4  A    between atoms: C_11  and  C_12
REMARK                            x       y       z     vdW  Elec       q    Type
REMARK                         _______ _______ _______ _____ _____    ______ ____
ROOT
ATOM      1  N   UNL     1       8.025   5.640  19.702  0.00  0.00    +0.000 N 
ATOM      2  C   UNL     1       6.937   5.317  18.892  0.00  0.00    +0.000 A 
ATOM      3  C   UNL     1       6.705   6.053  17.756  0.00  0.00    +0.000 A 
ATOM      4  C   UNL     1       5.585   5.701  17.058  0.00  0.00    +0.000 A 
ATOM      5 CL   UNL     1       5.163   6.515  15.607  0.00  0.00    +0.000 Cl
ATOM      6  N   UNL     1       4.737   4.733  17.414  0.00  0.00    +0.000 NA
ATOM      7  C   UNL     1       5.034   4.090  18.550  0.00  0.00    +0.000 A 
ATOM      8  N   UNL     1       6.115   4.340  19.311  0.00  0.00    +0.000 NA
ATOM      9  H   UNL     1       8.895   5.747  19.194  0.00  0.00    +0.000 HD
ATOM     10  H   UNL     1       8.092   4.965  20.462  0.00  0.00    +0.000 HD
ENDROOT
BRANCH   7  11
ATOM     11  S   UNL     1       3.833   2.873  19.031  0.00  0.00    +0.000 S 
BRANCH  11  12
ATOM     12  C   UNL     1       2.818   3.772  20.234  0.00  0.00    +0.000 C 
BRANCH  12  13
ATOM     13  C   UNL     1       2.466   5.109  19.628  0.00  0.00    +0.000 C 
ATOM     14  C   UNL     1       2.303   6.251  20.318  0.00  0.00    +0.000 C 
BRANCH  14  15
ATOM     15  C   UNL     1       1.948   7.550  19.713  0.00  0.00    +0.000 A 
ATOM     16  C   UNL     1       1.254   8.546  20.415  0.00  0.00    +0.000 A 
ATOM     17  C   UNL     1       0.924   9.758  19.802  0.00  0.00    +0.000 A 
ATOM     18  C   UNL     1       1.303  10.001  18.484  0.00  0.00    +0.000 A 
ATOM     19  C   UNL     1       2.030   9.039  17.786  0.00  0.00    +0.000 A 
ATOM     20  C   UNL     1       2.357   7.825  18.399  0.00  0.00    +0.000 A 
ENDBRANCH  14  15
ENDBRANCH  12  13
ENDBRANCH  11  12
ENDBRANCH   7  11
TORSDOF 4
ENDMDL
MODEL 8
REMARK VINA RESULT:      -6.7      3.369      4.452
REMARK  Name = 
REMARK  4 active torsions:
REMARK  status: ('A' for Active; 'I' for Inactive)
REMARK    1  A    between atoms: C_7  and  S_8
REMARK    2  A    between atoms: S_8  and  C_9
REMARK    3  A    between atoms: C_9  and  C_10
REMARK    4  A    between atoms: C_11  and  C_12
REMARK                            x       y       z     vdW  Elec       q    Type
REMARK                         _______ _______ _______ _____ _____    ______ ____
ROOT
ATOM      1  N   UNL     1       8.918   6.365  12.212  0.00  0.00    +0.000 N 
ATOM      2  C   UNL     1       8.042   5.453  12.799  0.00  0.00    +0.000 A 
ATOM      3  C   UNL     1       7.262   4.659  11.994  0.00  0.00    +0.000 A 
ATOM      4  C   UNL     1       6.393   3.839  12.657  0.00  0.00    +0.000 A 
ATOM      5 CL   UNL     1       5.361   2.773  11.796  0.00  0.00    +0.000 Cl
ATOM      6  N   UNL     1       6.260   3.785  13.985  0.00  0.00    +0.000 NA
ATOM      7  C   UNL     1       7.043   4.616  14.682  0.00  0.00    +0.000 A 
ATOM      8  N   UNL     1       7.944   5.455  14.139  0.00  0.00    +0.000 NA
ATOM      9  H   UNL     1       9.497   5.963  11.483  0.00  0.00    +0.000 HD
ATOM     10  H   UNL     1       9.462   6.826  12.939  0.00  0.00    +0.000 HD
ENDROOT
BRANCH   7  11
ATOM     11  S   UNL     1       6.768   4.574  16.436  0.00  0.00    +0.000 S 
BRANCH  11  12
ATOM     12  C   UNL     1       5.168   5.408  16.606  0.00  0.00    +0.000 C 
BRANCH  12  13
ATOM     13  C   UNL     1       4.444   4.777  17.771  0.00  0.00    +0.000 C 
ATOM     14  C   UNL     1       3.110   4.763  17.935  0.00  0.00    +0.000 C 
BRANCH  14  15
ATOM     15  C   UNL     1       2.416   4.151  19.085  0.00  0.00    +0.000 A 
ATOM     16  C   UNL     1       2.800   4.386  20.412  0.00  0.00    +0.000 A 
ATOM     17  C   UNL     1       2.125   3.776  21.474  0.00  0.00    +0.000 A 
ATOM     18  C   UNL     1       1.041   2.938  21.223  0.00  0.00    +0.000 A 
ATOM     19  C   UNL     1       0.620   2.727  19.913  0.00  0.00    +0.000 A 
ATOM     20  C   UNL     1       1.298   3.335  18.851  0.00  0.00    +0.000 A 
ENDBRANCH  14  15
ENDBRANCH  12  13
ENDBRANCH  11  12
ENDBRANCH   7  11
TORSDOF 4
ENDMDL
MODEL 9
REMARK VINA RESULT:      -6.7      3.894      6.745
REMARK  Name = 
REMARK  4 active torsions:
REMARK  status: ('A' for Active; 'I' for Inactive)
REMARK    1  A    between atoms: C_7  and  S_8
REMARK    2  A    between atoms: S_8  and  C_9
REMARK    3  A    between atoms: C_9  and  C_10
REMARK    4  A    between atoms: C_11  and  C_12
REMARK                            x       y       z     vdW  Elec       q    Type
REMARK                         _______ _______ _______ _____ _____    ______ ____
ROOT
ATOM      1  N   UNL     1       5.157   2.054  19.917  0.00  0.00    +0.000 N 
ATOM      2  C   UNL     1       4.080   2.854  19.540  0.00  0.00    +0.000 A 
ATOM      3  C   UNL     1       2.814   2.320  19.545  0.00  0.00    +0.000 A 
ATOM      4  C   UNL     1       1.831   3.160  19.104  0.00  0.00    +0.000 A 
ATOM      5 CL   UNL     1       0.193   2.649  19.064  0.00  0.00    +0.000 Cl
ATOM      6  N   UNL     1       2.030   4.409  18.675  0.00  0.00    +0.000 NA
ATOM      7  C   UNL     1       3.300   4.830  18.682  0.00  0.00    +0.000 A 
ATOM      8  N   UNL     1       4.346   4.098  19.107  0.00  0.00    +0.000 NA
ATOM      9  H   UNL     1       5.011   1.558  20.789  0.00  0.00    +0.000 HD
ATOM     10  H   UNL     1       6.008   2.614  19.920  0.00  0.00    +0.000 HD
ENDROOT
BRANCH   7  11
ATOM     11  S   UNL     1       3.529   6.462  18.021  0.00  0.00    +0.000 S 
BRANCH  11  12
ATOM     12  C   UNL     1       5.291   6.474  17.596  0.00  0.00    +0.000 C 
BRANCH  12  13
ATOM     13  C   UNL     1       5.431   5.910  16.204  0.00  0.00    +0.000 C 
ATOM     14  C   UNL     1       6.560   5.392  15.689  0.00  0.00    +0.000 C 
BRANCH  14  15
ATOM     15  C   UNL     1       6.685   4.853  14.322  0.00  0.00    +0.000 A 
ATOM     16  C   UNL     1       7.674   5.285  13.426  0.00  0.00    +0.000 A 
ATOM     17  C   UNL     1       7.751   4.760  12.133  0.00  0.00    +0.000 A 
ATOM     18  C   UNL     1       6.853   3.777  11.724  0.00  0.00    +0.000 A 
ATOM     19  C   UNL     1       5.891   3.306  12.614  0.00  0.00    +0.000 A 
ATOM     20  C   UNL     1       5.813   3.835  13.906  0.00  0.00    +0.000 A 
ENDBRANCH  14  15
ENDBRANCH  12  13
ENDBRANCH  11  12
ENDBRANCH   7  11
TORSDOF 4
ENDMDL
