MODEL 1
REMARK VINA RESULT:      -6.9      0.000      0.000
REMARK  Name = 
REMARK  8 active torsions:
REMARK  status: ('A' for Active; 'I' for Inactive)
REMARK    1  A    between atoms: C_1  and  O_2
REMARK    2  A    between atoms: O_2  and  C_3
REMARK    3  A    between atoms: C_8  and  C_9
REMARK    4  A    between atoms: N_11  and  C_12
REMARK    5  A    between atoms: C_12  and  C_13
REMARK    6  A    between atoms: C_13  and  O_14
REMARK    7  A    between atoms: C_19  and  O_20
REMARK    8  A    between atoms: O_20  and  C_21
REMARK                            x       y       z     vdW  Elec       q    Type
REMARK                         _______ _______ _______ _____ _____    ______ ____
ROOT
ATOM      1  C   UNL     1       2.031   3.411  19.387  0.00  0.00    +0.000 A 
ATOM      2  C   UNL     1       2.568   2.286  18.752  0.00  0.00    +0.000 A 
ATOM      3  C   UNL     1       3.483   2.422  17.712  0.00  0.00    +0.000 A 
ATOM      4  C   UNL     1       3.911   3.687  17.293  0.00  0.00    +0.000 A 
ATOM      5  C   UNL     1       4.904   3.715  16.217  0.00  0.00    +0.000 A 
ATOM      6  C   UNL     1       5.407   4.834  15.682  0.00  0.00    +0.000 A 
ATOM      7  S   UNL     1       4.920   6.413  16.146  0.00  0.00    +0.000 S 
ATOM      8  C   UNL     1       3.906   6.193  17.558  0.00  0.00    +0.000 A 
ATOM      9  O   UNL     1       3.669   7.197  18.215  0.00  0.00    +0.000 OA
ATOM     10  C   UNL     1       3.391   4.832  17.925  0.00  0.00    +0.000 A 
ATOM     11  C   UNL     1       2.405   4.697  18.947  0.00  0.00    +0.000 A 
ENDROOT
BRANCH   6  12
ATOM     12  C   UNL     1       6.448   4.696  14.598  0.00  0.00    +0.000 C 
ATOM     13  O   UNL     1       7.543   5.241  14.662  0.00  0.00    +0.000 OA
ATOM     14  N   UNL     1       6.059   3.917  13.530  0.00  0.00    +0.000 N 
ATOM     15  H   UNL     1       5.135   3.498  13.558  0.00  0.00    +0.000 HD
BRANCH  14  16
ATOM     16  C   UNL     1       6.893   3.673  12.370  0.00  0.00    +0.000 C 
BRANCH  16  17
ATOM     17  C   UNL     1       6.353   2.528  11.520  0.00  0.00    +0.000 C 
BRANCH  17  18
ATOM     18  O   UNL     1       7.362   1.536  11.335  0.00  0.00    +0.000 OA
ATOM     19  H   UNL     1       7.978   1.632  12.083  0.00  0.00    +0.000 HD
ENDBRANCH  17  18
ENDBRANCH  16  17
ENDBRANCH  14  16
ENDBRANCH   6  12
BRANCH   1  21
ATOM     20  C   UNL     1       1.584   2.686  21.611  0.00  0.00    +0.000 C 
ATOM     21  O   UNL     1       1.120   3.282  20.403  0.00  0.00    +0.000 OA
ENDBRANCH   1  21
BRANCH  11  22
ATOM     22  O   UNL     1       1.887   5.879  19.407  0.00  0.00    +0.000 OA
ATOM     23  C   UNL     1       1.911   6.231  20.779  0.00  0.00    +0.000 C 
ENDBRANCH  11  22
TORSDOF 6
ENDMDL
MODEL 2
REMARK VINA RESULT:      -6.9      1.141      1.141
REMARK  Name = 
REMARK  8 active torsions:
REMARK  status: ('A' for Active; 'I' for Inactive)
REMARK    1  A    between atoms: C_1  and  O_2
REMARK    2  A    between atoms: O_2  and  C_3
REMARK    3  A    between atoms: C_8  and  C_9
REMARK    4  A    between atoms: N_11  and  C_12
REMARK    5  A    between atoms: C_12  and  C_13
REMARK    6  A    between atoms: C_13  and  O_14
REMARK    7  A    between atoms: C_19  and  O_20
REMARK    8  A    between atoms: O_20  and  C_21
REMARK                            x       y       z     vdW  Elec       q    Type
REMARK                         _______ _______ _______ _____ _____    ______ ____
ROOT
ATOM      1  C   UNL     1       1.793   3.261  19.432  0.00  0.00    +0.000 A 
ATOM      2  C   UNL     1       1.736   2.465  18.283  0.00  0.00    +0.000 A 
ATOM      3  C   UNL     1       2.634   2.657  17.236  0.00  0.00    +0.000 A 
ATOM      4  C   UNL     1       3.634   3.633  17.318  0.00  0.00    +0.000 A 
ATOM      5  C   UNL     1       4.548   3.726  16.177  0.00  0.00    +0.000 A 
ATOM      6  C   UNL     1       5.546   4.612  16.079  0.00  0.00    +0.000 A 
ATOM      7  S   UNL     1       5.872   5.814  17.261  0.00  0.00    +0.000 S 
ATOM      8  C   UNL     1       4.835   5.425  18.620  0.00  0.00    +0.000 A 
ATOM      9  O   UNL     1       5.095   5.986  19.675  0.00  0.00    +0.000 OA
ATOM     10  C   UNL     1       3.715   4.439  18.469  0.00  0.00    +0.000 A 
ATOM     11  C   UNL     1       2.757   4.287  19.515  0.00  0.00    +0.000 A 
ENDROOT
BRANCH   6  12
ATOM     12  C   UNL     1       6.422   4.560  14.852  0.00  0.00    +0.000 C 
ATOM     13  O   UNL     1       7.515   5.109  14.799  0.00  0.00    +0.000 OA
ATOM     14  N   UNL     1       5.884   3.856  13.796  0.00  0.00    +0.000 N 
ATOM     15  H   UNL     1       4.973   3.427  13.926  0.00  0.00    +0.000 HD
BRANCH  14  16
ATOM     16  C   UNL     1       6.544   3.702  12.516  0.00  0.00    +0.000 C 
BRANCH  16  17
ATOM     17  C   UNL     1       5.930   2.570  11.698  0.00  0.00    +0.000 C 
BRANCH  17  18
ATOM     18  O   UNL     1       4.567   2.866  11.396  0.00  0.00    +0.000 OA
ATOM     19  H   UNL     1       4.551   3.793  11.097  0.00  0.00    +0.000 HD
ENDBRANCH  17  18
ENDBRANCH  16  17
ENDBRANCH  14  16
ENDBRANCH   6  12
BRANCH   1  21
ATOM     20  C   UNL     1       1.420   2.539  21.671  0.00  0.00    +0.000 C 
ATOM     21  O   UNL     1       0.903   3.084  20.459  0.00  0.00    +0.000 OA
ENDBRANCH   1  21
BRANCH  11  22
ATOM     22  O   UNL     1       2.863   5.200  20.530  0.00  0.00    +0.000 OA
ATOM     23  C   UNL     1       1.906   6.225  20.728  0.00  0.00    +0.000 C 
ENDBRANCH  11  22
TORSDOF 6
ENDMDL
MODEL 3
REMARK VINA RESULT:      -6.7      1.810      3.052
REMARK  Name = 
REMARK  8 active torsions:
REMARK  status: ('A' for Active; 'I' for Inactive)
REMARK    1  A    between atoms: C_1  and  O_2
REMARK    2  A    between atoms: O_2  and  C_3
REMARK    3  A    between atoms: C_8  and  C_9
REMARK    4  A    between atoms: N_11  and  C_12
REMARK    5  A    between atoms: C_12  and  C_13
REMARK    6  A    between atoms: C_13  and  O_14
REMARK    7  A    between atoms: C_19  and  O_20
REMARK    8  A    between atoms: O_20  and  C_21
REMARK                            x       y       z     vdW  Elec       q    Type
REMARK                         _______ _______ _______ _____ _____    ______ ____
ROOT
ATOM      1  C   UNL     1       2.296   7.010  19.646  0.00  0.00    +0.000 A 
ATOM      2  C   UNL     1       2.530   7.922  18.611  0.00  0.00    +0.000 A 
ATOM      3  C   UNL     1       3.386   7.606  17.561  0.00  0.00    +0.000 A 
ATOM      4  C   UNL     1       4.016   6.358  17.499  0.00  0.00    +0.000 A 
ATOM      5  C   UNL     1       4.868   6.115  16.332  0.00  0.00    +0.000 A 
ATOM      6  C   UNL     1       5.559   4.988  16.122  0.00  0.00    +0.000 A 
ATOM      7  S   UNL     1       5.590   3.672  17.224  0.00  0.00    +0.000 S 
ATOM      8  C   UNL     1       4.376   4.045  18.432  0.00  0.00    +0.000 A 
ATOM      9  O   UNL     1       4.037   3.122  19.160  0.00  0.00    +0.000 OA
ATOM     10  C   UNL     1       3.788   5.422  18.525  0.00  0.00    +0.000 A 
ATOM     11  C   UNL     1       2.961   5.767  19.635  0.00  0.00    +0.000 A 
ENDROOT
BRANCH   6  12
ATOM     12  C   UNL     1       6.369   4.879  14.854  0.00  0.00    +0.000 C 
ATOM     13  O   UNL     1       7.361   5.564  14.644  0.00  0.00    +0.000 OA
ATOM     14  N   UNL     1       5.892   3.953  13.951  0.00  0.00    +0.000 N 
ATOM     15  H   UNL     1       5.065   3.423  14.206  0.00  0.00    +0.000 HD
BRANCH  14  16
ATOM     16  C   UNL     1       6.501   3.704  12.661  0.00  0.00    +0.000 C 
BRANCH  16  17
ATOM     17  C   UNL     1       5.623   2.814  11.786  0.00  0.00    +0.000 C 
BRANCH  17  18
ATOM     18  O   UNL     1       4.319   3.379  11.664  0.00  0.00    +0.000 OA
ATOM     19  H   UNL     1       4.379   4.053  10.963  0.00  0.00    +0.000 HD
ENDBRANCH  17  18
ENDBRANCH  16  17
ENDBRANCH  14  16
ENDBRANCH   6  12
BRANCH   1  21
ATOM     20  C   UNL     1       1.141   8.700  20.864  0.00  0.00    +0.000 C 
ATOM     21  O   UNL     1       1.463   7.322  20.689  0.00  0.00    +0.000 OA
ENDBRANCH   1  21
BRANCH  11  22
ATOM     22  O   UNL     1       2.905   4.824  20.627  0.00  0.00    +0.000 OA
ATOM     23  C   UNL     1       1.692   4.203  21.010  0.00  0.00    +0.000 C 
ENDBRANCH  11  22
TORSDOF 6
ENDMDL
MODEL 4
REMARK VINA RESULT:      -6.5      2.879      4.756
REMARK  Name = 
REMARK  8 active torsions:
REMARK  status: ('A' for Active; 'I' for Inactive)
REMARK    1  A    between atoms: C_1  and  O_2
REMARK    2  A    between atoms: O_2  and  C_3
REMARK    3  A    between atoms: C_8  and  C_9
REMARK    4  A    between atoms: N_11  and  C_12
REMARK    5  A    between atoms: C_12  and  C_13
REMARK    6  A    between atoms: C_13  and  O_14
REMARK    7  A    between atoms: C_19  and  O_20
REMARK    8  A    between atoms: O_20  and  C_21
REMARK                            x       y       z     vdW  Elec       q    Type
REMARK                         _______ _______ _______ _____ _____    ______ ____
ROOT
ATOM      1  C   UNL     1       1.044   9.503  19.118  0.00  0.00    +0.000 A 
ATOM      2  C   UNL     1       1.714   9.742  17.913  0.00  0.00    +0.000 A 
ATOM      3  C   UNL     1       2.666   8.846  17.436  0.00  0.00    +0.000 A 
ATOM      4  C   UNL     1       2.960   7.670  18.135  0.00  0.00    +0.000 A 
ATOM      5  C   UNL     1       3.951   6.779  17.526  0.00  0.00    +0.000 A 
ATOM      6  C   UNL     1       4.364   5.627  18.066  0.00  0.00    +0.000 A 
ATOM      7  S   UNL     1       3.829   5.043  19.589  0.00  0.00    +0.000 S 
ATOM      8  C   UNL     1       2.520   6.108  20.063  0.00  0.00    +0.000 A 
ATOM      9  O   UNL     1       1.814   5.719  20.983  0.00  0.00    +0.000 OA
ATOM     10  C   UNL     1       2.292   7.406  19.346  0.00  0.00    +0.000 A 
ATOM     11  C   UNL     1       1.362   8.353  19.869  0.00  0.00    +0.000 A 
ENDROOT
BRANCH   6  12
ATOM     12  C   UNL     1       5.370   4.805  17.298  0.00  0.00    +0.000 C 
ATOM     13  O   UNL     1       6.394   4.370  17.810  0.00  0.00    +0.000 OA
ATOM     14  N   UNL     1       5.045   4.596  15.975  0.00  0.00    +0.000 N 
ATOM     15  H   UNL     1       4.174   4.988  15.632  0.00  0.00    +0.000 HD
BRANCH  14  16
ATOM     16  C   UNL     1       5.881   3.856  15.052  0.00  0.00    +0.000 C 
BRANCH  16  17
ATOM     17  C   UNL     1       6.799   4.781  14.258  0.00  0.00    +0.000 C 
BRANCH  17  18
ATOM     18  O   UNL     1       7.700   5.451  15.138  0.00  0.00    +0.000 OA
ATOM     19  H   UNL     1       7.668   4.965  15.981  0.00  0.00    +0.000 HD
ENDBRANCH  17  18
ENDBRANCH  16  17
ENDBRANCH  14  16
ENDBRANCH   6  12
BRANCH   1  21
ATOM     20  C   UNL     1       0.189  11.726  19.109  0.00  0.00    +0.000 C 
ATOM     21  O   UNL     1       0.115  10.389  19.598  0.00  0.00    +0.000 OA
ENDBRANCH   1  21
BRANCH  11  22
ATOM     22  O   UNL     1       0.862   8.045  21.106  0.00  0.00    +0.000 OA
ATOM     23  C   UNL     1       1.093   8.862  22.239  0.00  0.00    +0.000 C 
ENDBRANCH  11  22
TORSDOF 6
ENDMDL
MODEL 5
REMARK VINA RESULT:      -6.4      3.638      7.568
REMARK  Name = 
REMARK  8 active torsions:
REMARK  status: ('A' for Active; 'I' for Inactive)
REMARK    1  A    between atoms: C_1  and  O_2
REMARK    2  A    between atoms: O_2  and  C_3
REMARK    3  A    between atoms: C_8  and  C_9
REMARK    4  A    between atoms: N_11  and  C_12
REMARK    5  A    between atoms: C_12  and  C_13
REMARK    6  A    between atoms: C_13  and  O_14
REMARK    7  A    between atoms: C_19  and  O_20
REMARK    8  A    between atoms: O_20  and  C_21
REMARK                            x       y       z     vdW  Elec       q    Type
REMARK                         _______ _______ _______ _____ _____    ______ ____
ROOT
ATOM      1  C   UNL     1       5.057   4.523  16.709  0.00  0.00    +0.000 A 
ATOM      2  C   UNL     1       5.004   5.848  16.263  0.00  0.00    +0.000 A 
ATOM      3  C   UNL     1       4.238   6.798  16.932  0.00  0.00    +0.000 A 
ATOM      4  C   UNL     1       3.520   6.458  18.084  0.00  0.00    +0.000 A 
ATOM      5  C   UNL     1       2.777   7.542  18.731  0.00  0.00    +0.000 A 
ATOM      6  C   UNL     1       2.023   7.392  19.827  0.00  0.00    +0.000 A 
ATOM      7  S   UNL     1       1.773   5.886  20.612  0.00  0.00    +0.000 S 
ATOM      8  C   UNL     1       2.883   4.768  19.841  0.00  0.00    +0.000 A 
ATOM      9  O   UNL     1       3.069   3.707  20.420  0.00  0.00    +0.000 OA
ATOM     10  C   UNL     1       3.565   5.133  18.556  0.00  0.00    +0.000 A 
ATOM     11  C   UNL     1       4.299   4.144  17.836  0.00  0.00    +0.000 A 
ENDROOT
BRANCH   6  12
ATOM     12  C   UNL     1       1.343   8.614  20.392  0.00  0.00    +0.000 C 
ATOM     13  O   UNL     1       1.243   8.816  21.596  0.00  0.00    +0.000 OA
ATOM     14  N   UNL     1       0.836   9.475  19.443  0.00  0.00    +0.000 N 
ATOM     15  H   UNL     1       0.966   9.235  18.465  0.00  0.00    +0.000 HD
BRANCH  14  16
ATOM     16  C   UNL     1       0.123  10.695  19.766  0.00  0.00    +0.000 C 
BRANCH  16  17
ATOM     17  C   UNL     1       1.081  11.854  20.027  0.00  0.00    +0.000 C 
BRANCH  17  18
ATOM     18  O   UNL     1       1.354  11.960  21.423  0.00  0.00    +0.000 OA
ATOM     19  H   UNL     1       1.245  12.901  21.650  0.00  0.00    +0.000 HD
ENDBRANCH  17  18
ENDBRANCH  16  17
ENDBRANCH  14  16
ENDBRANCH   6  12
BRANCH   1  21
ATOM     20  C   UNL     1       6.239   3.919  14.732  0.00  0.00    +0.000 C 
ATOM     21  O   UNL     1       5.800   3.582  16.046  0.00  0.00    +0.000 OA
ENDBRANCH   1  21
BRANCH  11  22
ATOM     22  O   UNL     1       4.177   2.869  18.322  0.00  0.00    +0.000 OA
ATOM     23  C   UNL     1       3.353   1.899  17.701  0.00  0.00    +0.000 C 
ENDBRANCH  11  22
TORSDOF 6
ENDMDL
MODEL 6
REMARK VINA RESULT:      -6.4      3.562      7.323
REMARK  Name = 
REMARK  8 active torsions:
REMARK  status: ('A' for Active; 'I' for Inactive)
REMARK    1  A    between atoms: C_1  and  O_2
REMARK    2  A    between atoms: O_2  and  C_3
REMARK    3  A    between atoms: C_8  and  C_9
REMARK    4  A    between atoms: N_11  and  C_12
REMARK    5  A    between atoms: C_12  and  C_13
REMARK    6  A    between atoms: C_13  and  O_14
REMARK    7  A    between atoms: C_19  and  O_20
REMARK    8  A    between atoms: O_20  and  C_21
REMARK                            x       y       z     vdW  Elec       q    Type
REMARK                         _______ _______ _______ _____ _____    ______ ____
ROOT
ATOM      1  C   UNL     1       5.130   4.542  16.634  0.00  0.00    +0.000 A 
ATOM      2  C   UNL     1       5.043   5.861  16.174  0.00  0.00    +0.000 A 
ATOM      3  C   UNL     1       4.260   6.799  16.839  0.00  0.00    +0.000 A 
ATOM      4  C   UNL     1       3.559   6.456  18.001  0.00  0.00    +0.000 A 
ATOM      5  C   UNL     1       2.796   7.528  18.643  0.00  0.00    +0.000 A 
ATOM      6  C   UNL     1       2.055   7.373  19.746  0.00  0.00    +0.000 A 
ATOM      7  S   UNL     1       1.847   5.869  20.549  0.00  0.00    +0.000 S 
ATOM      8  C   UNL     1       2.977   4.770  19.781  0.00  0.00    +0.000 A 
ATOM      9  O   UNL     1       3.193   3.720  20.370  0.00  0.00    +0.000 OA
ATOM     10  C   UNL     1       3.640   5.137  18.487  0.00  0.00    +0.000 A 
ATOM     11  C   UNL     1       4.391   4.158  17.772  0.00  0.00    +0.000 A 
ENDROOT
BRANCH   6  12
ATOM     12  C   UNL     1       1.350   8.584  20.304  0.00  0.00    +0.000 C 
ATOM     13  O   UNL     1       1.003   8.664  21.476  0.00  0.00    +0.000 OA
ATOM     14  N   UNL     1       1.121   9.585  19.385  0.00  0.00    +0.000 N 
ATOM     15  H   UNL     1       1.446   9.440  18.434  0.00  0.00    +0.000 HD
BRANCH  14  16
ATOM     16  C   UNL     1       0.438  10.823  19.700  0.00  0.00    +0.000 C 
BRANCH  16  17
ATOM     17  C   UNL     1      -0.865  10.962  18.919  0.00  0.00    +0.000 C 
BRANCH  17  18
ATOM     18  O   UNL     1      -0.720  10.393  17.618  0.00  0.00    +0.000 OA
ATOM     19  H   UNL     1       0.047  10.836  17.212  0.00  0.00    +0.000 HD
ENDBRANCH  17  18
ENDBRANCH  16  17
ENDBRANCH  14  16
ENDBRANCH   6  12
BRANCH   1  21
ATOM     20  C   UNL     1       6.260   3.919  14.633  0.00  0.00    +0.000 C 
ATOM     21  O   UNL     1       5.890   3.612  15.975  0.00  0.00    +0.000 OA
ENDBRANCH   1  21
BRANCH  11  22
ATOM     22  O   UNL     1       4.304   2.886  18.272  0.00  0.00    +0.000 OA
ATOM     23  C   UNL     1       3.446   1.910  17.709  0.00  0.00    +0.000 C 
ENDBRANCH  11  22
TORSDOF 6
ENDMDL
MODEL 7
REMARK VINA RESULT:      -6.3      3.800      7.902
REMARK  Name = 
REMARK  8 active torsions:
REMARK  status: ('A' for Active; 'I' for Inactive)
REMARK    1  A    between atoms: C_1  and  O_2
REMARK    2  A    between atoms: O_2  and  C_3
REMARK    3  A    between atoms: C_8  and  C_9
REMARK    4  A    between atoms: N_11  and  C_12
REMARK    5  A    between atoms: C_12  and  C_13
REMARK    6  A    between atoms: C_13  and  O_14
REMARK    7  A    between atoms: C_19  and  O_20
REMARK    8  A    between atoms: O_20  and  C_21
REMARK                            x       y       z     vdW  Elec       q    Type
REMARK                         _______ _______ _______ _____ _____    ______ ____
ROOT
ATOM      1  C   UNL     1       5.146   4.898  16.830  0.00  0.00    +0.000 A 
ATOM      2  C   UNL     1       5.058   6.135  16.183  0.00  0.00    +0.000 A 
ATOM      3  C   UNL     1       4.226   7.138  16.670  0.00  0.00    +0.000 A 
ATOM      4  C   UNL     1       3.475   6.946  17.835  0.00  0.00    +0.000 A 
ATOM      5  C   UNL     1       2.661   8.079  18.280  0.00  0.00    +0.000 A 
ATOM      6  C   UNL     1       1.869   8.064  19.359  0.00  0.00    +0.000 A 
ATOM      7  S   UNL     1       1.649   6.685  20.359  0.00  0.00    +0.000 S 
ATOM      8  C   UNL     1       2.836   5.517  19.809  0.00  0.00    +0.000 A 
ATOM      9  O   UNL     1       3.042   4.567  20.552  0.00  0.00    +0.000 OA
ATOM     10  C   UNL     1       3.555   5.712  18.508  0.00  0.00    +0.000 A 
ATOM     11  C   UNL     1       4.359   4.660  17.976  0.00  0.00    +0.000 A 
ENDROOT
BRANCH   6  12
ATOM     12  C   UNL     1       1.116   9.324  19.704  0.00  0.00    +0.000 C 
ATOM     13  O   UNL     1       0.709  10.104  18.852  0.00  0.00    +0.000 OA
ATOM     14  N   UNL     1       0.934   9.528  21.055  0.00  0.00    +0.000 N 
ATOM     15  H   UNL     1       1.298   8.830  21.694  0.00  0.00    +0.000 HD
BRANCH  14  16
ATOM     16  C   UNL     1       0.260  10.686  21.607  0.00  0.00    +0.000 C 
BRANCH  16  17
ATOM     17  C   UNL     1      -0.525  10.332  22.867  0.00  0.00    +0.000 C 
BRANCH  17  18
ATOM     18  O   UNL     1       0.315   9.641  23.790  0.00  0.00    +0.000 OA
ATOM     19  H   UNL     1       1.041   9.261  23.264  0.00  0.00    +0.000 HD
ENDBRANCH  17  18
ENDBRANCH  16  17
ENDBRANCH  14  16
ENDBRANCH   6  12
BRANCH   1  21
ATOM     20  C   UNL     1       6.684   4.189  15.156  0.00  0.00    +0.000 C 
ATOM     21  O   UNL     1       5.955   3.902  16.347  0.00  0.00    +0.000 OA
ENDBRANCH   1  21
BRANCH  11  22
ATOM     22  O   UNL     1       4.270   3.471  18.649  0.00  0.00    +0.000 OA
ATOM     23  C   UNL     1       3.622   2.338  18.098  0.00  0.00    +0.000 C 
ENDBRANCH  11  22
TORSDOF 6
ENDMDL
MODEL 8
REMARK VINA RESULT:      -6.3      3.030      4.801
REMARK  Name = 
REMARK  8 active torsions:
REMARK  status: ('A' for Active; 'I' for Inactive)
REMARK    1  A    between atoms: C_1  and  O_2
REMARK    2  A    between atoms: O_2  and  C_3
REMARK    3  A    between atoms: C_8  and  C_9
REMARK    4  A    between atoms: N_11  and  C_12
REMARK    5  A    between atoms: C_12  and  C_13
REMARK    6  A    between atoms: C_13  and  O_14
REMARK    7  A    between atoms: C_19  and  O_20
REMARK    8  A    between atoms: O_20  and  C_21
REMARK                            x       y       z     vdW  Elec       q    Type
REMARK                         _______ _______ _______ _____ _____    ______ ____
ROOT
ATOM      1  C   UNL     1       1.061   9.608  19.371  0.00  0.00    +0.000 A 
ATOM      2  C   UNL     1       1.652   9.839  18.124  0.00  0.00    +0.000 A 
ATOM      3  C   UNL     1       2.504   8.899  17.552  0.00  0.00    +0.000 A 
ATOM      4  C   UNL     1       2.773   7.687  18.198  0.00  0.00    +0.000 A 
ATOM      5  C   UNL     1       3.655   6.754  17.492  0.00  0.00    +0.000 A 
ATOM      6  C   UNL     1       4.032   5.562  17.970  0.00  0.00    +0.000 A 
ATOM      7  S   UNL     1       3.576   4.969  19.515  0.00  0.00    +0.000 S 
ATOM      8  C   UNL     1       2.379   6.100  20.115  0.00  0.00    +0.000 A 
ATOM      9  O   UNL     1       1.720   5.729  21.077  0.00  0.00    +0.000 OA
ATOM     10  C   UNL     1       2.182   7.430  19.449  0.00  0.00    +0.000 A 
ATOM     11  C   UNL     1       1.358   8.418  20.066  0.00  0.00    +0.000 A 
ENDROOT
BRANCH   6  12
ATOM     12  C   UNL     1       4.921   4.701  17.107  0.00  0.00    +0.000 C 
ATOM     13  O   UNL     1       4.609   3.568  16.763  0.00  0.00    +0.000 OA
ATOM     14  N   UNL     1       6.113   5.292  16.749  0.00  0.00    +0.000 N 
ATOM     15  H   UNL     1       6.292   6.237  17.074  0.00  0.00    +0.000 HD
BRANCH  14  16
ATOM     16  C   UNL     1       7.124   4.634  15.946  0.00  0.00    +0.000 C 
BRANCH  16  17
ATOM     17  C   UNL     1       6.786   4.691  14.459  0.00  0.00    +0.000 C 
BRANCH  17  18
ATOM     18  O   UNL     1       6.240   3.444  14.032  0.00  0.00    +0.000 OA
ATOM     19  H   UNL     1       5.378   3.650  13.627  0.00  0.00    +0.000 HD
ENDBRANCH  17  18
ENDBRANCH  16  17
ENDBRANCH  14  16
ENDBRANCH   6  12
BRANCH   1  21
ATOM     20  C   UNL     1       0.482  11.903  19.629  0.00  0.00    +0.000 C 
ATOM     21  O   UNL     1       0.230  10.536  19.943  0.00  0.00    +0.000 OA
ENDBRANCH   1  21
BRANCH  11  22
ATOM     22  O   UNL     1       0.934   8.106  21.330  0.00  0.00    +0.000 OA
ATOM     23  C   UNL     1      -0.388   8.364  21.768  0.00  0.00    +0.000 C 
ENDBRANCH  11  22
TORSDOF 6
ENDMDL
MODEL 9
REMARK VINA RESULT:      -6.3      5.003      8.011
REMARK  Name = 
REMARK  8 active torsions:
REMARK  status: ('A' for Active; 'I' for Inactive)
REMARK    1  A    between atoms: C_1  and  O_2
REMARK    2  A    between atoms: O_2  and  C_3
REMARK    3  A    between atoms: C_8  and  C_9
REMARK    4  A    between atoms: N_11  and  C_12
REMARK    5  A    between atoms: C_12  and  C_13
REMARK    6  A    between atoms: C_13  and  O_14
REMARK    7  A    between atoms: C_19  and  O_20
REMARK    8  A    between atoms: O_20  and  C_21
REMARK                            x       y       z     vdW  Elec       q    Type
REMARK                         _______ _______ _______ _____ _____    ______ ____
ROOT
ATOM      1  C   UNL     1      -0.844  11.303  22.457  0.00  0.00    +0.000 A 
ATOM      2  C   UNL     1      -0.650  10.143  23.214  0.00  0.00    +0.000 A 
ATOM      3  C   UNL     1       0.037   9.053  22.688  0.00  0.00    +0.000 A 
ATOM      4  C   UNL     1       0.574   9.098  21.397  0.00  0.00    +0.000 A 
ATOM      5  C   UNL     1       1.310   7.911  20.955  0.00  0.00    +0.000 A 
ATOM      6  C   UNL     1       1.871   7.775  19.748  0.00  0.00    +0.000 A 
ATOM      7  S   UNL     1       1.766   8.960  18.510  0.00  0.00    +0.000 S 
ATOM      8  C   UNL     1       1.047  10.367  19.271  0.00  0.00    +0.000 A 
ATOM      9  O   UNL     1       1.126  11.417  18.649  0.00  0.00    +0.000 OA
ATOM     10  C   UNL     1       0.399  10.258  20.620  0.00  0.00    +0.000 A 
ATOM     11  C   UNL     1      -0.359  11.353  21.133  0.00  0.00    +0.000 A 
ENDROOT
BRANCH   6  12
ATOM     12  C   UNL     1       2.623   6.500  19.454  0.00  0.00    +0.000 C 
ATOM     13  O   UNL     1       3.204   6.307  18.394  0.00  0.00    +0.000 OA
ATOM     14  N   UNL     1       2.592   5.573  20.473  0.00  0.00    +0.000 N 
ATOM     15  H   UNL     1       2.092   5.816  21.322  0.00  0.00    +0.000 HD
BRANCH  14  16
ATOM     16  C   UNL     1       3.227   4.273  20.393  0.00  0.00    +0.000 C 
BRANCH  16  17
ATOM     17  C   UNL     1       2.266   3.152  20.779  0.00  0.00    +0.000 C 
BRANCH  17  18
ATOM     18  O   UNL     1       2.702   2.526  21.984  0.00  0.00    +0.000 OA
ATOM     19  H   UNL     1       2.595   3.190  22.689  0.00  0.00    +0.000 HD
ENDBRANCH  17  18
ENDBRANCH  16  17
ENDBRANCH  14  16
ENDBRANCH   6  12
BRANCH   1  21
ATOM     20  C   UNL     1      -2.902  12.161  23.292  0.00  0.00    +0.000 C 
ATOM     21  O   UNL     1      -1.531  12.374  22.966  0.00  0.00    +0.000 OA
ENDBRANCH   1  21
BRANCH  11  22
ATOM     22  O   UNL     1      -0.563  12.378  20.248  0.00  0.00    +0.000 OA
ATOM     23  C   UNL     1      -1.835  12.654  19.691  0.00  0.00    +0.000 C 
ENDBRANCH  11  22
TORSDOF 6
ENDMDL
