MODEL 1
REMARK VINA RESULT:      -5.2      0.000      0.000
REMARK  Name = 
REMARK  5 active torsions:
REMARK  status: ('A' for Active; 'I' for Inactive)
REMARK    1  A    between atoms: C_1  and  C_2
REMARK    2  A    between atoms: C_2  and  C_3
REMARK    3  A    between atoms: C_2  and  C_4
REMARK    4  A    between atoms: C_4  and  S_5
REMARK    5  A    between atoms: S_5  and  C_6
REMARK                            x       y       z     vdW  Elec       q    Type
REMARK                         _______ _______ _______ _____ _____    ______ ____
ROOT
ATOM      1  C   UNL     1       4.056   3.409  18.491  0.00  0.00    +0.000 A 
ATOM      2  N   UNL     1       3.996   3.980  17.287  0.00  0.00    +0.000 NA
ATOM      3  S   UNL     1       5.278   5.043  17.213  0.00  0.00    +0.000 S 
ATOM      4  C   UNL     1       5.833   4.645  18.795  0.00  0.00    +0.000 A 
ATOM      5  N   UNL     1       6.936   5.173  19.356  0.00  0.00    +0.000 N 
ATOM      6  N   UNL     1       5.066   3.755  19.374  0.00  0.00    +0.000 NA
ATOM      7  H   UNL     1       7.650   5.549  18.745  0.00  0.00    +0.000 HD
ATOM      8  H   UNL     1       7.302   4.670  20.156  0.00  0.00    +0.000 HD
ENDROOT
BRANCH   1   9
ATOM      9  S   UNL     1       2.887   2.167  18.897  0.00  0.00    +0.000 S 
BRANCH   9  10
ATOM     10  C   UNL     1       1.348   3.140  18.912  0.00  0.00    +0.000 C 
BRANCH  10  12
ATOM     11  C   UNL     1       1.530   2.701  21.381  0.00  0.00    +0.000 C 
ATOM     12  C   UNL     1       1.006   3.672  20.318  0.00  0.00    +0.000 C 
ATOM     13  C   UNL     1       1.570   5.070  20.593  0.00  0.00    +0.000 C 
ENDBRANCH  10  12
ENDBRANCH   9  10
ENDBRANCH   1   9
TORSDOF 3
ENDMDL
MODEL 2
REMARK VINA RESULT:      -5.0      1.280      1.708
REMARK  Name = 
REMARK  5 active torsions:
REMARK  status: ('A' for Active; 'I' for Inactive)
REMARK    1  A    between atoms: C_1  and  C_2
REMARK    2  A    between atoms: C_2  and  C_3
REMARK    3  A    between atoms: C_2  and  C_4
REMARK    4  A    between atoms: C_4  and  S_5
REMARK    5  A    between atoms: S_5  and  C_6
REMARK                            x       y       z     vdW  Elec       q    Type
REMARK                         _______ _______ _______ _____ _____    ______ ____
ROOT
ATOM      1  C   UNL     1       5.105   4.389  18.211  0.00  0.00    +0.000 A 
ATOM      2  N   UNL     1       5.519   4.841  17.026  0.00  0.00    +0.000 NA
ATOM      3  S   UNL     1       6.975   5.604  17.302  0.00  0.00    +0.000 S 
ATOM      4  C   UNL     1       6.954   5.257  18.990  0.00  0.00    +0.000 A 
ATOM      5  N   UNL     1       7.942   5.598  19.837  0.00  0.00    +0.000 N 
ATOM      6  N   UNL     1       5.874   4.604  19.343  0.00  0.00    +0.000 NA
ATOM      7  H   UNL     1       8.866   5.758  19.454  0.00  0.00    +0.000 HD
ATOM      8  H   UNL     1       7.944   5.111  20.726  0.00  0.00    +0.000 HD
ENDROOT
BRANCH   1   9
ATOM      9  S   UNL     1       3.620   3.461  18.291  0.00  0.00    +0.000 S 
BRANCH   9  10
ATOM     10  C   UNL     1       2.841   4.190  19.766  0.00  0.00    +0.000 C 
BRANCH  10  12
ATOM     11  C   UNL     1       1.033   2.676  18.893  0.00  0.00    +0.000 C 
ATOM     12  C   UNL     1       1.452   3.587  20.052  0.00  0.00    +0.000 C 
ATOM     13  C   UNL     1       1.390   2.794  21.361  0.00  0.00    +0.000 C 
ENDBRANCH  10  12
ENDBRANCH   9  10
ENDBRANCH   1   9
TORSDOF 3
ENDMDL
MODEL 3
REMARK VINA RESULT:      -5.0      1.362      1.511
REMARK  Name = 
REMARK  5 active torsions:
REMARK  status: ('A' for Active; 'I' for Inactive)
REMARK    1  A    between atoms: C_1  and  C_2
REMARK    2  A    between atoms: C_2  and  C_3
REMARK    3  A    between atoms: C_2  and  C_4
REMARK    4  A    between atoms: C_4  and  S_5
REMARK    5  A    between atoms: S_5  and  C_6
REMARK                            x       y       z     vdW  Elec       q    Type
REMARK                         _______ _______ _______ _____ _____    ______ ____
ROOT
ATOM      1  C   UNL     1       5.150   4.558  18.229  0.00  0.00    +0.000 A 
ATOM      2  N   UNL     1       5.352   5.404  17.218  0.00  0.00    +0.000 NA
ATOM      3  S   UNL     1       6.746   6.242  17.583  0.00  0.00    +0.000 S 
ATOM      4  C   UNL     1       6.990   5.394  19.063  0.00  0.00    +0.000 A 
ATOM      5  N   UNL     1       8.043   5.594  19.876  0.00  0.00    +0.000 N 
ATOM      6  N   UNL     1       6.040   4.520  19.290  0.00  0.00    +0.000 NA
ATOM      7  H   UNL     1       8.886   5.991  19.477  0.00  0.00    +0.000 HD
ATOM      8  H   UNL     1       8.215   4.863  20.556  0.00  0.00    +0.000 HD
ENDROOT
BRANCH   1   9
ATOM      9  S   UNL     1       3.793   3.451  18.149  0.00  0.00    +0.000 S 
BRANCH   9  10
ATOM     10  C   UNL     1       3.473   3.176  19.920  0.00  0.00    +0.000 C 
BRANCH  10  12
ATOM     11  C   UNL     1       1.610   2.733  21.550  0.00  0.00    +0.000 C 
ATOM     12  C   UNL     1       2.030   3.543  20.318  0.00  0.00    +0.000 C 
ATOM     13  C   UNL     1       1.838   5.034  20.608  0.00  0.00    +0.000 C 
ENDBRANCH  10  12
ENDBRANCH   9  10
ENDBRANCH   1   9
TORSDOF 3
ENDMDL
MODEL 4
REMARK VINA RESULT:      -5.0      1.063      1.691
REMARK  Name = 
REMARK  5 active torsions:
REMARK  status: ('A' for Active; 'I' for Inactive)
REMARK    1  A    between atoms: C_1  and  C_2
REMARK    2  A    between atoms: C_2  and  C_3
REMARK    3  A    between atoms: C_2  and  C_4
REMARK    4  A    between atoms: C_4  and  S_5
REMARK    5  A    between atoms: S_5  and  C_6
REMARK                            x       y       z     vdW  Elec       q    Type
REMARK                         _______ _______ _______ _____ _____    ______ ____
ROOT
ATOM      1  C   UNL     1       4.014   3.249  18.415  0.00  0.00    +0.000 A 
ATOM      2  N   UNL     1       4.974   3.579  19.280  0.00  0.00    +0.000 NA
ATOM      3  S   UNL     1       5.899   4.743  18.525  0.00  0.00    +0.000 S 
ATOM      4  C   UNL     1       4.932   4.733  17.099  0.00  0.00    +0.000 A 
ATOM      5  N   UNL     1       5.146   5.538  16.042  0.00  0.00    +0.000 N 
ATOM      6  N   UNL     1       3.953   3.866  17.176  0.00  0.00    +0.000 NA
ATOM      7  H   UNL     1       5.660   6.398  16.193  0.00  0.00    +0.000 HD
ATOM      8  H   UNL     1       4.369   5.632  15.399  0.00  0.00    +0.000 HD
ENDROOT
BRANCH   1   9
ATOM      9  S   UNL     1       2.797   2.086  18.906  0.00  0.00    +0.000 S 
BRANCH   9  10
ATOM     10  C   UNL     1       1.311   3.136  18.926  0.00  0.00    +0.000 C 
BRANCH  10  12
ATOM     11  C   UNL     1       1.510   2.729  21.399  0.00  0.00    +0.000 C 
ATOM     12  C   UNL     1       1.016   3.707  20.327  0.00  0.00    +0.000 C 
ATOM     13  C   UNL     1       1.650   5.080  20.570  0.00  0.00    +0.000 C 
ENDBRANCH  10  12
ENDBRANCH   9  10
ENDBRANCH   1   9
TORSDOF 3
ENDMDL
MODEL 5
REMARK VINA RESULT:      -5.0      1.255      1.720
REMARK  Name = 
REMARK  5 active torsions:
REMARK  status: ('A' for Active; 'I' for Inactive)
REMARK    1  A    between atoms: C_1  and  C_2
REMARK    2  A    between atoms: C_2  and  C_3
REMARK    3  A    between atoms: C_2  and  C_4
REMARK    4  A    between atoms: C_4  and  S_5
REMARK    5  A    between atoms: S_5  and  C_6
REMARK                            x       y       z     vdW  Elec       q    Type
REMARK                         _______ _______ _______ _____ _____    ______ ____
ROOT
ATOM      1  C   UNL     1       3.998   4.998  18.137  0.00  0.00    +0.000 A 
ATOM      2  N   UNL     1       4.535   4.642  16.970  0.00  0.00    +0.000 NA
ATOM      3  S   UNL     1       6.187   4.676  17.189  0.00  0.00    +0.000 S 
ATOM      4  C   UNL     1       6.062   5.148  18.841  0.00  0.00    +0.000 A 
ATOM      5  N   UNL     1       7.121   5.320  19.653  0.00  0.00    +0.000 N 
ATOM      6  N   UNL     1       4.815   5.296  19.215  0.00  0.00    +0.000 NA
ATOM      7  H   UNL     1       7.986   4.849  19.417  0.00  0.00    +0.000 HD
ATOM      8  H   UNL     1       6.914   5.326  20.646  0.00  0.00    +0.000 HD
ENDROOT
BRANCH   1   9
ATOM      9  S   UNL     1       2.252   5.003  18.299  0.00  0.00    +0.000 S 
BRANCH   9  10
ATOM     10  C   UNL     1       2.075   4.722  20.089  0.00  0.00    +0.000 C 
BRANCH  10  12
ATOM     11  C   UNL     1       0.865   2.722  19.162  0.00  0.00    +0.000 C 
ATOM     12  C   UNL     1       1.078   3.589  20.407  0.00  0.00    +0.000 C 
ATOM     13  C   UNL     1       1.522   2.697  21.570  0.00  0.00    +0.000 C 
ENDBRANCH  10  12
ENDBRANCH   9  10
ENDBRANCH   1   9
TORSDOF 3
ENDMDL
MODEL 6
REMARK VINA RESULT:      -5.0      1.663      1.947
REMARK  Name = 
REMARK  5 active torsions:
REMARK  status: ('A' for Active; 'I' for Inactive)
REMARK    1  A    between atoms: C_1  and  C_2
REMARK    2  A    between atoms: C_2  and  C_3
REMARK    3  A    between atoms: C_2  and  C_4
REMARK    4  A    between atoms: C_4  and  S_5
REMARK    5  A    between atoms: S_5  and  C_6
REMARK                            x       y       z     vdW  Elec       q    Type
REMARK                         _______ _______ _______ _____ _____    ______ ____
ROOT
ATOM      1  C   UNL     1       4.729   5.162  18.783  0.00  0.00    +0.000 A 
ATOM      2  N   UNL     1       4.655   6.135  17.874  0.00  0.00    +0.000 NA
ATOM      3  S   UNL     1       6.120   6.141  17.079  0.00  0.00    +0.000 S 
ATOM      4  C   UNL     1       6.742   4.824  18.000  0.00  0.00    +0.000 A 
ATOM      5  N   UNL     1       7.958   4.282  17.804  0.00  0.00    +0.000 N 
ATOM      6  N   UNL     1       5.883   4.403  18.895  0.00  0.00    +0.000 NA
ATOM      7  H   UNL     1       8.395   4.402  16.898  0.00  0.00    +0.000 HD
ATOM      8  H   UNL     1       8.096   3.363  18.208  0.00  0.00    +0.000 HD
ENDROOT
BRANCH   1   9
ATOM      9  S   UNL     1       3.323   4.817  19.771  0.00  0.00    +0.000 S 
BRANCH   9  10
ATOM     10  C   UNL     1       3.342   2.996  19.766  0.00  0.00    +0.000 C 
BRANCH  10  12
ATOM     11  C   UNL     1       1.442   2.841  21.406  0.00  0.00    +0.000 C 
ATOM     12  C   UNL     1       1.946   2.396  20.029  0.00  0.00    +0.000 C 
ATOM     13  C   UNL     1       0.910   2.777  18.968  0.00  0.00    +0.000 C 
ENDBRANCH  10  12
ENDBRANCH   9  10
ENDBRANCH   1   9
TORSDOF 3
ENDMDL
MODEL 7
REMARK VINA RESULT:      -5.0      0.773      1.376
REMARK  Name = 
REMARK  5 active torsions:
REMARK  status: ('A' for Active; 'I' for Inactive)
REMARK    1  A    between atoms: C_1  and  C_2
REMARK    2  A    between atoms: C_2  and  C_3
REMARK    3  A    between atoms: C_2  and  C_4
REMARK    4  A    between atoms: C_4  and  S_5
REMARK    5  A    between atoms: S_5  and  C_6
REMARK                            x       y       z     vdW  Elec       q    Type
REMARK                         _______ _______ _______ _____ _____    ______ ____
ROOT
ATOM      1  C   UNL     1       4.417   3.617  18.535  0.00  0.00    +0.000 A 
ATOM      2  N   UNL     1       4.080   4.470  17.566  0.00  0.00    +0.000 NA
ATOM      3  S   UNL     1       5.206   5.698  17.616  0.00  0.00    +0.000 S 
ATOM      4  C   UNL     1       6.076   4.988  18.922  0.00  0.00    +0.000 A 
ATOM      5  N   UNL     1       7.198   5.511  19.448  0.00  0.00    +0.000 N 
ATOM      6  N   UNL     1       5.526   3.869  19.326  0.00  0.00    +0.000 NA
ATOM      7  H   UNL     1       7.746   6.140  18.874  0.00  0.00    +0.000 HD
ATOM      8  H   UNL     1       7.755   4.877  20.010  0.00  0.00    +0.000 HD
ENDROOT
BRANCH   1   9
ATOM      9  S   UNL     1       3.481   2.148  18.733  0.00  0.00    +0.000 S 
BRANCH   9  10
ATOM     10  C   UNL     1       2.693   2.461  20.344  0.00  0.00    +0.000 C 
BRANCH  10  12
ATOM     11  C   UNL     1       1.125   4.420  20.503  0.00  0.00    +0.000 C 
ATOM     12  C   UNL     1       1.229   2.921  20.200  0.00  0.00    +0.000 C 
ATOM     13  C   UNL     1       0.638   2.648  18.814  0.00  0.00    +0.000 C 
ENDBRANCH  10  12
ENDBRANCH   9  10
ENDBRANCH   1   9
TORSDOF 3
ENDMDL
MODEL 8
REMARK VINA RESULT:      -5.0      1.809      2.241
REMARK  Name = 
REMARK  5 active torsions:
REMARK  status: ('A' for Active; 'I' for Inactive)
REMARK    1  A    between atoms: C_1  and  C_2
REMARK    2  A    between atoms: C_2  and  C_3
REMARK    3  A    between atoms: C_2  and  C_4
REMARK    4  A    between atoms: C_4  and  S_5
REMARK    5  A    between atoms: S_5  and  C_6
REMARK                            x       y       z     vdW  Elec       q    Type
REMARK                         _______ _______ _______ _____ _____    ______ ____
ROOT
ATOM      1  C   UNL     1       4.758   5.266  18.776  0.00  0.00    +0.000 A 
ATOM      2  N   UNL     1       4.779   6.284  17.915  0.00  0.00    +0.000 NA
ATOM      3  S   UNL     1       6.276   6.242  17.182  0.00  0.00    +0.000 S 
ATOM      4  C   UNL     1       6.781   4.848  18.060  0.00  0.00    +0.000 A 
ATOM      5  N   UNL     1       7.971   4.245  17.888  0.00  0.00    +0.000 N 
ATOM      6  N   UNL     1       5.861   4.436  18.896  0.00  0.00    +0.000 NA
ATOM      7  H   UNL     1       8.454   4.383  17.008  0.00  0.00    +0.000 HD
ATOM      8  H   UNL     1       8.040   3.301  18.251  0.00  0.00    +0.000 HD
ENDROOT
BRANCH   1   9
ATOM      9  S   UNL     1       3.292   4.957  19.686  0.00  0.00    +0.000 S 
BRANCH   9  10
ATOM     10  C   UNL     1       2.084   4.781  18.335  0.00  0.00    +0.000 C 
BRANCH  10  12
ATOM     11  C   UNL     1       2.386   2.340  17.810  0.00  0.00    +0.000 C 
ATOM     12  C   UNL     1       1.406   3.396  18.333  0.00  0.00    +0.000 C 
ATOM     13  C   UNL     1       0.895   2.966  19.712  0.00  0.00    +0.000 C 
ENDBRANCH  10  12
ENDBRANCH   9  10
ENDBRANCH   1   9
TORSDOF 3
ENDMDL
MODEL 9
REMARK VINA RESULT:      -5.0      1.485      1.806
REMARK  Name = 
REMARK  5 active torsions:
REMARK  status: ('A' for Active; 'I' for Inactive)
REMARK    1  A    between atoms: C_1  and  C_2
REMARK    2  A    between atoms: C_2  and  C_3
REMARK    3  A    between atoms: C_2  and  C_4
REMARK    4  A    between atoms: C_4  and  S_5
REMARK    5  A    between atoms: S_5  and  C_6
REMARK                            x       y       z     vdW  Elec       q    Type
REMARK                         _______ _______ _______ _____ _____    ______ ____
ROOT
ATOM      1  C   UNL     1       4.736   4.386  18.406  0.00  0.00    +0.000 A 
ATOM      2  N   UNL     1       4.104   4.902  17.351  0.00  0.00    +0.000 NA
ATOM      3  S   UNL     1       5.280   5.218  16.213  0.00  0.00    +0.000 S 
ATOM      4  C   UNL     1       6.551   4.621  17.211  0.00  0.00    +0.000 A 
ATOM      5  N   UNL     1       7.839   4.561  16.827  0.00  0.00    +0.000 N 
ATOM      6  N   UNL     1       6.110   4.214  18.376  0.00  0.00    +0.000 NA
ATOM      7  H   UNL     1       8.042   4.541  15.835  0.00  0.00    +0.000 HD
ATOM      8  H   UNL     1       8.432   3.952  17.380  0.00  0.00    +0.000 HD
ENDROOT
BRANCH   1   9
ATOM      9  S   UNL     1       3.791   3.862  19.786  0.00  0.00    +0.000 S 
BRANCH   9  10
ATOM     10  C   UNL     1       2.141   4.477  19.323  0.00  0.00    +0.000 C 
BRANCH  10  12
ATOM     11  C   UNL     1       0.788   2.424  18.797  0.00  0.00    +0.000 C 
ATOM     12  C   UNL     1       1.012   3.549  19.813  0.00  0.00    +0.000 C 
ATOM     13  C   UNL     1       1.282   2.935  21.189  0.00  0.00    +0.000 C 
ENDBRANCH  10  12
ENDBRANCH   9  10
ENDBRANCH   1   9
TORSDOF 3
ENDMDL
