MODEL 1
REMARK VINA RESULT:      -6.9      0.000      0.000
REMARK  Name = 
REMARK  6 active torsions:
REMARK  status: ('A' for Active; 'I' for Inactive)
REMARK    1  A    between atoms: C_1  and  C_2
REMARK    2  A    between atoms: C_2  and  C_15
REMARK    3  A    between atoms: N_3  and  N_4
REMARK    4  A    between atoms: C_5  and  C_7
REMARK    5  A    between atoms: C_7  and  O_8
REMARK    6  A    between atoms: C_7  and  C_9
REMARK                            x       y       z     vdW  Elec       q    Type
REMARK                         _______ _______ _______ _____ _____    ______ ____
ROOT
ATOM      1  N   UNL     1       4.769   5.936  16.911  0.00  0.00    +0.000 N 
ATOM      2  C   UNL     1       6.110   6.148  16.606  0.00  0.00    +0.000 C 
ATOM      3  O   UNL     1       6.689   7.233  16.664  0.00  0.00    +0.000 OA
ATOM      4  H   UNL     1       4.453   4.971  16.898  0.00  0.00    +0.000 HD
ENDROOT
BRANCH   1   7
ATOM      5  C   UNL     1       2.668   5.432  18.812  0.00  0.00    +0.000 C 
ATOM      6  C   UNL     1       3.024   6.770  18.189  0.00  0.00    +0.000 C 
ATOM      7  N   UNL     1       3.977   6.962  17.320  0.00  0.00    +0.000 NA
BRANCH   6   8
ATOM      8  C   UNL     1       2.249   7.950  18.583  0.00  0.00    +0.000 A 
ATOM      9  C   UNL     1       1.941   9.061  17.809  0.00  0.00    +0.000 A 
ATOM     10  C   UNL     1       1.188  10.043  18.520  0.00  0.00    +0.000 A 
ATOM     11  C   UNL     1       0.947   9.641  19.807  0.00  0.00    +0.000 A 
ATOM     12 BR   UNL     1       0.001  10.665  21.057  0.00  0.00    +0.000 Br
ATOM     13  S   UNL     1       1.594   8.120  20.163  0.00  0.00    +0.000 S 
ENDBRANCH   6   8
ENDBRANCH   1   7
BRANCH   2  14
ATOM     14  C   UNL     1       6.804   4.837  16.161  0.00  0.00    +0.000 C 
BRANCH  14  15
ATOM     15  C   UNL     1       6.809   4.626  14.656  0.00  0.00    +0.000 A 
ATOM     16  C   UNL     1       7.728   5.327  13.858  0.00  0.00    +0.000 A 
ATOM     17  C   UNL     1       7.769   5.126  12.476  0.00  0.00    +0.000 A 
ATOM     18  C   UNL     1       6.904   4.216  11.876  0.00  0.00    +0.000 A 
ATOM     19  C   UNL     1       6.002   3.497  12.657  0.00  0.00    +0.000 A 
ATOM     20  C   UNL     1       5.958   3.694  14.038  0.00  0.00    +0.000 A 
ENDBRANCH  14  15
BRANCH  14  21
ATOM     21  O   UNL     1       6.185   3.695  16.777  0.00  0.00    +0.000 OA
ATOM     22  H   UNL     1       6.675   2.910  16.472  0.00  0.00    +0.000 HD
ENDBRANCH  14  21
ENDBRANCH   2  14
TORSDOF 5
ENDMDL
MODEL 2
REMARK VINA RESULT:      -6.9      1.046      1.234
REMARK  Name = 
REMARK  6 active torsions:
REMARK  status: ('A' for Active; 'I' for Inactive)
REMARK    1  A    between atoms: C_1  and  C_2
REMARK    2  A    between atoms: C_2  and  C_15
REMARK    3  A    between atoms: N_3  and  N_4
REMARK    4  A    between atoms: C_5  and  C_7
REMARK    5  A    between atoms: C_7  and  O_8
REMARK    6  A    between atoms: C_7  and  C_9
REMARK                            x       y       z     vdW  Elec       q    Type
REMARK                         _______ _______ _______ _____ _____    ______ ____
ROOT
ATOM      1  N   UNL     1       4.899   5.829  17.533  0.00  0.00    +0.000 N 
ATOM      2  C   UNL     1       5.392   5.900  16.234  0.00  0.00    +0.000 C 
ATOM      3  O   UNL     1       5.168   6.813  15.438  0.00  0.00    +0.000 OA
ATOM      4  H   UNL     1       5.238   5.058  18.100  0.00  0.00    +0.000 HD
ENDROOT
BRANCH   1   7
ATOM      5  C   UNL     1       2.270   5.180  18.505  0.00  0.00    +0.000 C 
ATOM      6  C   UNL     1       2.917   6.553  18.492  0.00  0.00    +0.000 C 
ATOM      7  N   UNL     1       4.109   6.815  18.033  0.00  0.00    +0.000 NA
BRANCH   6   8
ATOM      8  C   UNL     1       2.160   7.685  19.034  0.00  0.00    +0.000 A 
ATOM      9  C   UNL     1       1.696   7.853  20.331  0.00  0.00    +0.000 A 
ATOM     10  C   UNL     1       0.968   9.068  20.510  0.00  0.00    +0.000 A 
ATOM     11  C   UNL     1       0.911   9.783  19.342  0.00  0.00    +0.000 A 
ATOM     12 BR   UNL     1       0.031  11.427  19.171  0.00  0.00    +0.000 Br
ATOM     13  S   UNL     1       1.714   9.029  18.059  0.00  0.00    +0.000 S 
ENDBRANCH   6   8
ENDBRANCH   1   7
BRANCH   2  14
ATOM     14  C   UNL     1       6.261   4.666  15.889  0.00  0.00    +0.000 C 
BRANCH  14  15
ATOM     15  C   UNL     1       6.489   4.473  14.400  0.00  0.00    +0.000 A 
ATOM     16  C   UNL     1       7.532   5.163  13.759  0.00  0.00    +0.000 A 
ATOM     17  C   UNL     1       7.777   4.978  12.397  0.00  0.00    +0.000 A 
ATOM     18  C   UNL     1       6.995   4.094  11.659  0.00  0.00    +0.000 A 
ATOM     19  C   UNL     1       5.972   3.385  12.285  0.00  0.00    +0.000 A 
ATOM     20  C   UNL     1       5.724   3.567  13.646  0.00  0.00    +0.000 A 
ENDBRANCH  14  15
BRANCH  14  21
ATOM     21  O   UNL     1       5.677   3.464  16.419  0.00  0.00    +0.000 OA
ATOM     22  H   UNL     1       5.926   3.421  17.360  0.00  0.00    +0.000 HD
ENDBRANCH  14  21
ENDBRANCH   2  14
TORSDOF 5
ENDMDL
MODEL 3
REMARK VINA RESULT:      -6.9      1.068      1.650
REMARK  Name = 
REMARK  6 active torsions:
REMARK  status: ('A' for Active; 'I' for Inactive)
REMARK    1  A    between atoms: C_1  and  C_2
REMARK    2  A    between atoms: C_2  and  C_15
REMARK    3  A    between atoms: N_3  and  N_4
REMARK    4  A    between atoms: C_5  and  C_7
REMARK    5  A    between atoms: C_7  and  O_8
REMARK    6  A    between atoms: C_7  and  C_9
REMARK                            x       y       z     vdW  Elec       q    Type
REMARK                         _______ _______ _______ _____ _____    ______ ____
ROOT
ATOM      1  N   UNL     1       4.770   5.944  17.488  0.00  0.00    +0.000 N 
ATOM      2  C   UNL     1       5.341   5.997  16.220  0.00  0.00    +0.000 C 
ATOM      3  O   UNL     1       5.137   6.880  15.386  0.00  0.00    +0.000 OA
ATOM      4  H   UNL     1       5.098   5.200  18.096  0.00  0.00    +0.000 HD
ENDROOT
BRANCH   1   7
ATOM      5  C   UNL     1       2.723   5.297  19.404  0.00  0.00    +0.000 C 
ATOM      6  C   UNL     1       2.987   6.658  18.786  0.00  0.00    +0.000 C 
ATOM      7  N   UNL     1       3.919   6.915  17.910  0.00  0.00    +0.000 NA
BRANCH   6   8
ATOM      8  C   UNL     1       2.142   7.784  19.193  0.00  0.00    +0.000 A 
ATOM      9  C   UNL     1       1.597   8.027  20.446  0.00  0.00    +0.000 A 
ATOM     10  C   UNL     1       0.798   9.209  20.486  0.00  0.00    +0.000 A 
ATOM     11  C   UNL     1       0.768   9.824  19.262  0.00  0.00    +0.000 A 
ATOM     12 BR   UNL     1      -0.187  11.396  18.910  0.00  0.00    +0.000 Br
ATOM     13  S   UNL     1       1.681   9.018  18.089  0.00  0.00    +0.000 S 
ENDBRANCH   6   8
ENDBRANCH   1   7
BRANCH   2  14
ATOM     14  C   UNL     1       6.269   4.785  15.964  0.00  0.00    +0.000 C 
BRANCH  14  15
ATOM     15  C   UNL     1       6.548   4.525  14.494  0.00  0.00    +0.000 A 
ATOM     16  C   UNL     1       5.725   3.643  13.774  0.00  0.00    +0.000 A 
ATOM     17  C   UNL     1       5.946   3.411  12.414  0.00  0.00    +0.000 A 
ATOM     18  C   UNL     1       6.982   4.066  11.753  0.00  0.00    +0.000 A 
ATOM     19  C   UNL     1       7.793   4.960  12.448  0.00  0.00    +0.000 A 
ATOM     20  C   UNL     1       7.574   5.194  13.806  0.00  0.00    +0.000 A 
ENDBRANCH  14  15
BRANCH  14  21
ATOM     21  O   UNL     1       5.719   3.587  16.540  0.00  0.00    +0.000 OA
ATOM     22  H   UNL     1       5.952   2.855  15.942  0.00  0.00    +0.000 HD
ENDBRANCH  14  21
ENDBRANCH   2  14
TORSDOF 5
ENDMDL
MODEL 4
REMARK VINA RESULT:      -6.9      0.641      1.253
REMARK  Name = 
REMARK  6 active torsions:
REMARK  status: ('A' for Active; 'I' for Inactive)
REMARK    1  A    between atoms: C_1  and  C_2
REMARK    2  A    between atoms: C_2  and  C_15
REMARK    3  A    between atoms: N_3  and  N_4
REMARK    4  A    between atoms: C_5  and  C_7
REMARK    5  A    between atoms: C_7  and  O_8
REMARK    6  A    between atoms: C_7  and  C_9
REMARK                            x       y       z     vdW  Elec       q    Type
REMARK                         _______ _______ _______ _____ _____    ______ ____
ROOT
ATOM      1  N   UNL     1       4.747   6.112  17.376  0.00  0.00    +0.000 N 
ATOM      2  C   UNL     1       5.321   6.102  16.108  0.00  0.00    +0.000 C 
ATOM      3  O   UNL     1       5.133   6.952  15.237  0.00  0.00    +0.000 OA
ATOM      4  H   UNL     1       5.061   5.389  18.016  0.00  0.00    +0.000 HD
ENDROOT
BRANCH   1   7
ATOM      5  C   UNL     1       2.414   5.493  18.941  0.00  0.00    +0.000 C 
ATOM      6  C   UNL     1       2.851   6.869  18.473  0.00  0.00    +0.000 C 
ATOM      7  N   UNL     1       3.911   7.114  17.754  0.00  0.00    +0.000 NA
BRANCH   6   8
ATOM      8  C   UNL     1       2.033   8.026  18.849  0.00  0.00    +0.000 A 
ATOM      9  C   UNL     1       1.594   9.057  18.031  0.00  0.00    +0.000 A 
ATOM     10  C   UNL     1       0.835  10.042  18.735  0.00  0.00    +0.000 A 
ATOM     11  C   UNL     1       0.723   9.719  20.061  0.00  0.00    +0.000 A 
ATOM     12 BR   UNL     1      -0.188  10.772  21.314  0.00  0.00    +0.000 Br
ATOM     13  S   UNL     1       1.494   8.269  20.464  0.00  0.00    +0.000 S 
ENDBRANCH   6   8
ENDBRANCH   1   7
BRANCH   2  14
ATOM     14  C   UNL     1       6.230   4.865  15.907  0.00  0.00    +0.000 C 
BRANCH  14  15
ATOM     15  C   UNL     1       6.516   4.545  14.449  0.00  0.00    +0.000 A 
ATOM     16  C   UNL     1       5.688   3.645  13.758  0.00  0.00    +0.000 A 
ATOM     17  C   UNL     1       5.915   3.359  12.410  0.00  0.00    +0.000 A 
ATOM     18  C   UNL     1       6.964   3.974  11.732  0.00  0.00    +0.000 A 
ATOM     19  C   UNL     1       7.781   4.884  12.398  0.00  0.00    +0.000 A 
ATOM     20  C   UNL     1       7.556   5.174  13.745  0.00  0.00    +0.000 A 
ENDBRANCH  14  15
BRANCH  14  21
ATOM     21  O   UNL     1       5.654   3.700  16.522  0.00  0.00    +0.000 OA
ATOM     22  H   UNL     1       5.719   2.977  15.873  0.00  0.00    +0.000 HD
ENDBRANCH  14  21
ENDBRANCH   2  14
TORSDOF 5
ENDMDL
MODEL 5
REMARK VINA RESULT:      -6.8      3.421      4.666
REMARK  Name = 
REMARK  6 active torsions:
REMARK  status: ('A' for Active; 'I' for Inactive)
REMARK    1  A    between atoms: C_1  and  C_2
REMARK    2  A    between atoms: C_2  and  C_15
REMARK    3  A    between atoms: N_3  and  N_4
REMARK    4  A    between atoms: C_5  and  C_7
REMARK    5  A    between atoms: C_7  and  O_8
REMARK    6  A    between atoms: C_7  and  C_9
REMARK                            x       y       z     vdW  Elec       q    Type
REMARK                         _______ _______ _______ _____ _____    ______ ____
ROOT
ATOM      1  N   UNL     1       2.412   6.822  19.616  0.00  0.00    +0.000 N 
ATOM      2  C   UNL     1       2.690   5.493  19.921  0.00  0.00    +0.000 C 
ATOM      3  O   UNL     1       2.377   4.924  20.967  0.00  0.00    +0.000 OA
ATOM      4  H   UNL     1       2.659   7.129  18.680  0.00  0.00    +0.000 HD
ENDROOT
BRANCH   1   7
ATOM      5  C   UNL     1       1.375   9.356  18.732  0.00  0.00    +0.000 C 
ATOM      6  C   UNL     1       1.244   8.760  20.121  0.00  0.00    +0.000 C 
ATOM      7  N   UNL     1       1.736   7.611  20.493  0.00  0.00    +0.000 NA
BRANCH   6   8
ATOM      8  C   UNL     1       0.508   9.517  21.138  0.00  0.00    +0.000 A 
ATOM      9  C   UNL     1       0.040   9.060  22.362  0.00  0.00    +0.000 A 
ATOM     10  C   UNL     1      -0.663  10.062  23.098  0.00  0.00    +0.000 A 
ATOM     11  C   UNL     1      -0.699  11.245  22.408  0.00  0.00    +0.000 A 
ATOM     12 BR   UNL     1      -1.543  12.793  23.039  0.00  0.00    +0.000 Br
ATOM     13  S   UNL     1       0.096  11.171  20.917  0.00  0.00    +0.000 S 
ENDBRANCH   6   8
ENDBRANCH   1   7
BRANCH   2  14
ATOM     14  C   UNL     1       3.470   4.801  18.777  0.00  0.00    +0.000 C 
BRANCH  14  15
ATOM     15  C   UNL     1       4.800   5.460  18.454  0.00  0.00    +0.000 A 
ATOM     16  C   UNL     1       5.925   5.185  19.250  0.00  0.00    +0.000 A 
ATOM     17  C   UNL     1       7.165   5.756  18.954  0.00  0.00    +0.000 A 
ATOM     18  C   UNL     1       7.300   6.599  17.855  0.00  0.00    +0.000 A 
ATOM     19  C   UNL     1       6.200   6.865  17.044  0.00  0.00    +0.000 A 
ATOM     20  C   UNL     1       4.960   6.294  17.335  0.00  0.00    +0.000 A 
ENDBRANCH  14  15
BRANCH  14  21
ATOM     21  O   UNL     1       2.683   4.756  17.574  0.00  0.00    +0.000 OA
ATOM     22  H   UNL     1       2.041   4.031  17.685  0.00  0.00    +0.000 HD
ENDBRANCH  14  21
ENDBRANCH   2  14
TORSDOF 5
ENDMDL
MODEL 6
REMARK VINA RESULT:      -6.8      3.437      4.605
REMARK  Name = 
REMARK  6 active torsions:
REMARK  status: ('A' for Active; 'I' for Inactive)
REMARK    1  A    between atoms: C_1  and  C_2
REMARK    2  A    between atoms: C_2  and  C_15
REMARK    3  A    between atoms: N_3  and  N_4
REMARK    4  A    between atoms: C_5  and  C_7
REMARK    5  A    between atoms: C_7  and  O_8
REMARK    6  A    between atoms: C_7  and  C_9
REMARK                            x       y       z     vdW  Elec       q    Type
REMARK                         _______ _______ _______ _____ _____    ______ ____
ROOT
ATOM      1  N   UNL     1       2.636   6.814  19.592  0.00  0.00    +0.000 N 
ATOM      2  C   UNL     1       2.870   5.469  19.863  0.00  0.00    +0.000 C 
ATOM      3  O   UNL     1       2.498   4.873  20.874  0.00  0.00    +0.000 OA
ATOM      4  H   UNL     1       2.931   7.146  18.679  0.00  0.00    +0.000 HD
ENDROOT
BRANCH   1   7
ATOM      5  C   UNL     1       1.446   9.267  18.671  0.00  0.00    +0.000 C 
ATOM      6  C   UNL     1       1.380   8.701  20.078  0.00  0.00    +0.000 C 
ATOM      7  N   UNL     1       1.941   7.589  20.465  0.00  0.00    +0.000 NA
BRANCH   6   8
ATOM      8  C   UNL     1       0.629   9.445  21.094  0.00  0.00    +0.000 A 
ATOM      9  C   UNL     1       0.186   8.987  22.327  0.00  0.00    +0.000 A 
ATOM     10  C   UNL     1      -0.541   9.974  23.059  0.00  0.00    +0.000 A 
ATOM     11  C   UNL     1      -0.619  11.148  22.357  0.00  0.00    +0.000 A 
ATOM     12 BR   UNL     1      -1.506  12.675  22.980  0.00  0.00    +0.000 Br
ATOM     13  S   UNL     1       0.164  11.083  20.860  0.00  0.00    +0.000 S 
ENDBRANCH   6   8
ENDBRANCH   1   7
BRANCH   2  14
ATOM     14  C   UNL     1       3.683   4.797  18.729  0.00  0.00    +0.000 C 
BRANCH  14  15
ATOM     15  C   UNL     1       5.035   5.442  18.479  0.00  0.00    +0.000 A 
ATOM     16  C   UNL     1       5.176   6.387  17.449  0.00  0.00    +0.000 A 
ATOM     17  C   UNL     1       6.403   7.013  17.220  0.00  0.00    +0.000 A 
ATOM     18  C   UNL     1       7.501   6.714  18.022  0.00  0.00    +0.000 A 
ATOM     19  C   UNL     1       7.372   5.796  19.060  0.00  0.00    +0.000 A 
ATOM     20  C   UNL     1       6.147   5.169  19.293  0.00  0.00    +0.000 A 
ENDBRANCH  14  15
BRANCH  14  21
ATOM     21  O   UNL     1       2.943   4.800  17.496  0.00  0.00    +0.000 OA
ATOM     22  H   UNL     1       2.256   5.486  17.582  0.00  0.00    +0.000 HD
ENDBRANCH  14  21
ENDBRANCH   2  14
TORSDOF 5
ENDMDL
MODEL 7
REMARK VINA RESULT:      -6.8      2.475      3.306
REMARK  Name = 
REMARK  6 active torsions:
REMARK  status: ('A' for Active; 'I' for Inactive)
REMARK    1  A    between atoms: C_1  and  C_2
REMARK    2  A    between atoms: C_2  and  C_15
REMARK    3  A    between atoms: N_3  and  N_4
REMARK    4  A    between atoms: C_5  and  C_7
REMARK    5  A    between atoms: C_7  and  O_8
REMARK    6  A    between atoms: C_7  and  C_9
REMARK                            x       y       z     vdW  Elec       q    Type
REMARK                         _______ _______ _______ _____ _____    ______ ____
ROOT
ATOM      1  N   UNL     1       3.404   5.660  19.602  0.00  0.00    +0.000 N 
ATOM      2  C   UNL     1       2.888   4.499  19.033  0.00  0.00    +0.000 C 
ATOM      3  O   UNL     1       1.691   4.252  18.885  0.00  0.00    +0.000 OA
ATOM      4  H   UNL     1       4.414   5.759  19.580  0.00  0.00    +0.000 HD
ENDROOT
BRANCH   1   7
ATOM      5  C   UNL     1       2.861   7.917  17.902  0.00  0.00    +0.000 C 
ATOM      6  C   UNL     1       2.303   7.677  19.293  0.00  0.00    +0.000 C 
ATOM      7  N   UNL     1       2.579   6.646  20.042  0.00  0.00    +0.000 NA
BRANCH   6   8
ATOM      8  C   UNL     1       1.379   8.666  19.854  0.00  0.00    +0.000 A 
ATOM      9  C   UNL     1       0.712   9.681  19.183  0.00  0.00    +0.000 A 
ATOM     10  C   UNL     1      -0.093  10.484  20.046  0.00  0.00    +0.000 A 
ATOM     11  C   UNL     1      -0.011  10.047  21.342  0.00  0.00    +0.000 A 
ATOM     12 BR   UNL     1      -0.915  10.852  22.771  0.00  0.00    +0.000 Br
ATOM     13  S   UNL     1       0.995   8.701  21.529  0.00  0.00    +0.000 S 
ENDBRANCH   6   8
ENDBRANCH   1   7
BRANCH   2  14
ATOM     14  C   UNL     1       4.015   3.525  18.613  0.00  0.00    +0.000 C 
BRANCH  14  15
ATOM     15  C   UNL     1       4.985   4.109  17.599  0.00  0.00    +0.000 A 
ATOM     16  C   UNL     1       6.283   4.465  18.002  0.00  0.00    +0.000 A 
ATOM     17  C   UNL     1       7.200   4.977  17.081  0.00  0.00    +0.000 A 
ATOM     18  C   UNL     1       6.838   5.128  15.746  0.00  0.00    +0.000 A 
ATOM     19  C   UNL     1       5.563   4.759  15.326  0.00  0.00    +0.000 A 
ATOM     20  C   UNL     1       4.644   4.247  16.244  0.00  0.00    +0.000 A 
ENDBRANCH  14  15
BRANCH  14  21
ATOM     21  O   UNL     1       3.468   2.311  18.069  0.00  0.00    +0.000 OA
ATOM     22  H   UNL     1       4.224   1.758  17.799  0.00  0.00    +0.000 HD
ENDBRANCH  14  21
ENDBRANCH   2  14
TORSDOF 5
ENDMDL
MODEL 8
REMARK VINA RESULT:      -6.7      2.490      3.395
REMARK  Name = 
REMARK  6 active torsions:
REMARK  status: ('A' for Active; 'I' for Inactive)
REMARK    1  A    between atoms: C_1  and  C_2
REMARK    2  A    between atoms: C_2  and  C_15
REMARK    3  A    between atoms: N_3  and  N_4
REMARK    4  A    between atoms: C_5  and  C_7
REMARK    5  A    between atoms: C_7  and  O_8
REMARK    6  A    between atoms: C_7  and  C_9
REMARK                            x       y       z     vdW  Elec       q    Type
REMARK                         _______ _______ _______ _____ _____    ______ ____
ROOT
ATOM      1  N   UNL     1       3.348   5.531  19.471  0.00  0.00    +0.000 N 
ATOM      2  C   UNL     1       2.803   4.389  18.891  0.00  0.00    +0.000 C 
ATOM      3  O   UNL     1       1.600   4.168  18.752  0.00  0.00    +0.000 OA
ATOM      4  H   UNL     1       4.360   5.610  19.440  0.00  0.00    +0.000 HD
ENDROOT
BRANCH   1   7
ATOM      5  C   UNL     1       2.932   7.878  17.859  0.00  0.00    +0.000 C 
ATOM      6  C   UNL     1       2.329   7.598  19.224  0.00  0.00    +0.000 C 
ATOM      7  N   UNL     1       2.548   6.526  19.934  0.00  0.00    +0.000 NA
BRANCH   6   8
ATOM      8  C   UNL     1       1.427   8.596  19.805  0.00  0.00    +0.000 A 
ATOM      9  C   UNL     1       0.793   9.647  19.158  0.00  0.00    +0.000 A 
ATOM     10  C   UNL     1       0.001  10.447  20.037  0.00  0.00    +0.000 A 
ATOM     11  C   UNL     1       0.059   9.971  21.320  0.00  0.00    +0.000 A 
ATOM     12 BR   UNL     1      -0.836  10.759  22.763  0.00  0.00    +0.000 Br
ATOM     13  S   UNL     1       1.028   8.594  21.478  0.00  0.00    +0.000 S 
ENDBRANCH   6   8
ENDBRANCH   1   7
BRANCH   2  14
ATOM     14  C   UNL     1       3.907   3.398  18.445  0.00  0.00    +0.000 C 
BRANCH  14  15
ATOM     15  C   UNL     1       4.960   4.019  17.543  0.00  0.00    +0.000 A 
ATOM     16  C   UNL     1       4.667   4.255  16.190  0.00  0.00    +0.000 A 
ATOM     17  C   UNL     1       5.610   4.851  15.349  0.00  0.00    +0.000 A 
ATOM     18  C   UNL     1       6.852   5.230  15.851  0.00  0.00    +0.000 A 
ATOM     19  C   UNL     1       7.150   5.023  17.195  0.00  0.00    +0.000 A 
ATOM     20  C   UNL     1       6.209   4.428  18.038  0.00  0.00    +0.000 A 
ENDBRANCH  14  15
BRANCH  14  21
ATOM     21  O   UNL     1       3.336   2.267  17.765  0.00  0.00    +0.000 OA
ATOM     22  H   UNL     1       4.062   1.635  17.613  0.00  0.00    +0.000 HD
ENDBRANCH  14  21
ENDBRANCH   2  14
TORSDOF 5
ENDMDL
MODEL 9
REMARK VINA RESULT:      -6.7      2.622      3.477
REMARK  Name = 
REMARK  6 active torsions:
REMARK  status: ('A' for Active; 'I' for Inactive)
REMARK    1  A    between atoms: C_1  and  C_2
REMARK    2  A    between atoms: C_2  and  C_15
REMARK    3  A    between atoms: N_3  and  N_4
REMARK    4  A    between atoms: C_5  and  C_7
REMARK    5  A    between atoms: C_7  and  O_8
REMARK    6  A    between atoms: C_7  and  C_9
REMARK                            x       y       z     vdW  Elec       q    Type
REMARK                         _______ _______ _______ _____ _____    ______ ____
ROOT
ATOM      1  N   UNL     1       3.336   5.871  19.782  0.00  0.00    +0.000 N 
ATOM      2  C   UNL     1       2.914   4.691  19.177  0.00  0.00    +0.000 C 
ATOM      3  O   UNL     1       1.753   4.434  18.855  0.00  0.00    +0.000 OA
ATOM      4  H   UNL     1       4.338   5.974  19.912  0.00  0.00    +0.000 HD
ENDROOT
BRANCH   1   7
ATOM      5  C   UNL     1       2.899   7.959  17.851  0.00  0.00    +0.000 C 
ATOM      6  C   UNL     1       2.224   7.820  19.203  0.00  0.00    +0.000 C 
ATOM      7  N   UNL     1       2.453   6.865  20.061  0.00  0.00    +0.000 NA
BRANCH   6   8
ATOM      8  C   UNL     1       1.231   8.826  19.593  0.00  0.00    +0.000 A 
ATOM      9  C   UNL     1       0.661   9.016  20.844  0.00  0.00    +0.000 A 
ATOM     10  C   UNL     1      -0.296  10.076  20.865  0.00  0.00    +0.000 A 
ATOM     11  C   UNL     1      -0.412  10.656  19.630  0.00  0.00    +0.000 A 
ATOM     12 BR   UNL     1      -1.577  12.074  19.253  0.00  0.00    +0.000 Br
ATOM     13  S   UNL     1       0.601   9.963  18.468  0.00  0.00    +0.000 S 
ENDBRANCH   6   8
ENDBRANCH   1   7
BRANCH   2  14
ATOM     14  C   UNL     1       4.092   3.710  18.964  0.00  0.00    +0.000 C 
BRANCH  14  15
ATOM     15  C   UNL     1       5.019   4.103  17.826  0.00  0.00    +0.000 A 
ATOM     16  C   UNL     1       6.332   4.518  18.108  0.00  0.00    +0.000 A 
ATOM     17  C   UNL     1       7.210   4.855  17.075  0.00  0.00    +0.000 A 
ATOM     18  C   UNL     1       6.794   4.771  15.749  0.00  0.00    +0.000 A 
ATOM     19  C   UNL     1       5.504   4.341  15.453  0.00  0.00    +0.000 A 
ATOM     20  C   UNL     1       4.624   4.001  16.482  0.00  0.00    +0.000 A 
ENDBRANCH  14  15
BRANCH  14  21
ATOM     21  O   UNL     1       3.612   2.377  18.719  0.00  0.00    +0.000 OA
ATOM     22  H   UNL     1       4.307   1.916  18.215  0.00  0.00    +0.000 HD
ENDBRANCH  14  21
ENDBRANCH   2  14
TORSDOF 5
ENDMDL
