MODEL 1
REMARK VINA RESULT:      -9.6      0.000      0.000
REMARK  Name = 
REMARK  7 active torsions:
REMARK  status: ('A' for Active; 'I' for Inactive)
REMARK    1  A    between atoms: C_2  and  C_11
REMARK    2  A    between atoms: N_3  and  C_4
REMARK    3  A    between atoms: C_4  and  C_5
REMARK    4  A    between atoms: C_11  and  S_25
REMARK    5  A    between atoms: C_12  and  C_13
REMARK    6  A    between atoms: C_16  and  C_17
REMARK    7  A    between atoms: S_25  and  C_28
REMARK                            x       y       z     vdW  Elec       q    Type
REMARK                         _______ _______ _______ _____ _____    ______ ____
ROOT
ATOM      1  C   UNL     1       5.758   5.294  17.223  0.00  0.00    +0.000 C 
ATOM      2  C   UNL     1       4.862   6.259  16.902  0.00  0.00    +0.000 C 
ENDROOT
BRANCH   2   3
ATOM      3  C   UNL     1       3.624   6.476  17.580  0.00  0.00    +0.000 A 
ATOM      4  C   UNL     1       2.565   5.606  17.795  0.00  0.00    +0.000 A 
ATOM      5  C   UNL     1       1.546   6.310  18.477  0.00  0.00    +0.000 A 
ATOM      6  C   UNL     1       2.026   7.584  18.692  0.00  0.00    +0.000 A 
ATOM      7  O   UNL     1       3.272   7.691  18.133  0.00  0.00    +0.000 OA
BRANCH   6   8
ATOM      8  C   UNL     1       1.505   8.758  19.390  0.00  0.00    +0.000 A 
ATOM      9  C   UNL     1       1.433  10.007  18.756  0.00  0.00    +0.000 A 
ATOM     10  C   UNL     1       0.998  11.142  19.446  0.00  0.00    +0.000 A 
ATOM     11  C   UNL     1       0.623  11.044  20.783  0.00  0.00    +0.000 A 
ATOM     12  C   UNL     1       0.671   9.807  21.420  0.00  0.00    +0.000 A 
ATOM     13 CL   UNL     1       0.226   9.688  23.080  0.00  0.00    +0.000 Cl
ATOM     14  C   UNL     1       1.100   8.670  20.733  0.00  0.00    +0.000 A 
ENDBRANCH   6   8
ENDBRANCH   2   3
BRANCH   1  16
ATOM     15  O   UNL     1       5.873   4.399  19.412  0.00  0.00    +0.000 OA
ATOM     16  C   UNL     1       5.479   4.260  18.252  0.00  0.00    +0.000 C 
ATOM     17  N   UNL     1       4.737   3.164  17.894  0.00  0.00    +0.000 N 
ATOM     18  H   UNL     1       4.490   2.981  16.922  0.00  0.00    +0.000 HD
BRANCH  17  19
ATOM     19  C   UNL     1       4.460   2.136  18.876  0.00  0.00    +0.000 C 
BRANCH  19  20
ATOM     20  C   UNL     1       3.241   2.437  19.698  0.00  0.00    +0.000 A 
ATOM     21  C   UNL     1       1.971   2.540  19.119  0.00  0.00    +0.000 A 
ATOM     22  C   UNL     1       0.862   2.790  19.921  0.00  0.00    +0.000 A 
ATOM     23  C   UNL     1       1.061   2.938  21.282  0.00  0.00    +0.000 A 
ATOM     24  N   UNL     1       2.272   2.862  21.878  0.00  0.00    +0.000 NA
ATOM     25  C   UNL     1       3.330   2.619  21.072  0.00  0.00    +0.000 A 
ENDBRANCH  19  20
ENDBRANCH  17  19
ENDBRANCH   1  16
BRANCH   1  26
ATOM     26  S   UNL     1       7.287   5.301  16.404  0.00  0.00    +0.000 S 
ATOM     27  O   UNL     1       7.816   6.654  16.288  0.00  0.00    +0.000 OA
ATOM     28  O   UNL     1       8.128   4.263  16.996  0.00  0.00    +0.000 OA
BRANCH  26  29
ATOM     29  C   UNL     1       6.941   4.773  14.736  0.00  0.00    +0.000 A 
ATOM     30  C   UNL     1       7.731   5.240  13.683  0.00  0.00    +0.000 A 
ATOM     31  C   UNL     1       7.457   4.816  12.379  0.00  0.00    +0.000 A 
ATOM     32  C   UNL     1       6.415   3.918  12.134  0.00  0.00    +0.000 A 
ATOM     33  C   UNL     1       5.648   3.431  13.191  0.00  0.00    +0.000 A 
ATOM     34  C   UNL     1       5.913   3.852  14.496  0.00  0.00    +0.000 A 
ENDBRANCH  26  29
ENDBRANCH   1  26
TORSDOF 7
ENDMDL
MODEL 2
REMARK VINA RESULT:      -9.5      0.680      1.270
REMARK  Name = 
REMARK  7 active torsions:
REMARK  status: ('A' for Active; 'I' for Inactive)
REMARK    1  A    between atoms: C_2  and  C_11
REMARK    2  A    between atoms: N_3  and  C_4
REMARK    3  A    between atoms: C_4  and  C_5
REMARK    4  A    between atoms: C_11  and  S_25
REMARK    5  A    between atoms: C_12  and  C_13
REMARK    6  A    between atoms: C_16  and  C_17
REMARK    7  A    between atoms: S_25  and  C_28
REMARK                            x       y       z     vdW  Elec       q    Type
REMARK                         _______ _______ _______ _____ _____    ______ ____
ROOT
ATOM      1  C   UNL     1       5.793   5.351  17.200  0.00  0.00    +0.000 C 
ATOM      2  C   UNL     1       4.945   6.357  16.874  0.00  0.00    +0.000 C 
ENDROOT
BRANCH   2   3
ATOM      3  C   UNL     1       3.728   6.647  17.561  0.00  0.00    +0.000 A 
ATOM      4  C   UNL     1       2.724   5.792  17.991  0.00  0.00    +0.000 A 
ATOM      5  C   UNL     1       1.700   6.569  18.579  0.00  0.00    +0.000 A 
ATOM      6  C   UNL     1       2.124   7.880  18.525  0.00  0.00    +0.000 A 
ATOM      7  O   UNL     1       3.338   7.930  17.892  0.00  0.00    +0.000 OA
BRANCH   6   8
ATOM      8  C   UNL     1       1.575   9.143  19.015  0.00  0.00    +0.000 A 
ATOM      9  C   UNL     1       1.721  10.330  18.282  0.00  0.00    +0.000 A 
ATOM     10  C   UNL     1       1.253  11.549  18.784  0.00  0.00    +0.000 A 
ATOM     11  C   UNL     1       0.628  11.597  20.027  0.00  0.00    +0.000 A 
ATOM     12  C   UNL     1       0.460  10.424  20.757  0.00  0.00    +0.000 A 
ATOM     13 CL   UNL     1      -0.296  10.485  22.304  0.00  0.00    +0.000 Cl
ATOM     14  C   UNL     1       0.920   9.204  20.257  0.00  0.00    +0.000 A 
ENDBRANCH   6   8
ENDBRANCH   2   3
BRANCH   1  16
ATOM     15  O   UNL     1       5.794   4.534  19.422  0.00  0.00    +0.000 OA
ATOM     16  C   UNL     1       5.472   4.347  18.247  0.00  0.00    +0.000 C 
ATOM     17  N   UNL     1       4.774   3.224  17.884  0.00  0.00    +0.000 N 
ATOM     18  H   UNL     1       4.590   3.003  16.906  0.00  0.00    +0.000 HD
BRANCH  17  19
ATOM     19  C   UNL     1       4.458   2.225  18.884  0.00  0.00    +0.000 C 
BRANCH  19  20
ATOM     20  C   UNL     1       3.145   2.485  19.564  0.00  0.00    +0.000 A 
ATOM     21  C   UNL     1       3.071   2.764  20.934  0.00  0.00    +0.000 A 
ATOM     22  C   UNL     1       1.838   3.031  21.521  0.00  0.00    +0.000 A 
ATOM     23  C   UNL     1       0.712   2.999  20.716  0.00  0.00    +0.000 A 
ATOM     24  N   UNL     1       0.740   2.717  19.395  0.00  0.00    +0.000 NA
ATOM     25  C   UNL     1       1.952   2.462  18.854  0.00  0.00    +0.000 A 
ENDBRANCH  19  20
ENDBRANCH  17  19
ENDBRANCH   1  16
BRANCH   1  26
ATOM     26  S   UNL     1       7.311   5.267  16.364  0.00  0.00    +0.000 S 
ATOM     27  O   UNL     1       7.895   6.592  16.199  0.00  0.00    +0.000 OA
ATOM     28  O   UNL     1       8.115   4.214  16.981  0.00  0.00    +0.000 OA
BRANCH  26  29
ATOM     29  C   UNL     1       6.923   4.700  14.719  0.00  0.00    +0.000 A 
ATOM     30  C   UNL     1       5.813   3.877  14.513  0.00  0.00    +0.000 A 
ATOM     31  C   UNL     1       5.511   3.444  13.218  0.00  0.00    +0.000 A 
ATOM     32  C   UNL     1       6.301   3.845  12.138  0.00  0.00    +0.000 A 
ATOM     33  C   UNL     1       7.390   4.690  12.344  0.00  0.00    +0.000 A 
ATOM     34  C   UNL     1       7.701   5.125  13.634  0.00  0.00    +0.000 A 
ENDBRANCH  26  29
ENDBRANCH   1  26
TORSDOF 7
ENDMDL
MODEL 3
REMARK VINA RESULT:      -9.5      0.928      1.248
REMARK  Name = 
REMARK  7 active torsions:
REMARK  status: ('A' for Active; 'I' for Inactive)
REMARK    1  A    between atoms: C_2  and  C_11
REMARK    2  A    between atoms: N_3  and  C_4
REMARK    3  A    between atoms: C_4  and  C_5
REMARK    4  A    between atoms: C_11  and  S_25
REMARK    5  A    between atoms: C_12  and  C_13
REMARK    6  A    between atoms: C_16  and  C_17
REMARK    7  A    between atoms: S_25  and  C_28
REMARK                            x       y       z     vdW  Elec       q    Type
REMARK                         _______ _______ _______ _____ _____    ______ ____
ROOT
ATOM      1  C   UNL     1       5.736   5.278  17.210  0.00  0.00    +0.000 C 
ATOM      2  C   UNL     1       4.868   6.284  16.942  0.00  0.00    +0.000 C 
ENDROOT
BRANCH   2   3
ATOM      3  C   UNL     1       3.638   6.501  17.636  0.00  0.00    +0.000 A 
ATOM      4  C   UNL     1       2.576   5.635  17.855  0.00  0.00    +0.000 A 
ATOM      5  C   UNL     1       1.569   6.337  18.554  0.00  0.00    +0.000 A 
ATOM      6  C   UNL     1       2.058   7.607  18.776  0.00  0.00    +0.000 A 
ATOM      7  O   UNL     1       3.298   7.713  18.204  0.00  0.00    +0.000 OA
BRANCH   6   8
ATOM      8  C   UNL     1       1.552   8.777  19.491  0.00  0.00    +0.000 A 
ATOM      9  C   UNL     1       1.273   8.723  20.865  0.00  0.00    +0.000 A 
ATOM     10  C   UNL     1       0.726   9.823  21.533  0.00  0.00    +0.000 A 
ATOM     11  C   UNL     1       0.452  10.997  20.836  0.00  0.00    +0.000 A 
ATOM     12  C   UNL     1       0.741  11.070  19.476  0.00  0.00    +0.000 A 
ATOM     13 CL   UNL     1       0.385  12.515  18.608  0.00  0.00    +0.000 Cl
ATOM     14  C   UNL     1       1.293   9.977  18.806  0.00  0.00    +0.000 A 
ENDBRANCH   6   8
ENDBRANCH   2   3
BRANCH   1  16
ATOM     15  O   UNL     1       5.846   4.262  19.346  0.00  0.00    +0.000 OA
ATOM     16  C   UNL     1       5.431   4.201  18.186  0.00  0.00    +0.000 C 
ATOM     17  N   UNL     1       4.642   3.155  17.781  0.00  0.00    +0.000 N 
ATOM     18  H   UNL     1       4.375   3.035  16.805  0.00  0.00    +0.000 HD
BRANCH  17  19
ATOM     19  C   UNL     1       4.338   2.087  18.711  0.00  0.00    +0.000 C 
BRANCH  19  20
ATOM     20  C   UNL     1       3.174   2.411  19.602  0.00  0.00    +0.000 A 
ATOM     21  C   UNL     1       1.874   2.532  19.097  0.00  0.00    +0.000 A 
ATOM     22  C   UNL     1       0.818   2.802  19.961  0.00  0.00    +0.000 A 
ATOM     23  C   UNL     1       1.099   2.953  21.308  0.00  0.00    +0.000 A 
ATOM     24  N   UNL     1       2.341   2.861  21.832  0.00  0.00    +0.000 NA
ATOM     25  C   UNL     1       3.346   2.598  20.967  0.00  0.00    +0.000 A 
ENDBRANCH  19  20
ENDBRANCH  17  19
ENDBRANCH   1  16
BRANCH   1  26
ATOM     26  S   UNL     1       7.262   5.284  16.385  0.00  0.00    +0.000 S 
ATOM     27  O   UNL     1       7.790   6.637  16.263  0.00  0.00    +0.000 OA
ATOM     28  O   UNL     1       8.106   4.249  16.978  0.00  0.00    +0.000 OA
BRANCH  26  29
ATOM     29  C   UNL     1       6.911   4.749  14.721  0.00  0.00    +0.000 A 
ATOM     30  C   UNL     1       7.711   5.195  13.666  0.00  0.00    +0.000 A 
ATOM     31  C   UNL     1       7.433   4.765  12.365  0.00  0.00    +0.000 A 
ATOM     32  C   UNL     1       6.377   3.883  12.124  0.00  0.00    +0.000 A 
ATOM     33  C   UNL     1       5.599   3.417  13.184  0.00  0.00    +0.000 A 
ATOM     34  C   UNL     1       5.868   3.844  14.485  0.00  0.00    +0.000 A 
ENDBRANCH  26  29
ENDBRANCH   1  26
TORSDOF 7
ENDMDL
MODEL 4
REMARK VINA RESULT:      -9.3      1.368      1.913
REMARK  Name = 
REMARK  7 active torsions:
REMARK  status: ('A' for Active; 'I' for Inactive)
REMARK    1  A    between atoms: C_2  and  C_11
REMARK    2  A    between atoms: N_3  and  C_4
REMARK    3  A    between atoms: C_4  and  C_5
REMARK    4  A    between atoms: C_11  and  S_25
REMARK    5  A    between atoms: C_12  and  C_13
REMARK    6  A    between atoms: C_16  and  C_17
REMARK    7  A    between atoms: S_25  and  C_28
REMARK                            x       y       z     vdW  Elec       q    Type
REMARK                         _______ _______ _______ _____ _____    ______ ____
ROOT
ATOM      1  C   UNL     1       5.793   5.422  17.207  0.00  0.00    +0.000 C 
ATOM      2  C   UNL     1       4.971   6.447  16.873  0.00  0.00    +0.000 C 
ENDROOT
BRANCH   2   3
ATOM      3  C   UNL     1       3.759   6.769  17.555  0.00  0.00    +0.000 A 
ATOM      4  C   UNL     1       2.763   5.934  18.041  0.00  0.00    +0.000 A 
ATOM      5  C   UNL     1       1.741   6.739  18.595  0.00  0.00    +0.000 A 
ATOM      6  C   UNL     1       2.158   8.046  18.464  0.00  0.00    +0.000 A 
ATOM      7  O   UNL     1       3.366   8.067  17.819  0.00  0.00    +0.000 OA
BRANCH   6   8
ATOM      8  C   UNL     1       1.607   9.332  18.889  0.00  0.00    +0.000 A 
ATOM      9  C   UNL     1       0.576   9.402  19.837  0.00  0.00    +0.000 A 
ATOM     10  C   UNL     1       0.005  10.628  20.193  0.00  0.00    +0.000 A 
ATOM     11  C   UNL     1       0.461  11.806  19.605  0.00  0.00    +0.000 A 
ATOM     12  C   UNL     1       1.496  11.753  18.677  0.00  0.00    +0.000 A 
ATOM     13 CL   UNL     1       2.048  13.207  17.935  0.00  0.00    +0.000 Cl
ATOM     14  C   UNL     1       2.073  10.532  18.323  0.00  0.00    +0.000 A 
ENDBRANCH   6   8
ENDBRANCH   2   3
BRANCH   1  16
ATOM     15  O   UNL     1       5.723   4.640  19.441  0.00  0.00    +0.000 OA
ATOM     16  C   UNL     1       5.445   4.431  18.258  0.00  0.00    +0.000 C 
ATOM     17  N   UNL     1       4.770   3.296  17.889  0.00  0.00    +0.000 N 
ATOM     18  H   UNL     1       4.622   3.059  16.909  0.00  0.00    +0.000 HD
BRANCH  17  19
ATOM     19  C   UNL     1       4.428   2.310  18.892  0.00  0.00    +0.000 C 
BRANCH  19  20
ATOM     20  C   UNL     1       3.077   2.550  19.501  0.00  0.00    +0.000 A 
ATOM     21  C   UNL     1       2.929   2.867  20.857  0.00  0.00    +0.000 A 
ATOM     22  C   UNL     1       1.661   3.113  21.376  0.00  0.00    +0.000 A 
ATOM     23  C   UNL     1       0.578   3.026  20.520  0.00  0.00    +0.000 A 
ATOM     24  N   UNL     1       0.677   2.708  19.211  0.00  0.00    +0.000 NA
ATOM     25  C   UNL     1       1.921   2.473  18.736  0.00  0.00    +0.000 A 
ENDBRANCH  19  20
ENDBRANCH  17  19
ENDBRANCH   1  16
BRANCH   1  26
ATOM     26  S   UNL     1       7.312   5.297  16.377  0.00  0.00    +0.000 S 
ATOM     27  O   UNL     1       7.926   6.608  16.203  0.00  0.00    +0.000 OA
ATOM     28  O   UNL     1       8.089   4.232  17.005  0.00  0.00    +0.000 OA
BRANCH  26  29
ATOM     29  C   UNL     1       6.916   4.726  14.736  0.00  0.00    +0.000 A 
ATOM     30  C   UNL     1       5.771   3.953  14.527  0.00  0.00    +0.000 A 
ATOM     31  C   UNL     1       5.464   3.516  13.235  0.00  0.00    +0.000 A 
ATOM     32  C   UNL     1       6.284   3.865  12.159  0.00  0.00    +0.000 A 
ATOM     33  C   UNL     1       7.409   4.661  12.367  0.00  0.00    +0.000 A 
ATOM     34  C   UNL     1       7.725   5.099  13.654  0.00  0.00    +0.000 A 
ENDBRANCH  26  29
ENDBRANCH   1  26
TORSDOF 7
ENDMDL
MODEL 5
REMARK VINA RESULT:      -9.2      1.562      1.716
REMARK  Name = 
REMARK  7 active torsions:
REMARK  status: ('A' for Active; 'I' for Inactive)
REMARK    1  A    between atoms: C_2  and  C_11
REMARK    2  A    between atoms: N_3  and  C_4
REMARK    3  A    between atoms: C_4  and  C_5
REMARK    4  A    between atoms: C_11  and  S_25
REMARK    5  A    between atoms: C_12  and  C_13
REMARK    6  A    between atoms: C_16  and  C_17
REMARK    7  A    between atoms: S_25  and  C_28
REMARK                            x       y       z     vdW  Elec       q    Type
REMARK                         _______ _______ _______ _____ _____    ______ ____
ROOT
ATOM      1  C   UNL     1       5.549   5.517  16.951  0.00  0.00    +0.000 C 
ATOM      2  C   UNL     1       5.117   6.771  17.229  0.00  0.00    +0.000 C 
ENDROOT
BRANCH   2   3
ATOM      3  C   UNL     1       3.889   7.079  17.889  0.00  0.00    +0.000 A 
ATOM      4  C   UNL     1       3.166   6.338  18.813  0.00  0.00    +0.000 A 
ATOM      5  C   UNL     1       1.990   7.055  19.133  0.00  0.00    +0.000 A 
ATOM      6  C   UNL     1       2.044   8.234  18.421  0.00  0.00    +0.000 A 
ATOM      7  O   UNL     1       3.180   8.241  17.655  0.00  0.00    +0.000 OA
BRANCH   6   8
ATOM      8  C   UNL     1       1.192   9.420  18.360  0.00  0.00    +0.000 A 
ATOM      9  C   UNL     1       1.671  10.679  18.749  0.00  0.00    +0.000 A 
ATOM     10  C   UNL     1       0.835  11.800  18.753  0.00  0.00    +0.000 A 
ATOM     11  C   UNL     1      -0.497  11.677  18.364  0.00  0.00    +0.000 A 
ATOM     12  C   UNL     1      -0.981  10.437  17.958  0.00  0.00    +0.000 A 
ATOM     13 CL   UNL     1      -2.633  10.280  17.495  0.00  0.00    +0.000 Cl
ATOM     14  C   UNL     1      -0.148   9.316  17.947  0.00  0.00    +0.000 A 
ENDBRANCH   6   8
ENDBRANCH   2   3
BRANCH   1  16
ATOM     15  O   UNL     1       3.772   4.036  16.445  0.00  0.00    +0.000 OA
ATOM     16  C   UNL     1       4.712   4.314  17.194  0.00  0.00    +0.000 C 
ATOM     17  N   UNL     1       5.031   3.496  18.247  0.00  0.00    +0.000 N 
ATOM     18  H   UNL     1       5.736   3.761  18.934  0.00  0.00    +0.000 HD
BRANCH  17  19
ATOM     19  C   UNL     1       4.224   2.323  18.512  0.00  0.00    +0.000 C 
BRANCH  19  20
ATOM     20  C   UNL     1       3.182   2.565  19.564  0.00  0.00    +0.000 A 
ATOM     21  C   UNL     1       1.860   2.880  19.230  0.00  0.00    +0.000 A 
ATOM     22  C   UNL     1       0.916   3.066  20.236  0.00  0.00    +0.000 A 
ATOM     23  C   UNL     1       1.331   2.940  21.550  0.00  0.00    +0.000 A 
ATOM     24  N   UNL     1       2.600   2.654  21.914  0.00  0.00    +0.000 NA
ATOM     25  C   UNL     1       3.493   2.480  20.915  0.00  0.00    +0.000 A 
ENDBRANCH  19  20
ENDBRANCH  17  19
ENDBRANCH   1  16
BRANCH   1  26
ATOM     26  S   UNL     1       7.150   5.334  16.309  0.00  0.00    +0.000 S 
ATOM     27  O   UNL     1       7.841   6.616  16.245  0.00  0.00    +0.000 OA
ATOM     28  O   UNL     1       7.795   4.219  16.998  0.00  0.00    +0.000 OA
BRANCH  26  29
ATOM     29  C   UNL     1       6.933   4.817  14.617  0.00  0.00    +0.000 A 
ATOM     30  C   UNL     1       7.727   5.377  13.613  0.00  0.00    +0.000 A 
ATOM     31  C   UNL     1       7.555   4.960  12.289  0.00  0.00    +0.000 A 
ATOM     32  C   UNL     1       6.612   3.979  11.976  0.00  0.00    +0.000 A 
ATOM     33  C   UNL     1       5.842   3.400  12.984  0.00  0.00    +0.000 A 
ATOM     34  C   UNL     1       6.005   3.813  14.308  0.00  0.00    +0.000 A 
ENDBRANCH  26  29
ENDBRANCH   1  26
TORSDOF 7
ENDMDL
MODEL 6
REMARK VINA RESULT:      -9.2      1.431      1.816
REMARK  Name = 
REMARK  7 active torsions:
REMARK  status: ('A' for Active; 'I' for Inactive)
REMARK    1  A    between atoms: C_2  and  C_11
REMARK    2  A    between atoms: N_3  and  C_4
REMARK    3  A    between atoms: C_4  and  C_5
REMARK    4  A    between atoms: C_11  and  S_25
REMARK    5  A    between atoms: C_12  and  C_13
REMARK    6  A    between atoms: C_16  and  C_17
REMARK    7  A    between atoms: S_25  and  C_28
REMARK                            x       y       z     vdW  Elec       q    Type
REMARK                         _______ _______ _______ _____ _____    ______ ____
ROOT
ATOM      1  C   UNL     1       5.791   5.358  17.336  0.00  0.00    +0.000 C 
ATOM      2  C   UNL     1       5.065   6.500  17.256  0.00  0.00    +0.000 C 
ENDROOT
BRANCH   2   3
ATOM      3  C   UNL     1       3.924   6.795  18.062  0.00  0.00    +0.000 A 
ATOM      4  C   UNL     1       3.376   6.085  19.121  0.00  0.00    +0.000 A 
ATOM      5  C   UNL     1       2.218   6.766  19.559  0.00  0.00    +0.000 A 
ATOM      6  C   UNL     1       2.109   7.896  18.778  0.00  0.00    +0.000 A 
ATOM      7  O   UNL     1       3.126   7.904  17.861  0.00  0.00    +0.000 OA
BRANCH   6   8
ATOM      8  C   UNL     1       1.193   9.035  18.766  0.00  0.00    +0.000 A 
ATOM      9  C   UNL     1       1.282  10.049  19.732  0.00  0.00    +0.000 A 
ATOM     10  C   UNL     1       0.363  11.102  19.759  0.00  0.00    +0.000 A 
ATOM     11  C   UNL     1      -0.660  11.159  18.816  0.00  0.00    +0.000 A 
ATOM     12  C   UNL     1      -0.750  10.169  17.841  0.00  0.00    +0.000 A 
ATOM     13 CL   UNL     1      -2.027  10.228  16.686  0.00  0.00    +0.000 Cl
ATOM     14  C   UNL     1       0.169   9.119  17.806  0.00  0.00    +0.000 A 
ENDBRANCH   6   8
ENDBRANCH   2   3
BRANCH   1  16
ATOM     15  O   UNL     1       5.818   4.112  19.349  0.00  0.00    +0.000 OA
ATOM     16  C   UNL     1       5.388   4.217  18.198  0.00  0.00    +0.000 C 
ATOM     17  N   UNL     1       4.494   3.305  17.700  0.00  0.00    +0.000 N 
ATOM     18  H   UNL     1       4.207   3.318  16.722  0.00  0.00    +0.000 HD
BRANCH  17  19
ATOM     19  C   UNL     1       4.093   2.178  18.516  0.00  0.00    +0.000 C 
BRANCH  19  20
ATOM     20  C   UNL     1       3.025   2.535  19.509  0.00  0.00    +0.000 A 
ATOM     21  C   UNL     1       1.731   2.882  19.102  0.00  0.00    +0.000 A 
ATOM     22  C   UNL     1       0.761   3.176  20.056  0.00  0.00    +0.000 A 
ATOM     23  C   UNL     1       1.122   3.123  21.391  0.00  0.00    +0.000 A 
ATOM     24  N   UNL     1       2.362   2.809  21.823  0.00  0.00    +0.000 NA
ATOM     25  C   UNL     1       3.283   2.529  20.874  0.00  0.00    +0.000 A 
ENDBRANCH  19  20
ENDBRANCH  17  19
ENDBRANCH   1  16
BRANCH   1  26
ATOM     26  S   UNL     1       7.250   5.257  16.403  0.00  0.00    +0.000 S 
ATOM     27  O   UNL     1       7.830   6.577  16.189  0.00  0.00    +0.000 OA
ATOM     28  O   UNL     1       8.086   4.204  16.975  0.00  0.00    +0.000 OA
BRANCH  26  29
ATOM     29  C   UNL     1       6.752   4.681  14.792  0.00  0.00    +0.000 A 
ATOM     30  C   UNL     1       5.512   4.056  14.631  0.00  0.00    +0.000 A 
ATOM     31  C   UNL     1       5.126   3.613  13.362  0.00  0.00    +0.000 A 
ATOM     32  C   UNL     1       5.962   3.812  12.262  0.00  0.00    +0.000 A 
ATOM     33  C   UNL     1       7.185   4.462  12.420  0.00  0.00    +0.000 A 
ATOM     34  C   UNL     1       7.580   4.905  13.684  0.00  0.00    +0.000 A 
ENDBRANCH  26  29
ENDBRANCH   1  26
TORSDOF 7
ENDMDL
MODEL 7
REMARK VINA RESULT:      -9.1      0.887      1.134
REMARK  Name = 
REMARK  7 active torsions:
REMARK  status: ('A' for Active; 'I' for Inactive)
REMARK    1  A    between atoms: C_2  and  C_11
REMARK    2  A    between atoms: N_3  and  C_4
REMARK    3  A    between atoms: C_4  and  C_5
REMARK    4  A    between atoms: C_11  and  S_25
REMARK    5  A    between atoms: C_12  and  C_13
REMARK    6  A    between atoms: C_16  and  C_17
REMARK    7  A    between atoms: S_25  and  C_28
REMARK                            x       y       z     vdW  Elec       q    Type
REMARK                         _______ _______ _______ _____ _____    ______ ____
ROOT
ATOM      1  C   UNL     1       5.775   5.315  17.374  0.00  0.00    +0.000 C 
ATOM      2  C   UNL     1       5.054   6.463  17.392  0.00  0.00    +0.000 C 
ENDROOT
BRANCH   2   3
ATOM      3  C   UNL     1       3.920   6.695  18.228  0.00  0.00    +0.000 A 
ATOM      4  C   UNL     1       3.339   5.876  19.186  0.00  0.00    +0.000 A 
ATOM      5  C   UNL     1       2.205   6.540  19.708  0.00  0.00    +0.000 A 
ATOM      6  C   UNL     1       2.145   7.765  19.079  0.00  0.00    +0.000 A 
ATOM      7  O   UNL     1       3.167   7.851  18.172  0.00  0.00    +0.000 OA
BRANCH   6   8
ATOM      8  C   UNL     1       1.273   8.930  19.214  0.00  0.00    +0.000 A 
ATOM      9  C   UNL     1       0.858   9.660  18.090  0.00  0.00    +0.000 A 
ATOM     10  C   UNL     1       0.079  10.813  18.227  0.00  0.00    +0.000 A 
ATOM     11  C   UNL     1      -0.301  11.252  19.492  0.00  0.00    +0.000 A 
ATOM     12  C   UNL     1       0.088  10.528  20.615  0.00  0.00    +0.000 A 
ATOM     13 CL   UNL     1      -0.364  11.081  22.183  0.00  0.00    +0.000 Cl
ATOM     14  C   UNL     1       0.861   9.372  20.484  0.00  0.00    +0.000 A 
ENDBRANCH   6   8
ENDBRANCH   2   3
BRANCH   1  16
ATOM     15  O   UNL     1       5.850   3.886  19.260  0.00  0.00    +0.000 OA
ATOM     16  C   UNL     1       5.375   4.110  18.144  0.00  0.00    +0.000 C 
ATOM     17  N   UNL     1       4.433   3.272  17.605  0.00  0.00    +0.000 N 
ATOM     18  H   UNL     1       4.106   3.384  16.646  0.00  0.00    +0.000 HD
BRANCH  17  19
ATOM     19  C   UNL     1       4.033   2.085  18.331  0.00  0.00    +0.000 C 
BRANCH  19  20
ATOM     20  C   UNL     1       2.974   2.365  19.356  0.00  0.00    +0.000 A 
ATOM     21  C   UNL     1       3.275   2.443  20.721  0.00  0.00    +0.000 A 
ATOM     22  C   UNL     1       2.270   2.736  21.637  0.00  0.00    +0.000 A 
ATOM     23  C   UNL     1       0.987   2.934  21.157  0.00  0.00    +0.000 A 
ATOM     24  N   UNL     1       0.652   2.851  19.851  0.00  0.00    +0.000 NA
ATOM     25  C   UNL     1       1.650   2.564  18.985  0.00  0.00    +0.000 A 
ENDBRANCH  19  20
ENDBRANCH  17  19
ENDBRANCH   1  16
BRANCH   1  26
ATOM     26  S   UNL     1       7.227   5.285  16.425  0.00  0.00    +0.000 S 
ATOM     27  O   UNL     1       7.765   6.628  16.242  0.00  0.00    +0.000 OA
ATOM     28  O   UNL     1       8.101   4.243  16.958  0.00  0.00    +0.000 OA
BRANCH  26  29
ATOM     29  C   UNL     1       6.729   4.739  14.802  0.00  0.00    +0.000 A 
ATOM     30  C   UNL     1       7.574   4.952  13.709  0.00  0.00    +0.000 A 
ATOM     31  C   UNL     1       7.179   4.514  12.441  0.00  0.00    +0.000 A 
ATOM     32  C   UNL     1       5.960   3.852  12.272  0.00  0.00    +0.000 A 
ATOM     33  C   UNL     1       5.134   3.615  13.370  0.00  0.00    +0.000 A 
ATOM     34  C   UNL     1       5.519   4.052  14.639  0.00  0.00    +0.000 A 
ENDBRANCH  26  29
ENDBRANCH   1  26
TORSDOF 7
ENDMDL
MODEL 8
REMARK VINA RESULT:      -9.0      1.415      1.731
REMARK  Name = 
REMARK  7 active torsions:
REMARK  status: ('A' for Active; 'I' for Inactive)
REMARK    1  A    between atoms: C_2  and  C_11
REMARK    2  A    between atoms: N_3  and  C_4
REMARK    3  A    between atoms: C_4  and  C_5
REMARK    4  A    between atoms: C_11  and  S_25
REMARK    5  A    between atoms: C_12  and  C_13
REMARK    6  A    between atoms: C_16  and  C_17
REMARK    7  A    between atoms: S_25  and  C_28
REMARK                            x       y       z     vdW  Elec       q    Type
REMARK                         _______ _______ _______ _____ _____    ______ ____
ROOT
ATOM      1  C   UNL     1       5.645   5.378  16.971  0.00  0.00    +0.000 C 
ATOM      2  C   UNL     1       4.982   6.559  16.910  0.00  0.00    +0.000 C 
ENDROOT
BRANCH   2   3
ATOM      3  C   UNL     1       3.721   6.814  17.529  0.00  0.00    +0.000 A 
ATOM      4  C   UNL     1       2.648   5.961  17.748  0.00  0.00    +0.000 A 
ATOM      5  C   UNL     1       1.609   6.702  18.356  0.00  0.00    +0.000 A 
ATOM      6  C   UNL     1       2.090   7.983  18.526  0.00  0.00    +0.000 A 
ATOM      7  O   UNL     1       3.356   8.057  18.009  0.00  0.00    +0.000 OA
BRANCH   6   8
ATOM      8  C   UNL     1       1.551   9.192  19.146  0.00  0.00    +0.000 A 
ATOM      9  C   UNL     1       0.887   9.140  20.381  0.00  0.00    +0.000 A 
ATOM     10  C   UNL     1       0.314  10.286  20.940  0.00  0.00    +0.000 A 
ATOM     11  C   UNL     1       0.401  11.506  20.273  0.00  0.00    +0.000 A 
ATOM     12  C   UNL     1       1.073  11.576  19.056  0.00  0.00    +0.000 A 
ATOM     13 CL   UNL     1       1.164  13.079  18.220  0.00  0.00    +0.000 Cl
ATOM     14  C   UNL     1       1.651  10.434  18.496  0.00  0.00    +0.000 A 
ENDBRANCH   6   8
ENDBRANCH   2   3
BRANCH   1  16
ATOM     15  O   UNL     1       4.389   3.372  16.926  0.00  0.00    +0.000 OA
ATOM     16  C   UNL     1       5.056   4.165  17.594  0.00  0.00    +0.000 C 
ATOM     17  N   UNL     1       5.304   3.925  18.921  0.00  0.00    +0.000 N 
ATOM     18  H   UNL     1       5.765   4.617  19.511  0.00  0.00    +0.000 HD
BRANCH  17  19
ATOM     19  C   UNL     1       4.733   2.755  19.555  0.00  0.00    +0.000 C 
BRANCH  19  20
ATOM     20  C   UNL     1       3.256   2.887  19.785  0.00  0.00    +0.000 A 
ATOM     21  C   UNL     1       2.734   3.822  20.686  0.00  0.00    +0.000 A 
ATOM     22  C   UNL     1       1.356   3.934  20.847  0.00  0.00    +0.000 A 
ATOM     23  C   UNL     1       0.542   3.097  20.105  0.00  0.00    +0.000 A 
ATOM     24  N   UNL     1       1.007   2.171  19.238  0.00  0.00    +0.000 NA
ATOM     25  C   UNL     1       2.349   2.085  19.104  0.00  0.00    +0.000 A 
ENDBRANCH  19  20
ENDBRANCH  17  19
ENDBRANCH   1  16
BRANCH   1  26
ATOM     26  S   UNL     1       7.248   5.313  16.310  0.00  0.00    +0.000 S 
ATOM     27  O   UNL     1       7.858   6.636  16.279  0.00  0.00    +0.000 OA
ATOM     28  O   UNL     1       7.966   4.220  16.959  0.00  0.00    +0.000 OA
BRANCH  26  29
ATOM     29  C   UNL     1       7.044   4.834  14.605  0.00  0.00    +0.000 A 
ATOM     30  C   UNL     1       7.837   5.427  13.618  0.00  0.00    +0.000 A 
ATOM     31  C   UNL     1       7.676   5.040  12.284  0.00  0.00    +0.000 A 
ATOM     32  C   UNL     1       6.746   4.057  11.943  0.00  0.00    +0.000 A 
ATOM     33  C   UNL     1       5.978   3.446  12.933  0.00  0.00    +0.000 A 
ATOM     34  C   UNL     1       6.129   3.828  14.267  0.00  0.00    +0.000 A 
ENDBRANCH  26  29
ENDBRANCH   1  26
TORSDOF 7
ENDMDL
MODEL 9
REMARK VINA RESULT:      -8.9      1.520      1.787
REMARK  Name = 
REMARK  7 active torsions:
REMARK  status: ('A' for Active; 'I' for Inactive)
REMARK    1  A    between atoms: C_2  and  C_11
REMARK    2  A    between atoms: N_3  and  C_4
REMARK    3  A    between atoms: C_4  and  C_5
REMARK    4  A    between atoms: C_11  and  S_25
REMARK    5  A    between atoms: C_12  and  C_13
REMARK    6  A    between atoms: C_16  and  C_17
REMARK    7  A    between atoms: S_25  and  C_28
REMARK                            x       y       z     vdW  Elec       q    Type
REMARK                         _______ _______ _______ _____ _____    ______ ____
ROOT
ATOM      1  C   UNL     1       5.820   5.451  17.272  0.00  0.00    +0.000 C 
ATOM      2  C   UNL     1       5.039   6.534  17.036  0.00  0.00    +0.000 C 
ENDROOT
BRANCH   2   3
ATOM      3  C   UNL     1       3.879   6.878  17.793  0.00  0.00    +0.000 A 
ATOM      4  C   UNL     1       3.242   6.182  18.811  0.00  0.00    +0.000 A 
ATOM      5  C   UNL     1       2.103   6.919  19.208  0.00  0.00    +0.000 A 
ATOM      6  C   UNL     1       2.095   8.067  18.445  0.00  0.00    +0.000 A 
ATOM      7  O   UNL     1       3.154   8.034  17.577  0.00  0.00    +0.000 OA
BRANCH   6   8
ATOM      8  C   UNL     1       1.243   9.255  18.413  0.00  0.00    +0.000 A 
ATOM      9  C   UNL     1       1.666  10.467  18.980  0.00  0.00    +0.000 A 
ATOM     10  C   UNL     1       0.824  11.582  19.007  0.00  0.00    +0.000 A 
ATOM     11  C   UNL     1      -0.455  11.504  18.463  0.00  0.00    +0.000 A 
ATOM     12  C   UNL     1      -0.881  10.314  17.880  0.00  0.00    +0.000 A 
ATOM     13 CL   UNL     1      -2.470  10.210  17.223  0.00  0.00    +0.000 Cl
ATOM     14  C   UNL     1      -0.041   9.199  17.845  0.00  0.00    +0.000 A 
ENDBRANCH   6   8
ENDBRANCH   2   3
BRANCH   1  16
ATOM     15  O   UNL     1       5.800   4.551  19.462  0.00  0.00    +0.000 OA
ATOM     16  C   UNL     1       5.467   4.420  18.281  0.00  0.00    +0.000 C 
ATOM     17  N   UNL     1       4.728   3.338  17.880  0.00  0.00    +0.000 N 
ATOM     18  H   UNL     1       4.532   3.161  16.895  0.00  0.00    +0.000 HD
BRANCH  17  19
ATOM     19  C   UNL     1       4.380   2.313  18.842  0.00  0.00    +0.000 C 
BRANCH  19  20
ATOM     20  C   UNL     1       3.070   2.582  19.523  0.00  0.00    +0.000 A 
ATOM     21  C   UNL     1       2.990   2.794  20.905  0.00  0.00    +0.000 A 
ATOM     22  C   UNL     1       1.760   3.072  21.493  0.00  0.00    +0.000 A 
ATOM     23  C   UNL     1       0.643   3.119  20.678  0.00  0.00    +0.000 A 
ATOM     24  N   UNL     1       0.675   2.903  19.345  0.00  0.00    +0.000 NA
ATOM     25  C   UNL     1       1.884   2.635  18.802  0.00  0.00    +0.000 A 
ENDBRANCH  19  20
ENDBRANCH  17  19
ENDBRANCH   1  16
BRANCH   1  26
ATOM     26  S   UNL     1       7.290   5.298  16.364  0.00  0.00    +0.000 S 
ATOM     27  O   UNL     1       7.921   6.596  16.160  0.00  0.00    +0.000 OA
ATOM     28  O   UNL     1       8.078   4.216  16.948  0.00  0.00    +0.000 OA
BRANCH  26  29
ATOM     29  C   UNL     1       6.797   4.740  14.744  0.00  0.00    +0.000 A 
ATOM     30  C   UNL     1       7.632   4.970  13.647  0.00  0.00    +0.000 A 
ATOM     31  C   UNL     1       7.242   4.522  12.381  0.00  0.00    +0.000 A 
ATOM     32  C   UNL     1       6.038   3.834  12.218  0.00  0.00    +0.000 A 
ATOM     33  C   UNL     1       5.221   3.580  13.319  0.00  0.00    +0.000 A 
ATOM     34  C   UNL     1       5.602   4.026  14.586  0.00  0.00    +0.000 A 
ENDBRANCH  26  29
ENDBRANCH   1  26
TORSDOF 7
ENDMDL
