MODEL 1
REMARK VINA RESULT:      -8.9      0.000      0.000
REMARK  Name = 
REMARK  5 active torsions:
REMARK  status: ('A' for Active; 'I' for Inactive)
REMARK    1  A    between atoms: C_1  and  C_2
REMARK    2  A    between atoms: C_2  and  C_3
REMARK    3  A    between atoms: C_2  and  N_4
REMARK    4  A    between atoms: C_8  and  C_9
REMARK    5  A    between atoms: C_19  and  C_20
REMARK                            x       y       z     vdW  Elec       q    Type
REMARK                         _______ _______ _______ _____ _____    ______ ____
ROOT
ATOM      1  N   UNL     1       3.113   3.883  19.731  0.00  0.00    +0.000 N 
ATOM      2  N   UNL     1       3.965   2.994  19.173  0.00  0.00    +0.000 NA
ATOM      3  C   UNL     1       4.496   3.662  18.146  0.00  0.00    +0.000 A 
ATOM      4  C   UNL     1       4.021   4.986  18.052  0.00  0.00    +0.000 A 
ATOM      5  C   UNL     1       4.213   6.105  17.231  0.00  0.00    +0.000 A 
ATOM      6  C   UNL     1       3.503   7.272  17.525  0.00  0.00    +0.000 A 
ATOM      7  C   UNL     1       2.630   7.273  18.611  0.00  0.00    +0.000 A 
ATOM      8  N   UNL     1       2.424   6.214  19.439  0.00  0.00    +0.000 NA
ATOM      9  C   UNL     1       3.132   5.115  19.110  0.00  0.00    +0.000 A 
ENDROOT
BRANCH   5  10
ATOM     10  C   UNL     1       5.066   6.011  16.031  0.00  0.00    +0.000 C 
ATOM     11  O   UNL     1       5.608   7.029  15.619  0.00  0.00    +0.000 OA
ATOM     12  N   UNL     1       5.131   4.765  15.445  0.00  0.00    +0.000 N 
ATOM     13  C   UNL     1       5.868   4.507  14.285  0.00  0.00    +0.000 A 
ATOM     14  C   UNL     1       7.134   5.042  14.080  0.00  0.00    +0.000 A 
ATOM     15  C   UNL     1       7.805   4.743  12.897  0.00  0.00    +0.000 A 
ATOM     16  C   UNL     1       7.174   3.956  11.942  0.00  0.00    +0.000 A 
ATOM     17  C   UNL     1       5.914   3.463  12.236  0.00  0.00    +0.000 A 
ATOM     18  N   UNL     1       5.269   3.680  13.405  0.00  0.00    +0.000 NA
ATOM     19  H   UNL     1       4.349   4.134  15.564  0.00  0.00    +0.000 HD
ENDBRANCH   5  10
BRANCH   7  20
ATOM     20  C   UNL     1       1.848   8.477  18.912  0.00  0.00    +0.000 A 
ATOM     21  C   UNL     1       1.469   9.528  18.008  0.00  0.00    +0.000 A 
ATOM     22  C   UNL     1       0.752  10.530  18.630  0.00  0.00    +0.000 A 
ATOM     23  S   UNL     1       0.524  10.214  20.293  0.00  0.00    +0.000 S 
ATOM     24  C   UNL     1       1.371   8.731  20.184  0.00  0.00    +0.000 A 
ENDBRANCH   7  20
BRANCH   1  26
ATOM     25  C   UNL     1       0.843   3.244  20.484  0.00  0.00    +0.000 C 
ATOM     26  C   UNL     1       2.301   3.493  20.880  0.00  0.00    +0.000 C 
ATOM     27  C   UNL     1       2.886   2.264  21.578  0.00  0.00    +0.000 C 
ENDBRANCH   1  26
TORSDOF 3
ENDMDL
MODEL 2
REMARK VINA RESULT:      -8.8      0.738      1.250
REMARK  Name = 
REMARK  5 active torsions:
REMARK  status: ('A' for Active; 'I' for Inactive)
REMARK    1  A    between atoms: C_1  and  C_2
REMARK    2  A    between atoms: C_2  and  C_3
REMARK    3  A    between atoms: C_2  and  N_4
REMARK    4  A    between atoms: C_8  and  C_9
REMARK    5  A    between atoms: C_19  and  C_20
REMARK                            x       y       z     vdW  Elec       q    Type
REMARK                         _______ _______ _______ _____ _____    ______ ____
ROOT
ATOM      1  N   UNL     1       2.828   3.091  19.191  0.00  0.00    +0.000 N 
ATOM      2  N   UNL     1       3.603   2.266  18.453  0.00  0.00    +0.000 NA
ATOM      3  C   UNL     1       4.211   3.086  17.592  0.00  0.00    +0.000 A 
ATOM      4  C   UNL     1       3.862   4.438  17.786  0.00  0.00    +0.000 A 
ATOM      5  C   UNL     1       4.171   5.683  17.224  0.00  0.00    +0.000 A 
ATOM      6  C   UNL     1       3.567   6.822  17.763  0.00  0.00    +0.000 A 
ATOM      7  C   UNL     1       2.679   6.673  18.828  0.00  0.00    +0.000 A 
ATOM      8  N   UNL     1       2.362   5.485  19.410  0.00  0.00    +0.000 NA
ATOM      9  C   UNL     1       2.971   4.420  18.850  0.00  0.00    +0.000 A 
ENDROOT
BRANCH   5  10
ATOM     10  C   UNL     1       5.032   5.768  16.029  0.00  0.00    +0.000 C 
ATOM     11  O   UNL     1       5.408   6.873  15.659  0.00  0.00    +0.000 OA
ATOM     12  N   UNL     1       5.293   4.571  15.399  0.00  0.00    +0.000 N 
ATOM     13  C   UNL     1       6.065   4.475  14.237  0.00  0.00    +0.000 A 
ATOM     14  C   UNL     1       7.233   5.209  14.063  0.00  0.00    +0.000 A 
ATOM     15  C   UNL     1       7.946   5.062  12.876  0.00  0.00    +0.000 A 
ATOM     16  C   UNL     1       7.449   4.223  11.887  0.00  0.00    +0.000 A 
ATOM     17  C   UNL     1       6.281   3.527  12.151  0.00  0.00    +0.000 A 
ATOM     18  N   UNL     1       5.606   3.598  13.322  0.00  0.00    +0.000 NA
ATOM     19  H   UNL     1       4.620   3.821  15.488  0.00  0.00    +0.000 HD
ENDBRANCH   5  10
BRANCH   7  20
ATOM     20  C   UNL     1       2.007   7.852  19.383  0.00  0.00    +0.000 A 
ATOM     21  C   UNL     1       1.566   8.057  20.735  0.00  0.00    +0.000 A 
ATOM     22  C   UNL     1       0.946   9.277  20.911  0.00  0.00    +0.000 A 
ATOM     23  S   UNL     1       0.895  10.183  19.464  0.00  0.00    +0.000 S 
ATOM     24  C   UNL     1       1.714   8.953  18.601  0.00  0.00    +0.000 A 
ENDBRANCH   7  20
BRANCH   1  26
ATOM     25  C   UNL     1       2.444   2.933  21.632  0.00  0.00    +0.000 C 
ATOM     26  C   UNL     1       1.963   2.542  20.232  0.00  0.00    +0.000 C 
ATOM     27  C   UNL     1       0.509   2.970  20.023  0.00  0.00    +0.000 C 
ENDBRANCH   1  26
TORSDOF 3
ENDMDL
MODEL 3
REMARK VINA RESULT:      -7.9      2.629      7.379
REMARK  Name = 
REMARK  5 active torsions:
REMARK  status: ('A' for Active; 'I' for Inactive)
REMARK    1  A    between atoms: C_1  and  C_2
REMARK    2  A    between atoms: C_2  and  C_3
REMARK    3  A    between atoms: C_2  and  N_4
REMARK    4  A    between atoms: C_8  and  C_9
REMARK    5  A    between atoms: C_19  and  C_20
REMARK                            x       y       z     vdW  Elec       q    Type
REMARK                         _______ _______ _______ _____ _____    ______ ____
ROOT
ATOM      1  N   UNL     1       5.303   5.561  16.499  0.00  0.00    +0.000 N 
ATOM      2  N   UNL     1       5.426   6.726  15.824  0.00  0.00    +0.000 NA
ATOM      3  C   UNL     1       4.503   7.516  16.380  0.00  0.00    +0.000 A 
ATOM      4  C   UNL     1       3.804   6.884  17.428  0.00  0.00    +0.000 A 
ATOM      5  C   UNL     1       2.785   7.198  18.337  0.00  0.00    +0.000 A 
ATOM      6  C   UNL     1       2.390   6.220  19.253  0.00  0.00    +0.000 A 
ATOM      7  C   UNL     1       3.016   4.975  19.221  0.00  0.00    +0.000 A 
ATOM      8  N   UNL     1       4.016   4.635  18.365  0.00  0.00    +0.000 NA
ATOM      9  C   UNL     1       4.357   5.614  17.502  0.00  0.00    +0.000 A 
ENDROOT
BRANCH   5  10
ATOM     10  C   UNL     1       2.085   8.493  18.252  0.00  0.00    +0.000 C 
ATOM     11  O   UNL     1       2.165   9.133  17.211  0.00  0.00    +0.000 OA
ATOM     12  N   UNL     1       1.434   8.893  19.399  0.00  0.00    +0.000 N 
ATOM     13  C   UNL     1       0.747  10.107  19.501  0.00  0.00    +0.000 A 
ATOM     14  C   UNL     1      -0.055  10.591  18.474  0.00  0.00    +0.000 A 
ATOM     15  C   UNL     1      -0.705  11.810  18.648  0.00  0.00    +0.000 A 
ATOM     16  C   UNL     1      -0.499  12.524  19.821  0.00  0.00    +0.000 A 
ATOM     17  C   UNL     1       0.311  11.961  20.792  0.00  0.00    +0.000 A 
ATOM     18  N   UNL     1       0.898  10.747  20.678  0.00  0.00    +0.000 NA
ATOM     19  H   UNL     1       1.775   8.557  20.291  0.00  0.00    +0.000 HD
ENDBRANCH   5  10
BRANCH   7  20
ATOM     20  C   UNL     1       2.589   3.924  20.150  0.00  0.00    +0.000 A 
ATOM     21  C   UNL     1       1.328   3.812  20.832  0.00  0.00    +0.000 A 
ATOM     22  C   UNL     1       1.267   2.707  21.656  0.00  0.00    +0.000 A 
ATOM     23  S   UNL     1       2.711   1.797  21.612  0.00  0.00    +0.000 S 
ATOM     24  C   UNL     1       3.418   2.869  20.481  0.00  0.00    +0.000 A 
ENDBRANCH   7  20
BRANCH   1  26
ATOM     25  C   UNL     1       6.368   4.339  14.628  0.00  0.00    +0.000 C 
ATOM     26  C   UNL     1       6.136   4.418  16.139  0.00  0.00    +0.000 C 
ATOM     27  C   UNL     1       7.470   4.450  16.888  0.00  0.00    +0.000 C 
ENDBRANCH   1  26
TORSDOF 3
ENDMDL
MODEL 4
REMARK VINA RESULT:      -7.7      2.901      7.123
REMARK  Name = 
REMARK  5 active torsions:
REMARK  status: ('A' for Active; 'I' for Inactive)
REMARK    1  A    between atoms: C_1  and  C_2
REMARK    2  A    between atoms: C_2  and  C_3
REMARK    3  A    between atoms: C_2  and  N_4
REMARK    4  A    between atoms: C_8  and  C_9
REMARK    5  A    between atoms: C_19  and  C_20
REMARK                            x       y       z     vdW  Elec       q    Type
REMARK                         _______ _______ _______ _____ _____    ______ ____
ROOT
ATOM      1  N   UNL     1       2.425   4.274  20.099  0.00  0.00    +0.000 N 
ATOM      2  N   UNL     1       1.472   4.933  20.796  0.00  0.00    +0.000 NA
ATOM      3  C   UNL     1       1.433   6.138  20.221  0.00  0.00    +0.000 A 
ATOM      4  C   UNL     1       2.328   6.256  19.139  0.00  0.00    +0.000 A 
ATOM      5  C   UNL     1       2.704   7.226  18.200  0.00  0.00    +0.000 A 
ATOM      6  C   UNL     1       3.678   6.891  17.255  0.00  0.00    +0.000 A 
ATOM      7  C   UNL     1       4.239   5.615  17.290  0.00  0.00    +0.000 A 
ATOM      8  N   UNL     1       3.894   4.643  18.175  0.00  0.00    +0.000 NA
ATOM      9  C   UNL     1       2.953   5.019  19.064  0.00  0.00    +0.000 A 
ENDROOT
BRANCH   5  10
ATOM     10  C   UNL     1       2.155   8.592  18.280  0.00  0.00    +0.000 C 
ATOM     11  O   UNL     1       2.425   9.383  17.385  0.00  0.00    +0.000 OA
ATOM     12  N   UNL     1       1.416   8.870  19.410  0.00  0.00    +0.000 N 
ATOM     13  C   UNL     1       0.849  10.124  19.660  0.00  0.00    +0.000 A 
ATOM     14  C   UNL     1       0.231  10.867  18.661  0.00  0.00    +0.000 A 
ATOM     15  C   UNL     1      -0.307  12.110  18.987  0.00  0.00    +0.000 A 
ATOM     16  C   UNL     1      -0.172  12.586  20.284  0.00  0.00    +0.000 A 
ATOM     17  C   UNL     1       0.453  11.773  21.214  0.00  0.00    +0.000 A 
ATOM     18  N   UNL     1       0.923  10.534  20.941  0.00  0.00    +0.000 NA
ATOM     19  H   UNL     1       1.611   8.350  20.255  0.00  0.00    +0.000 HD
ENDBRANCH   5  10
BRANCH   7  20
ATOM     20  C   UNL     1       5.288   5.259  16.330  0.00  0.00    +0.000 A 
ATOM     21  C   UNL     1       6.669   5.659  16.347  0.00  0.00    +0.000 A 
ATOM     22  C   UNL     1       7.379   5.161  15.274  0.00  0.00    +0.000 A 
ATOM     23  S   UNL     1       6.402   4.208  14.248  0.00  0.00    +0.000 S 
ATOM     24  C   UNL     1       5.029   4.447  15.241  0.00  0.00    +0.000 A 
ENDBRANCH   7  20
BRANCH   1  26
ATOM     25  C   UNL     1       2.241   2.533  21.850  0.00  0.00    +0.000 C 
ATOM     26  C   UNL     1       2.788   2.909  20.470  0.00  0.00    +0.000 C 
ATOM     27  C   UNL     1       2.318   1.907  19.413  0.00  0.00    +0.000 C 
ENDBRANCH   1  26
TORSDOF 3
ENDMDL
MODEL 5
REMARK VINA RESULT:      -7.2      3.608      6.468
REMARK  Name = 
REMARK  5 active torsions:
REMARK  status: ('A' for Active; 'I' for Inactive)
REMARK    1  A    between atoms: C_1  and  C_2
REMARK    2  A    between atoms: C_2  and  C_3
REMARK    3  A    between atoms: C_2  and  N_4
REMARK    4  A    between atoms: C_8  and  C_9
REMARK    5  A    between atoms: C_19  and  C_20
REMARK                            x       y       z     vdW  Elec       q    Type
REMARK                         _______ _______ _______ _____ _____    ______ ____
ROOT
ATOM      1  N   UNL     1      -0.189  11.030  21.329  0.00  0.00    +0.000 N 
ATOM      2  N   UNL     1       0.994  10.619  21.836  0.00  0.00    +0.000 NA
ATOM      3  C   UNL     1       1.547   9.927  20.836  0.00  0.00    +0.000 A 
ATOM      4  C   UNL     1       0.747   9.912  19.676  0.00  0.00    +0.000 A 
ATOM      5  C   UNL     1       0.804   9.384  18.379  0.00  0.00    +0.000 A 
ATOM      6  C   UNL     1      -0.264   9.635  17.514  0.00  0.00    +0.000 A 
ATOM      7  C   UNL     1      -1.341  10.390  17.975  0.00  0.00    +0.000 A 
ATOM      8  N   UNL     1      -1.429  10.930  19.220  0.00  0.00    +0.000 NA
ATOM      9  C   UNL     1      -0.374  10.656  20.013  0.00  0.00    +0.000 A 
ENDROOT
BRANCH   5  10
ATOM     10  C   UNL     1       1.918   8.502  17.983  0.00  0.00    +0.000 C 
ATOM     11  O   UNL     1       2.781   8.950  17.239  0.00  0.00    +0.000 OA
ATOM     12  N   UNL     1       1.850   7.210  18.457  0.00  0.00    +0.000 N 
ATOM     13  C   UNL     1       2.806   6.235  18.153  0.00  0.00    +0.000 A 
ATOM     14  C   UNL     1       4.168   6.517  18.134  0.00  0.00    +0.000 A 
ATOM     15  C   UNL     1       5.059   5.494  17.818  0.00  0.00    +0.000 A 
ATOM     16  C   UNL     1       4.561   4.240  17.490  0.00  0.00    +0.000 A 
ATOM     17  C   UNL     1       3.190   4.051  17.541  0.00  0.00    +0.000 A 
ATOM     18  N   UNL     1       2.307   5.007  17.912  0.00  0.00    +0.000 NA
ATOM     19  H   UNL     1       0.941   6.818  18.665  0.00  0.00    +0.000 HD
ENDBRANCH   5  10
BRANCH   7  20
ATOM     20  C   UNL     1      -2.487  10.633  17.093  0.00  0.00    +0.000 A 
ATOM     21  C   UNL     1      -2.640  10.234  15.721  0.00  0.00    +0.000 A 
ATOM     22  C   UNL     1      -3.839  10.649  15.179  0.00  0.00    +0.000 A 
ATOM     23  S   UNL     1      -4.789  11.507  16.310  0.00  0.00    +0.000 S 
ATOM     24  C   UNL     1      -3.606  11.316  17.531  0.00  0.00    +0.000 A 
ENDBRANCH   7  20
BRANCH   1  26
ATOM     25  C   UNL     1      -1.537  11.014  23.406  0.00  0.00    +0.000 C 
ATOM     26  C   UNL     1      -1.113  11.797  22.160  0.00  0.00    +0.000 C 
ATOM     27  C   UNL     1      -0.511  13.148  22.552  0.00  0.00    +0.000 C 
ENDBRANCH   1  26
TORSDOF 3
ENDMDL
MODEL 6
REMARK VINA RESULT:      -7.1      5.762     10.780
REMARK  Name = 
REMARK  5 active torsions:
REMARK  status: ('A' for Active; 'I' for Inactive)
REMARK    1  A    between atoms: C_1  and  C_2
REMARK    2  A    between atoms: C_2  and  C_3
REMARK    3  A    between atoms: C_2  and  N_4
REMARK    4  A    between atoms: C_8  and  C_9
REMARK    5  A    between atoms: C_19  and  C_20
REMARK                            x       y       z     vdW  Elec       q    Type
REMARK                         _______ _______ _______ _____ _____    ______ ____
ROOT
ATOM      1  N   UNL     1       1.568  13.773  18.872  0.00  0.00    +0.000 N 
ATOM      2  N   UNL     1       0.633  14.742  18.751  0.00  0.00    +0.000 NA
ATOM      3  C   UNL     1      -0.502  14.068  18.552  0.00  0.00    +0.000 A 
ATOM      4  C   UNL     1      -0.317  12.670  18.573  0.00  0.00    +0.000 A 
ATOM      5  C   UNL     1      -1.099  11.515  18.437  0.00  0.00    +0.000 A 
ATOM      6  C   UNL     1      -0.467  10.273  18.539  0.00  0.00    +0.000 A 
ATOM      7  C   UNL     1       0.908  10.232  18.763  0.00  0.00    +0.000 A 
ATOM      8  N   UNL     1       1.699  11.328  18.913  0.00  0.00    +0.000 NA
ATOM      9  C   UNL     1       1.040  12.500  18.803  0.00  0.00    +0.000 A 
ENDROOT
BRANCH   5  10
ATOM     10  C   UNL     1      -2.529  11.619  18.092  0.00  0.00    +0.000 C 
ATOM     11  O   UNL     1      -2.865  11.426  16.931  0.00  0.00    +0.000 OA
ATOM     12  N   UNL     1      -3.364  11.985  19.126  0.00  0.00    +0.000 N 
ATOM     13  C   UNL     1      -4.742  12.160  18.967  0.00  0.00    +0.000 A 
ATOM     14  C   UNL     1      -5.513  11.292  18.202  0.00  0.00    +0.000 A 
ATOM     15  C   UNL     1      -6.880  11.533  18.087  0.00  0.00    +0.000 A 
ATOM     16  C   UNL     1      -7.422  12.655  18.701  0.00  0.00    +0.000 A 
ATOM     17  C   UNL     1      -6.578  13.459  19.448  0.00  0.00    +0.000 A 
ATOM     18  N   UNL     1      -5.261  13.209  19.633  0.00  0.00    +0.000 NA
ATOM     19  H   UNL     1      -2.981  12.536  19.884  0.00  0.00    +0.000 HD
ENDBRANCH   5  10
BRANCH   7  20
ATOM     20  C   UNL     1       1.593   8.938  18.837  0.00  0.00    +0.000 A 
ATOM     21  C   UNL     1       1.673   8.048  19.963  0.00  0.00    +0.000 A 
ATOM     22  C   UNL     1       2.421   6.920  19.696  0.00  0.00    +0.000 A 
ATOM     23  S   UNL     1       3.024   6.917  18.098  0.00  0.00    +0.000 S 
ATOM     24  C   UNL     1       2.276   8.417  17.753  0.00  0.00    +0.000 A 
ENDBRANCH   7  20
BRANCH   1  26
ATOM     25  C   UNL     1       3.323  15.441  18.353  0.00  0.00    +0.000 C 
ATOM     26  C   UNL     1       2.971  14.131  19.063  0.00  0.00    +0.000 C 
ATOM     27  C   UNL     1       3.321  14.214  20.550  0.00  0.00    +0.000 C 
ENDBRANCH   1  26
TORSDOF 3
ENDMDL
MODEL 7
REMARK VINA RESULT:      -7.1      4.401      8.281
REMARK  Name = 
REMARK  5 active torsions:
REMARK  status: ('A' for Active; 'I' for Inactive)
REMARK    1  A    between atoms: C_1  and  C_2
REMARK    2  A    between atoms: C_2  and  C_3
REMARK    3  A    between atoms: C_2  and  N_4
REMARK    4  A    between atoms: C_8  and  C_9
REMARK    5  A    between atoms: C_19  and  C_20
REMARK                            x       y       z     vdW  Elec       q    Type
REMARK                         _______ _______ _______ _____ _____    ______ ____
ROOT
ATOM      1  N   UNL     1       1.833  14.159  19.027  0.00  0.00    +0.000 N 
ATOM      2  N   UNL     1       2.759  13.671  18.172  0.00  0.00    +0.000 NA
ATOM      3  C   UNL     1       2.492  12.363  18.127  0.00  0.00    +0.000 A 
ATOM      4  C   UNL     1       1.384  12.004  18.920  0.00  0.00    +0.000 A 
ATOM      5  C   UNL     1       0.668  10.844  19.245  0.00  0.00    +0.000 A 
ATOM      6  C   UNL     1      -0.422  10.959  20.111  0.00  0.00    +0.000 A 
ATOM      7  C   UNL     1      -0.747  12.215  20.621  0.00  0.00    +0.000 A 
ATOM      8  N   UNL     1      -0.087  13.365  20.322  0.00  0.00    +0.000 NA
ATOM      9  C   UNL     1       0.956  13.197  19.485  0.00  0.00    +0.000 A 
ENDROOT
BRANCH   5  10
ATOM     10  C   UNL     1       1.125   9.528  18.761  0.00  0.00    +0.000 C 
ATOM     11  O   UNL     1       0.930   9.237  17.588  0.00  0.00    +0.000 OA
ATOM     12  N   UNL     1       1.695   8.710  19.714  0.00  0.00    +0.000 N 
ATOM     13  C   UNL     1       2.153   7.419  19.433  0.00  0.00    +0.000 A 
ATOM     14  C   UNL     1       2.853   7.120  18.270  0.00  0.00    +0.000 A 
ATOM     15  C   UNL     1       3.275   5.810  18.059  0.00  0.00    +0.000 A 
ATOM     16  C   UNL     1       2.946   4.835  18.992  0.00  0.00    +0.000 A 
ATOM     17  C   UNL     1       2.251   5.227  20.124  0.00  0.00    +0.000 A 
ATOM     18  N   UNL     1       1.891   6.504  20.387  0.00  0.00    +0.000 NA
ATOM     19  H   UNL     1       1.420   8.830  20.680  0.00  0.00    +0.000 HD
ENDBRANCH   5  10
BRANCH   7  20
ATOM     20  C   UNL     1      -1.865  12.348  21.560  0.00  0.00    +0.000 A 
ATOM     21  C   UNL     1      -1.906  11.952  22.942  0.00  0.00    +0.000 A 
ATOM     22  C   UNL     1      -3.129  12.202  23.529  0.00  0.00    +0.000 A 
ATOM     23  S   UNL     1      -4.229  12.917  22.436  0.00  0.00    +0.000 S 
ATOM     24  C   UNL     1      -3.070  12.907  21.177  0.00  0.00    +0.000 A 
ENDBRANCH   7  20
BRANCH   1  26
ATOM     25  C   UNL     1       2.623  15.855  20.650  0.00  0.00    +0.000 C 
ATOM     26  C   UNL     1       1.832  15.579  19.368  0.00  0.00    +0.000 C 
ATOM     27  C   UNL     1       2.369  16.425  18.211  0.00  0.00    +0.000 C 
ENDBRANCH   1  26
TORSDOF 3
ENDMDL
MODEL 8
REMARK VINA RESULT:      -7.0      3.082      6.803
REMARK  Name = 
REMARK  5 active torsions:
REMARK  status: ('A' for Active; 'I' for Inactive)
REMARK    1  A    between atoms: C_1  and  C_2
REMARK    2  A    between atoms: C_2  and  C_3
REMARK    3  A    between atoms: C_2  and  N_4
REMARK    4  A    between atoms: C_8  and  C_9
REMARK    5  A    between atoms: C_19  and  C_20
REMARK                            x       y       z     vdW  Elec       q    Type
REMARK                         _______ _______ _______ _____ _____    ______ ____
ROOT
ATOM      1  N   UNL     1       2.400   3.606  20.052  0.00  0.00    +0.000 N 
ATOM      2  N   UNL     1       1.389   4.050  20.831  0.00  0.00    +0.000 NA
ATOM      3  C   UNL     1       1.288   5.344  20.517  0.00  0.00    +0.000 A 
ATOM      4  C   UNL     1       2.204   5.736  19.519  0.00  0.00    +0.000 A 
ATOM      5  C   UNL     1       2.543   6.900  18.817  0.00  0.00    +0.000 A 
ATOM      6  C   UNL     1       3.561   6.825  17.863  0.00  0.00    +0.000 A 
ATOM      7  C   UNL     1       4.201   5.604  17.655  0.00  0.00    +0.000 A 
ATOM      8  N   UNL     1       3.894   4.450  18.306  0.00  0.00    +0.000 NA
ATOM      9  C   UNL     1       2.907   4.579  19.215  0.00  0.00    +0.000 A 
ENDROOT
BRANCH   5  10
ATOM     10  C   UNL     1       1.906   8.186  19.156  0.00  0.00    +0.000 C 
ATOM     11  O   UNL     1       2.017   8.608  20.301  0.00  0.00    +0.000 OA
ATOM     12  N   UNL     1       1.186   8.779  18.142  0.00  0.00    +0.000 N 
ATOM     13  C   UNL     1       0.496   9.985  18.302  0.00  0.00    +0.000 A 
ATOM     14  C   UNL     1       1.034  11.057  19.004  0.00  0.00    +0.000 A 
ATOM     15  C   UNL     1       0.284  12.224  19.124  0.00  0.00    +0.000 A 
ATOM     16  C   UNL     1      -0.992  12.267  18.578  0.00  0.00    +0.000 A 
ATOM     17  C   UNL     1      -1.443  11.153  17.890  0.00  0.00    +0.000 A 
ATOM     18  N   UNL     1      -0.709  10.032  17.699  0.00  0.00    +0.000 NA
ATOM     19  H   UNL     1       0.788   8.189  17.423  0.00  0.00    +0.000 HD
ENDBRANCH   5  10
BRANCH   7  20
ATOM     20  C   UNL     1       5.296   5.516  16.685  0.00  0.00    +0.000 A 
ATOM     21  C   UNL     1       6.555   6.210  16.714  0.00  0.00    +0.000 A 
ATOM     22  C   UNL     1       7.350   5.912  15.626  0.00  0.00    +0.000 A 
ATOM     23  S   UNL     1       6.600   4.797  14.572  0.00  0.00    +0.000 S 
ATOM     24  C   UNL     1       5.215   4.698  15.573  0.00  0.00    +0.000 A 
ENDBRANCH   7  20
BRANCH   1  26
ATOM     25  C   UNL     1       2.626   1.464  18.830  0.00  0.00    +0.000 C 
ATOM     26  C   UNL     1       2.838   2.216  20.147  0.00  0.00    +0.000 C 
ATOM     27  C   UNL     1       4.301   2.128  20.587  0.00  0.00    +0.000 C 
ENDBRANCH   1  26
TORSDOF 3
ENDMDL
MODEL 9
REMARK VINA RESULT:      -6.9      5.977     10.967
REMARK  Name = 
REMARK  5 active torsions:
REMARK  status: ('A' for Active; 'I' for Inactive)
REMARK    1  A    between atoms: C_1  and  C_2
REMARK    2  A    between atoms: C_2  and  C_3
REMARK    3  A    between atoms: C_2  and  N_4
REMARK    4  A    between atoms: C_8  and  C_9
REMARK    5  A    between atoms: C_19  and  C_20
REMARK                            x       y       z     vdW  Elec       q    Type
REMARK                         _______ _______ _______ _____ _____    ______ ____
ROOT
ATOM      1  N   UNL     1       1.646  14.253  18.791  0.00  0.00    +0.000 N 
ATOM      2  N   UNL     1       0.775  15.262  19.015  0.00  0.00    +0.000 NA
ATOM      3  C   UNL     1      -0.364  14.636  19.324  0.00  0.00    +0.000 A 
ATOM      4  C   UNL     1      -0.231  13.233  19.333  0.00  0.00    +0.000 A 
ATOM      5  C   UNL     1      -1.037  12.113  19.579  0.00  0.00    +0.000 A 
ATOM      6  C   UNL     1      -0.458  10.845  19.474  0.00  0.00    +0.000 A 
ATOM      7  C   UNL     1       0.888  10.746  19.122  0.00  0.00    +0.000 A 
ATOM      8  N   UNL     1       1.705  11.807  18.888  0.00  0.00    +0.000 NA
ATOM      9  C   UNL     1       1.096  13.005  19.001  0.00  0.00    +0.000 A 
ENDROOT
BRANCH   5  10
ATOM     10  C   UNL     1      -2.479  12.275  19.839  0.00  0.00    +0.000 C 
ATOM     11  O   UNL     1      -2.837  12.574  20.972  0.00  0.00    +0.000 OA
ATOM     12  N   UNL     1      -3.309  12.018  18.769  0.00  0.00    +0.000 N 
ATOM     13  C   UNL     1      -4.703  12.094  18.851  0.00  0.00    +0.000 A 
ATOM     14  C   UNL     1      -5.347  13.116  19.539  0.00  0.00    +0.000 A 
ATOM     15  C   UNL     1      -6.739  13.122  19.579  0.00  0.00    +0.000 A 
ATOM     16  C   UNL     1      -7.438  12.088  18.969  0.00  0.00    +0.000 A 
ATOM     17  C   UNL     1      -6.712  11.117  18.302  0.00  0.00    +0.000 A 
ATOM     18  N   UNL     1      -5.363  11.124  18.188  0.00  0.00    +0.000 NA
ATOM     19  H   UNL     1      -2.990  11.377  18.054  0.00  0.00    +0.000 HD
ENDBRANCH   5  10
BRANCH   7  20
ATOM     20  C   UNL     1       1.502   9.424  18.972  0.00  0.00    +0.000 A 
ATOM     21  C   UNL     1       2.122   8.871  17.798  0.00  0.00    +0.000 A 
ATOM     22  C   UNL     1       2.579   7.584  17.996  0.00  0.00    +0.000 A 
ATOM     23  S   UNL     1       2.277   7.036  19.585  0.00  0.00    +0.000 S 
ATOM     24  C   UNL     1       1.546   8.522  20.018  0.00  0.00    +0.000 A 
ENDBRANCH   7  20
BRANCH   1  26
ATOM     25  C   UNL     1       3.084  15.795  17.493  0.00  0.00    +0.000 C 
ATOM     26  C   UNL     1       3.016  14.550  18.380  0.00  0.00    +0.000 C 
ATOM     27  C   UNL     1       3.935  14.702  19.594  0.00  0.00    +0.000 C 
ENDBRANCH   1  26
TORSDOF 3
ENDMDL
