MODEL 1
REMARK VINA RESULT:      -7.1      0.000      0.000
REMARK  Name = 
REMARK  16 active torsions:
REMARK  status: ('A' for Active; 'I' for Inactive)
REMARK    1  A    between atoms: C_1  and  C_2
REMARK    2  A    between atoms: C_2  and  O_4
REMARK    3  A    between atoms: O_4  and  C_5
REMARK    4  A    between atoms: C_8  and  C_9
REMARK    5  A    between atoms: C_10  and  C_11
REMARK    6  A    between atoms: C_11  and  O_13
REMARK    7  A    between atoms: O_13  and  C_14
REMARK    8  A    between atoms: C_14  and  C_15
REMARK    9  A    between atoms: C_15  and  C_16
REMARK   10  A    between atoms: N_20  and  C_21
REMARK   11  A    between atoms: C_21  and  C_22
REMARK   12  A    between atoms: C_22  and  C_23
REMARK   13  A    between atoms: C_23  and  O_24
REMARK   14  A    between atoms: C_26  and  O_27
REMARK   15  A    between atoms: O_27  and  C_28
REMARK   16  A    between atoms: C_28  and  C_29
REMARK                            x       y       z     vdW  Elec       q    Type
REMARK                         _______ _______ _______ _____ _____    ______ ____
ROOT
ATOM      1  C   UNL     1       7.861   9.212  17.796  0.00  0.00    +0.000 C 
ATOM      2  C   UNL     1       8.016   7.893  17.965  0.00  0.00    +0.000 C 
ENDROOT
BRANCH   1   6
ATOM      3  C   UNL     1      10.201  12.248  19.742  0.00  0.00    +0.000 A 
ATOM      4  C   UNL     1       9.938  11.011  20.346  0.00  0.00    +0.000 A 
ATOM      5  C   UNL     1       9.188  10.037  19.688  0.00  0.00    +0.000 A 
ATOM      6  C   UNL     1       8.701  10.257  18.397  0.00  0.00    +0.000 A 
ATOM      7  C   UNL     1       8.989  11.483  17.784  0.00  0.00    +0.000 A 
ATOM      8  C   UNL     1       9.744  12.467  18.446  0.00  0.00    +0.000 A 
BRANCH   3   9
ATOM      9  O   UNL     1      11.037  13.154  20.407  0.00  0.00    +0.000 OA
BRANCH   9  11
ATOM     10  C   UNL     1      10.965  15.481  20.809  0.00  0.00    +0.000 C 
ATOM     11  C   UNL     1      10.434  14.132  21.199  0.00  0.00    +0.000 C 
ATOM     12  O   UNL     1       9.670  13.947  22.141  0.00  0.00    +0.000 OA
ENDBRANCH   9  11
ENDBRANCH   3   9
BRANCH   8  13
ATOM     13  O   UNL     1       9.968  13.601  17.613  0.00  0.00    +0.000 OA
BRANCH  13  14
ATOM     14  C   UNL     1      11.086  14.331  17.206  0.00  0.00    +0.000 C 
ATOM     15  C   UNL     1      12.134  13.354  16.737  0.00  0.00    +0.000 C 
ATOM     16  O   UNL     1      11.232  15.544  17.255  0.00  0.00    +0.000 OA
ENDBRANCH  13  14
ENDBRANCH   8  13
ENDBRANCH   1   6
BRANCH   2  17
ATOM     17  C   UNL     1       7.254   6.969  17.101  0.00  0.00    +0.000 C 
ATOM     18  O   UNL     1       7.729   6.170  16.313  0.00  0.00    +0.000 OA
BRANCH  17  19
ATOM     19  O   UNL     1       5.971   7.018  17.527  0.00  0.00    +0.000 OA
BRANCH  19  20
ATOM     20  C   UNL     1       5.471   5.777  18.037  0.00  0.00    +0.000 C 
BRANCH  20  21
ATOM     21  C   UNL     1       3.979   5.670  17.687  0.00  0.00    +0.000 C 
BRANCH  21  22
ATOM     22  C   UNL     1       3.089   6.512  18.547  0.00  0.00    +0.000 A 
ATOM     23  C   UNL     1       2.621   7.796  18.347  0.00  0.00    +0.000 A 
ATOM     24  N   UNL     1       1.814   8.167  19.378  0.00  0.00    +0.000 NA
ATOM     25  N   UNL     1       1.764   7.161  20.235  0.00  0.00    +0.000 NA
ATOM     26  N   UNL     1       2.545   6.173  19.760  0.00  0.00    +0.000 N 
BRANCH  26  27
ATOM     27  C   UNL     1       2.668   4.965  20.543  0.00  0.00    +0.000 C 
BRANCH  27  28
ATOM     28  C   UNL     1       1.593   3.923  20.261  0.00  0.00    +0.000 C 
BRANCH  28  29
ATOM     29  C   UNL     1       1.407   2.911  21.386  0.00  0.00    +0.000 C 
BRANCH  29  30
ATOM     30  O   UNL     1       2.660   2.704  22.028  0.00  0.00    +0.000 OA
ATOM     31  H   UNL     1       2.767   1.749  22.177  0.00  0.00    +0.000 HD
ENDBRANCH  29  30
ENDBRANCH  28  29
ENDBRANCH  27  28
ENDBRANCH  26  27
ENDBRANCH  21  22
ENDBRANCH  20  21
ENDBRANCH  19  20
ENDBRANCH  17  19
ENDBRANCH   2  17
TORSDOF 14
ENDMDL
MODEL 2
REMARK VINA RESULT:      -7.0      6.877      9.173
REMARK  Name = 
REMARK  16 active torsions:
REMARK  status: ('A' for Active; 'I' for Inactive)
REMARK    1  A    between atoms: C_1  and  C_2
REMARK    2  A    between atoms: C_2  and  O_4
REMARK    3  A    between atoms: O_4  and  C_5
REMARK    4  A    between atoms: C_8  and  C_9
REMARK    5  A    between atoms: C_10  and  C_11
REMARK    6  A    between atoms: C_11  and  O_13
REMARK    7  A    between atoms: O_13  and  C_14
REMARK    8  A    between atoms: C_14  and  C_15
REMARK    9  A    between atoms: C_15  and  C_16
REMARK   10  A    between atoms: N_20  and  C_21
REMARK   11  A    between atoms: C_21  and  C_22
REMARK   12  A    between atoms: C_22  and  C_23
REMARK   13  A    between atoms: C_23  and  O_24
REMARK   14  A    between atoms: C_26  and  O_27
REMARK   15  A    between atoms: O_27  and  C_28
REMARK   16  A    between atoms: C_28  and  C_29
REMARK                            x       y       z     vdW  Elec       q    Type
REMARK                         _______ _______ _______ _____ _____    ______ ____
ROOT
ATOM      1  C   UNL     1       2.728   7.350  18.775  0.00  0.00    +0.000 C 
ATOM      2  C   UNL     1       2.907   6.253  19.522  0.00  0.00    +0.000 C 
ENDROOT
BRANCH   1   6
ATOM      3  C   UNL     1       0.199  10.723  19.618  0.00  0.00    +0.000 A 
ATOM      4  C   UNL     1       0.933  10.622  18.427  0.00  0.00    +0.000 A 
ATOM      5  C   UNL     1       1.736   9.512  18.172  0.00  0.00    +0.000 A 
ATOM      6  C   UNL     1       1.809   8.455  19.082  0.00  0.00    +0.000 A 
ATOM      7  C   UNL     1       1.053   8.543  20.257  0.00  0.00    +0.000 A 
ATOM      8  C   UNL     1       0.243   9.663  20.518  0.00  0.00    +0.000 A 
BRANCH   3   9
ATOM      9  O   UNL     1      -0.663  11.814  19.783  0.00  0.00    +0.000 OA
BRANCH   9  11
ATOM     10  C   UNL     1      -2.306  11.630  18.095  0.00  0.00    +0.000 C 
ATOM     11  C   UNL     1      -1.156  12.431  18.633  0.00  0.00    +0.000 C 
ATOM     12  O   UNL     1      -0.682  13.410  18.064  0.00  0.00    +0.000 OA
ENDBRANCH   9  11
ENDBRANCH   3   9
BRANCH   8  13
ATOM     13  O   UNL     1      -0.482   9.511  21.735  0.00  0.00    +0.000 OA
BRANCH  13  14
ATOM     14  C   UNL     1      -0.384  10.039  23.024  0.00  0.00    +0.000 C 
ATOM     15  C   UNL     1      -1.335  11.204  23.123  0.00  0.00    +0.000 C 
ATOM     16  O   UNL     1       0.366   9.670  23.916  0.00  0.00    +0.000 OA
ENDBRANCH  13  14
ENDBRANCH   8  13
ENDBRANCH   1   6
BRANCH   2  17
ATOM     17  C   UNL     1       4.040   5.357  19.214  0.00  0.00    +0.000 C 
ATOM     18  O   UNL     1       5.101   5.313  19.814  0.00  0.00    +0.000 OA
BRANCH  17  19
ATOM     19  O   UNL     1       3.583   4.458  18.315  0.00  0.00    +0.000 OA
BRANCH  19  20
ATOM     20  C   UNL     1       4.563   3.506  17.881  0.00  0.00    +0.000 C 
BRANCH  20  21
ATOM     21  C   UNL     1       4.718   3.625  16.357  0.00  0.00    +0.000 C 
BRANCH  21  22
ATOM     22  C   UNL     1       5.861   4.490  15.926  0.00  0.00    +0.000 A 
ATOM     23  C   UNL     1       6.454   5.559  16.571  0.00  0.00    +0.000 A 
ATOM     24  N   UNL     1       7.484   6.043  15.824  0.00  0.00    +0.000 NA
ATOM     25  N   UNL     1       7.556   5.323  14.717  0.00  0.00    +0.000 NA
ATOM     26  N   UNL     1       6.571   4.405  14.756  0.00  0.00    +0.000 N 
BRANCH  26  27
ATOM     27  C   UNL     1       6.433   3.506  13.633  0.00  0.00    +0.000 C 
BRANCH  27  28
ATOM     28  C   UNL     1       5.540   4.030  12.516  0.00  0.00    +0.000 C 
BRANCH  28  29
ATOM     29  C   UNL     1       4.861   2.931  11.706  0.00  0.00    +0.000 C 
BRANCH  29  30
ATOM     30  O   UNL     1       5.751   1.826  11.593  0.00  0.00    +0.000 OA
ATOM     31  H   UNL     1       5.683   1.301  12.408  0.00  0.00    +0.000 HD
ENDBRANCH  29  30
ENDBRANCH  28  29
ENDBRANCH  27  28
ENDBRANCH  26  27
ENDBRANCH  21  22
ENDBRANCH  20  21
ENDBRANCH  19  20
ENDBRANCH  17  19
ENDBRANCH   2  17
TORSDOF 14
ENDMDL
MODEL 3
REMARK VINA RESULT:      -6.8      5.863      7.932
REMARK  Name = 
REMARK  16 active torsions:
REMARK  status: ('A' for Active; 'I' for Inactive)
REMARK    1  A    between atoms: C_1  and  C_2
REMARK    2  A    between atoms: C_2  and  O_4
REMARK    3  A    between atoms: O_4  and  C_5
REMARK    4  A    between atoms: C_8  and  C_9
REMARK    5  A    between atoms: C_10  and  C_11
REMARK    6  A    between atoms: C_11  and  O_13
REMARK    7  A    between atoms: O_13  and  C_14
REMARK    8  A    between atoms: C_14  and  C_15
REMARK    9  A    between atoms: C_15  and  C_16
REMARK   10  A    between atoms: N_20  and  C_21
REMARK   11  A    between atoms: C_21  and  C_22
REMARK   12  A    between atoms: C_22  and  C_23
REMARK   13  A    between atoms: C_23  and  O_24
REMARK   14  A    between atoms: C_26  and  O_27
REMARK   15  A    between atoms: O_27  and  C_28
REMARK   16  A    between atoms: C_28  and  C_29
REMARK                            x       y       z     vdW  Elec       q    Type
REMARK                         _______ _______ _______ _____ _____    ______ ____
ROOT
ATOM      1  C   UNL     1       3.329   7.949  17.605  0.00  0.00    +0.000 C 
ATOM      2  C   UNL     1       4.393   7.148  17.752  0.00  0.00    +0.000 C 
ENDROOT
BRANCH   1   6
ATOM      3  C   UNL     1       0.402   8.698  20.663  0.00  0.00    +0.000 A 
ATOM      4  C   UNL     1       1.262   7.592  20.712  0.00  0.00    +0.000 A 
ATOM      5  C   UNL     1       2.212   7.378  19.715  0.00  0.00    +0.000 A 
ATOM      6  C   UNL     1       2.353   8.276  18.653  0.00  0.00    +0.000 A 
ATOM      7  C   UNL     1       1.513   9.396  18.622  0.00  0.00    +0.000 A 
ATOM      8  C   UNL     1       0.552   9.613  19.625  0.00  0.00    +0.000 A 
BRANCH   3   9
ATOM      9  O   UNL     1      -0.471   8.916  21.737  0.00  0.00    +0.000 OA
BRANCH   9  11
ATOM     10  C   UNL     1      -1.111  10.724  23.117  0.00  0.00    +0.000 C 
ATOM     11  C   UNL     1      -0.030   9.741  22.772  0.00  0.00    +0.000 C 
ATOM     12  O   UNL     1       1.091   9.760  23.270  0.00  0.00    +0.000 OA
ENDBRANCH   9  11
ENDBRANCH   3   9
BRANCH   8  13
ATOM     13  O   UNL     1      -0.143  10.840  19.426  0.00  0.00    +0.000 OA
BRANCH  13  14
ATOM     14  C   UNL     1      -1.480  11.213  19.278  0.00  0.00    +0.000 C 
ATOM     15  C   UNL     1      -2.061  10.420  18.135  0.00  0.00    +0.000 C 
ATOM     16  O   UNL     1      -2.083  12.062  19.918  0.00  0.00    +0.000 OA
ENDBRANCH  13  14
ENDBRANCH   8  13
ENDBRANCH   1   6
BRANCH   2  17
ATOM     17  C   UNL     1       5.414   7.115  16.685  0.00  0.00    +0.000 C 
ATOM     18  O   UNL     1       6.565   7.504  16.784  0.00  0.00    +0.000 OA
BRANCH  17  19
ATOM     19  O   UNL     1       4.897   6.367  15.685  0.00  0.00    +0.000 OA
BRANCH  19  20
ATOM     20  C   UNL     1       5.530   5.094  15.512  0.00  0.00    +0.000 C 
BRANCH  20  21
ATOM     21  C   UNL     1       4.579   4.002  16.025  0.00  0.00    +0.000 C 
BRANCH  21  22
ATOM     22  C   UNL     1       4.716   3.713  17.488  0.00  0.00    +0.000 A 
ATOM     23  C   UNL     1       5.739   4.029  18.361  0.00  0.00    +0.000 A 
ATOM     24  N   UNL     1       5.437   3.594  19.615  0.00  0.00    +0.000 NA
ATOM     25  N   UNL     1       4.257   2.998  19.563  0.00  0.00    +0.000 NA
ATOM     26  N   UNL     1       3.827   3.041  18.287  0.00  0.00    +0.000 N 
BRANCH  26  27
ATOM     27  C   UNL     1       2.556   2.428  17.976  0.00  0.00    +0.000 C 
BRANCH  27  28
ATOM     28  C   UNL     1       1.347   3.305  18.276  0.00  0.00    +0.000 C 
BRANCH  28  29
ATOM     29  C   UNL     1       0.665   2.980  19.600  0.00  0.00    +0.000 C 
BRANCH  29  30
ATOM     30  O   UNL     1       1.577   2.260  20.422  0.00  0.00    +0.000 OA
ATOM     31  H   UNL     1       2.322   2.848  20.631  0.00  0.00    +0.000 HD
ENDBRANCH  29  30
ENDBRANCH  28  29
ENDBRANCH  27  28
ENDBRANCH  26  27
ENDBRANCH  21  22
ENDBRANCH  20  21
ENDBRANCH  19  20
ENDBRANCH  17  19
ENDBRANCH   2  17
TORSDOF 14
ENDMDL
MODEL 4
REMARK VINA RESULT:      -6.8      4.513      8.449
REMARK  Name = 
REMARK  16 active torsions:
REMARK  status: ('A' for Active; 'I' for Inactive)
REMARK    1  A    between atoms: C_1  and  C_2
REMARK    2  A    between atoms: C_2  and  O_4
REMARK    3  A    between atoms: O_4  and  C_5
REMARK    4  A    between atoms: C_8  and  C_9
REMARK    5  A    between atoms: C_10  and  C_11
REMARK    6  A    between atoms: C_11  and  O_13
REMARK    7  A    between atoms: O_13  and  C_14
REMARK    8  A    between atoms: C_14  and  C_15
REMARK    9  A    between atoms: C_15  and  C_16
REMARK   10  A    between atoms: N_20  and  C_21
REMARK   11  A    between atoms: C_21  and  C_22
REMARK   12  A    between atoms: C_22  and  C_23
REMARK   13  A    between atoms: C_23  and  O_24
REMARK   14  A    between atoms: C_26  and  O_27
REMARK   15  A    between atoms: O_27  and  C_28
REMARK   16  A    between atoms: C_28  and  C_29
REMARK                            x       y       z     vdW  Elec       q    Type
REMARK                         _______ _______ _______ _____ _____    ______ ____
ROOT
ATOM      1  C   UNL     1       2.540   6.135  19.981  0.00  0.00    +0.000 C 
ATOM      2  C   UNL     1       3.617   5.580  19.411  0.00  0.00    +0.000 C 
ENDROOT
BRANCH   1   6
ATOM      3  C   UNL     1       1.151  10.077  18.975  0.00  0.00    +0.000 A 
ATOM      4  C   UNL     1       1.669   9.203  18.009  0.00  0.00    +0.000 A 
ATOM      5  C   UNL     1       2.100   7.924  18.359  0.00  0.00    +0.000 A 
ATOM      6  C   UNL     1       2.002   7.468  19.676  0.00  0.00    +0.000 A 
ATOM      7  C   UNL     1       1.458   8.333  20.634  0.00  0.00    +0.000 A 
ATOM      8  C   UNL     1       1.023   9.624  20.284  0.00  0.00    +0.000 A 
BRANCH   3   9
ATOM      9  O   UNL     1       0.646  11.315  18.556  0.00  0.00    +0.000 OA
BRANCH   9  11
ATOM     10  C   UNL     1       2.572  12.609  18.110  0.00  0.00    +0.000 C 
ATOM     11  C   UNL     1       1.336  12.463  18.949  0.00  0.00    +0.000 C 
ATOM     12  O   UNL     1       1.063  13.197  19.893  0.00  0.00    +0.000 OA
ENDBRANCH   9  11
ENDBRANCH   3   9
BRANCH   8  13
ATOM     13  O   UNL     1       0.449  10.301  21.398  0.00  0.00    +0.000 OA
BRANCH  13  14
ATOM     14  C   UNL     1       0.227   9.994  22.742  0.00  0.00    +0.000 C 
ATOM     15  C   UNL     1      -1.176  10.421  23.091  0.00  0.00    +0.000 C 
ATOM     16  O   UNL     1       1.026   9.506  23.528  0.00  0.00    +0.000 OA
ENDBRANCH  13  14
ENDBRANCH   8  13
ENDBRANCH   1   6
BRANCH   2  17
ATOM     17  C   UNL     1       3.885   4.145  19.639  0.00  0.00    +0.000 C 
ATOM     18  O   UNL     1       3.219   3.394  20.331  0.00  0.00    +0.000 OA
BRANCH  17  19
ATOM     19  O   UNL     1       4.847   3.791  18.758  0.00  0.00    +0.000 OA
BRANCH  19  20
ATOM     20  C   UNL     1       4.356   3.429  17.462  0.00  0.00    +0.000 C 
BRANCH  20  21
ATOM     21  C   UNL     1       4.353   4.682  16.572  0.00  0.00    +0.000 C 
BRANCH  21  22
ATOM     22  C   UNL     1       5.573   4.824  15.717  0.00  0.00    +0.000 A 
ATOM     23  C   UNL     1       5.789   4.432  14.409  0.00  0.00    +0.000 A 
ATOM     24  N   UNL     1       7.044   4.782  14.016  0.00  0.00    +0.000 NA
ATOM     25  N   UNL     1       7.639   5.373  15.039  0.00  0.00    +0.000 NA
ATOM     26  N   UNL     1       6.775   5.381  16.072  0.00  0.00    +0.000 N 
BRANCH  26  27
ATOM     27  C   UNL     1       7.212   5.962  17.321  0.00  0.00    +0.000 C 
BRANCH  27  28
ATOM     28  C   UNL     1       7.501   7.456  17.249  0.00  0.00    +0.000 C 
BRANCH  28  29
ATOM     29  C   UNL     1       8.312   7.982  18.428  0.00  0.00    +0.000 C 
BRANCH  29  30
ATOM     30  O   UNL     1       8.514   9.381  18.258  0.00  0.00    +0.000 OA
ATOM     31  H   UNL     1       7.823   9.716  17.663  0.00  0.00    +0.000 HD
ENDBRANCH  29  30
ENDBRANCH  28  29
ENDBRANCH  27  28
ENDBRANCH  26  27
ENDBRANCH  21  22
ENDBRANCH  20  21
ENDBRANCH  19  20
ENDBRANCH  17  19
ENDBRANCH   2  17
TORSDOF 14
ENDMDL
MODEL 5
REMARK VINA RESULT:      -6.7      6.326      9.616
REMARK  Name = 
REMARK  16 active torsions:
REMARK  status: ('A' for Active; 'I' for Inactive)
REMARK    1  A    between atoms: C_1  and  C_2
REMARK    2  A    between atoms: C_2  and  O_4
REMARK    3  A    between atoms: O_4  and  C_5
REMARK    4  A    between atoms: C_8  and  C_9
REMARK    5  A    between atoms: C_10  and  C_11
REMARK    6  A    between atoms: C_11  and  O_13
REMARK    7  A    between atoms: O_13  and  C_14
REMARK    8  A    between atoms: C_14  and  C_15
REMARK    9  A    between atoms: C_15  and  C_16
REMARK   10  A    between atoms: N_20  and  C_21
REMARK   11  A    between atoms: C_21  and  C_22
REMARK   12  A    between atoms: C_22  and  C_23
REMARK   13  A    between atoms: C_23  and  O_24
REMARK   14  A    between atoms: C_26  and  O_27
REMARK   15  A    between atoms: O_27  and  C_28
REMARK   16  A    between atoms: C_28  and  C_29
REMARK                            x       y       z     vdW  Elec       q    Type
REMARK                         _______ _______ _______ _____ _____    ______ ____
ROOT
ATOM      1  C   UNL     1       1.999   8.059  18.525  0.00  0.00    +0.000 C 
ATOM      2  C   UNL     1       1.392   8.809  17.596  0.00  0.00    +0.000 C 
ENDROOT
BRANCH   1   6
ATOM      3  C   UNL     1       5.084   5.222  17.570  0.00  0.00    +0.000 A 
ATOM      4  C   UNL     1       5.140   6.555  17.138  0.00  0.00    +0.000 A 
ATOM      5  C   UNL     1       4.133   7.459  17.472  0.00  0.00    +0.000 A 
ATOM      6  C   UNL     1       3.055   7.069  18.271  0.00  0.00    +0.000 A 
ATOM      7  C   UNL     1       3.016   5.746  18.726  0.00  0.00    +0.000 A 
ATOM      8  C   UNL     1       4.029   4.831  18.388  0.00  0.00    +0.000 A 
BRANCH   3   9
ATOM      9  O   UNL     1       6.167   4.380  17.284  0.00  0.00    +0.000 OA
BRANCH   9  11
ATOM     10  C   UNL     1       5.616   3.852  15.048  0.00  0.00    +0.000 C 
ATOM     11  C   UNL     1       6.665   4.384  15.981  0.00  0.00    +0.000 C 
ATOM     12  O   UNL     1       7.806   4.668  15.631  0.00  0.00    +0.000 OA
ENDBRANCH   9  11
ENDBRANCH   3   9
BRANCH   8  13
ATOM     13  O   UNL     1       3.819   3.567  19.010  0.00  0.00    +0.000 OA
BRANCH  13  14
ATOM     14  C   UNL     1       2.742   2.688  19.137  0.00  0.00    +0.000 C 
ATOM     15  C   UNL     1       2.469   2.087  17.781  0.00  0.00    +0.000 C 
ATOM     16  O   UNL     1       2.090   2.463  20.146  0.00  0.00    +0.000 OA
ENDBRANCH  13  14
ENDBRANCH   8  13
ENDBRANCH   1   6
BRANCH   2  17
ATOM     17  C   UNL     1       0.534   9.929  18.031  0.00  0.00    +0.000 C 
ATOM     18  O   UNL     1      -0.679   9.986  17.923  0.00  0.00    +0.000 OA
BRANCH  17  19
ATOM     19  O   UNL     1       1.317  10.745  18.772  0.00  0.00    +0.000 OA
BRANCH  19  20
ATOM     20  C   UNL     1       0.648  11.906  19.279  0.00  0.00    +0.000 C 
BRANCH  20  21
ATOM     21  C   UNL     1       1.045  12.095  20.751  0.00  0.00    +0.000 C 
BRANCH  21  22
ATOM     22  C   UNL     1       0.311  11.200  21.700  0.00  0.00    +0.000 A 
ATOM     23  C   UNL     1       0.409   9.834  21.885  0.00  0.00    +0.000 A 
ATOM     24  N   UNL     1      -0.431   9.433  22.878  0.00  0.00    +0.000 NA
ATOM     25  N   UNL     1      -1.071  10.502  23.323  0.00  0.00    +0.000 NA
ATOM     26  N   UNL     1      -0.652  11.563  22.606  0.00  0.00    +0.000 N 
BRANCH  26  27
ATOM     27  C   UNL     1      -1.232  12.854  22.899  0.00  0.00    +0.000 C 
BRANCH  27  28
ATOM     28  C   UNL     1      -2.660  13.029  22.398  0.00  0.00    +0.000 C 
BRANCH  28  29
ATOM     29  C   UNL     1      -3.697  13.105  23.512  0.00  0.00    +0.000 C 
BRANCH  29  30
ATOM     30  O   UNL     1      -3.802  11.827  24.130  0.00  0.00    +0.000 OA
ATOM     31  H   UNL     1      -2.903  11.478  24.254  0.00  0.00    +0.000 HD
ENDBRANCH  29  30
ENDBRANCH  28  29
ENDBRANCH  27  28
ENDBRANCH  26  27
ENDBRANCH  21  22
ENDBRANCH  20  21
ENDBRANCH  19  20
ENDBRANCH  17  19
ENDBRANCH   2  17
TORSDOF 14
ENDMDL
MODEL 6
REMARK VINA RESULT:      -6.7      6.581      9.777
REMARK  Name = 
REMARK  16 active torsions:
REMARK  status: ('A' for Active; 'I' for Inactive)
REMARK    1  A    between atoms: C_1  and  C_2
REMARK    2  A    between atoms: C_2  and  O_4
REMARK    3  A    between atoms: O_4  and  C_5
REMARK    4  A    between atoms: C_8  and  C_9
REMARK    5  A    between atoms: C_10  and  C_11
REMARK    6  A    between atoms: C_11  and  O_13
REMARK    7  A    between atoms: O_13  and  C_14
REMARK    8  A    between atoms: C_14  and  C_15
REMARK    9  A    between atoms: C_15  and  C_16
REMARK   10  A    between atoms: N_20  and  C_21
REMARK   11  A    between atoms: C_21  and  C_22
REMARK   12  A    between atoms: C_22  and  C_23
REMARK   13  A    between atoms: C_23  and  O_24
REMARK   14  A    between atoms: C_26  and  O_27
REMARK   15  A    between atoms: O_27  and  C_28
REMARK   16  A    between atoms: C_28  and  C_29
REMARK                            x       y       z     vdW  Elec       q    Type
REMARK                         _______ _______ _______ _____ _____    ______ ____
ROOT
ATOM      1  C   UNL     1       1.050   7.931  21.518  0.00  0.00    +0.000 C 
ATOM      2  C   UNL     1       0.786   9.244  21.476  0.00  0.00    +0.000 C 
ENDROOT
BRANCH   1   6
ATOM      3  C   UNL     1       2.896   5.773  18.291  0.00  0.00    +0.000 A 
ATOM      4  C   UNL     1       2.705   7.161  18.244  0.00  0.00    +0.000 A 
ATOM      5  C   UNL     1       2.116   7.840  19.309  0.00  0.00    +0.000 A 
ATOM      6  C   UNL     1       1.725   7.159  20.466  0.00  0.00    +0.000 A 
ATOM      7  C   UNL     1       1.943   5.777  20.522  0.00  0.00    +0.000 A 
ATOM      8  C   UNL     1       2.536   5.090  19.448  0.00  0.00    +0.000 A 
BRANCH   3   9
ATOM      9  O   UNL     1       3.576   5.154  17.234  0.00  0.00    +0.000 OA
BRANCH   9  11
ATOM     10  C   UNL     1       5.221   6.158  15.867  0.00  0.00    +0.000 C 
ATOM     11  C   UNL     1       4.948   5.383  17.124  0.00  0.00    +0.000 C 
ATOM     12  O   UNL     1       5.827   4.944  17.858  0.00  0.00    +0.000 OA
ENDBRANCH   9  11
ENDBRANCH   3   9
BRANCH   8  13
ATOM     13  O   UNL     1       2.718   3.709  19.749  0.00  0.00    +0.000 OA
BRANCH  13  14
ATOM     14  C   UNL     1       3.709   2.759  19.497  0.00  0.00    +0.000 C 
ATOM     15  C   UNL     1       3.189   1.812  18.445  0.00  0.00    +0.000 C 
ATOM     16  O   UNL     1       4.795   2.663  20.050  0.00  0.00    +0.000 OA
ENDBRANCH  13  14
ENDBRANCH   8  13
ENDBRANCH   1   6
BRANCH   2  17
ATOM     17  C   UNL     1       0.330   9.919  22.707  0.00  0.00    +0.000 C 
ATOM     18  O   UNL     1       0.325   9.439  23.827  0.00  0.00    +0.000 OA
BRANCH  17  19
ATOM     19  O   UNL     1       0.153  11.221  22.386  0.00  0.00    +0.000 OA
BRANCH  19  20
ATOM     20  C   UNL     1      -1.107  11.511  21.769  0.00  0.00    +0.000 C 
BRANCH  20  21
ATOM     21  C   UNL     1      -0.917  12.684  20.796  0.00  0.00    +0.000 C 
BRANCH  21  22
ATOM     22  C   UNL     1       0.271  12.543  19.896  0.00  0.00    +0.000 A 
ATOM     23  C   UNL     1       1.436  13.283  19.845  0.00  0.00    +0.000 A 
ATOM     24  N   UNL     1       2.264  12.789  18.883  0.00  0.00    +0.000 NA
ATOM     25  N   UNL     1       1.654  11.764  18.312  0.00  0.00    +0.000 NA
ATOM     26  N   UNL     1       0.447  11.623  18.894  0.00  0.00    +0.000 N 
BRANCH  26  27
ATOM     27  C   UNL     1      -0.420  10.570  18.418  0.00  0.00    +0.000 C 
BRANCH  27  28
ATOM     28  C   UNL     1      -1.747  11.058  17.852  0.00  0.00    +0.000 C 
BRANCH  28  29
ATOM     29  C   UNL     1      -2.201  10.301  16.609  0.00  0.00    +0.000 C 
BRANCH  29  30
ATOM     30  O   UNL     1      -2.538  11.242  15.596  0.00  0.00    +0.000 OA
ATOM     31  H   UNL     1      -3.190  10.828  15.005  0.00  0.00    +0.000 HD
ENDBRANCH  29  30
ENDBRANCH  28  29
ENDBRANCH  27  28
ENDBRANCH  26  27
ENDBRANCH  21  22
ENDBRANCH  20  21
ENDBRANCH  19  20
ENDBRANCH  17  19
ENDBRANCH   2  17
TORSDOF 14
ENDMDL
MODEL 7
REMARK VINA RESULT:      -6.7      5.979      8.196
REMARK  Name = 
REMARK  16 active torsions:
REMARK  status: ('A' for Active; 'I' for Inactive)
REMARK    1  A    between atoms: C_1  and  C_2
REMARK    2  A    between atoms: C_2  and  O_4
REMARK    3  A    between atoms: O_4  and  C_5
REMARK    4  A    between atoms: C_8  and  C_9
REMARK    5  A    between atoms: C_10  and  C_11
REMARK    6  A    between atoms: C_11  and  O_13
REMARK    7  A    between atoms: O_13  and  C_14
REMARK    8  A    between atoms: C_14  and  C_15
REMARK    9  A    between atoms: C_15  and  C_16
REMARK   10  A    between atoms: N_20  and  C_21
REMARK   11  A    between atoms: C_21  and  C_22
REMARK   12  A    between atoms: C_22  and  C_23
REMARK   13  A    between atoms: C_23  and  O_24
REMARK   14  A    between atoms: C_26  and  O_27
REMARK   15  A    between atoms: O_27  and  C_28
REMARK   16  A    between atoms: C_28  and  C_29
REMARK                            x       y       z     vdW  Elec       q    Type
REMARK                         _______ _______ _______ _____ _____    ______ ____
ROOT
ATOM      1  C   UNL     1       2.525   6.866  19.629  0.00  0.00    +0.000 C 
ATOM      2  C   UNL     1       2.232   5.565  19.752  0.00  0.00    +0.000 C 
ENDROOT
BRANCH   1   6
ATOM      3  C   UNL     1      -0.190   9.984  20.806  0.00  0.00    +0.000 A 
ATOM      4  C   UNL     1      -0.091   8.778  21.514  0.00  0.00    +0.000 A 
ATOM      5  C   UNL     1       0.807   7.787  21.120  0.00  0.00    +0.000 A 
ATOM      6  C   UNL     1       1.654   7.981  20.026  0.00  0.00    +0.000 A 
ATOM      7  C   UNL     1       1.575   9.198  19.338  0.00  0.00    +0.000 A 
ATOM      8  C   UNL     1       0.669  10.198  19.732  0.00  0.00    +0.000 A 
BRANCH   3   9
ATOM      9  O   UNL     1      -1.041  10.982  21.298  0.00  0.00    +0.000 OA
BRANCH   9  11
ATOM     10  C   UNL     1      -1.059  12.907  22.669  0.00  0.00    +0.000 C 
ATOM     11  C   UNL     1      -0.833  11.424  22.606  0.00  0.00    +0.000 C 
ATOM     12  O   UNL     1      -0.427  10.756  23.551  0.00  0.00    +0.000 OA
ENDBRANCH   9  11
ENDBRANCH   3   9
BRANCH   8  13
ATOM     13  O   UNL     1       0.805  11.370  18.934  0.00  0.00    +0.000 OA
BRANCH  13  14
ATOM     14  C   UNL     1       1.436  12.606  19.082  0.00  0.00    +0.000 C 
ATOM     15  C   UNL     1       2.572  12.671  18.093  0.00  0.00    +0.000 C 
ATOM     16  O   UNL     1       1.164  13.480  19.893  0.00  0.00    +0.000 OA
ENDBRANCH  13  14
ENDBRANCH   8  13
ENDBRANCH   1   6
BRANCH   2  17
ATOM     17  C   UNL     1       3.303   4.569  19.543  0.00  0.00    +0.000 C 
ATOM     18  O   UNL     1       3.315   3.430  19.976  0.00  0.00    +0.000 OA
BRANCH  17  19
ATOM     19  O   UNL     1       4.125   5.084  18.601  0.00  0.00    +0.000 OA
BRANCH  19  20
ATOM     20  C   UNL     1       3.744   4.779  17.254  0.00  0.00    +0.000 C 
BRANCH  20  21
ATOM     21  C   UNL     1       4.676   3.680  16.720  0.00  0.00    +0.000 C 
BRANCH  21  22
ATOM     22  C   UNL     1       5.693   4.169  15.737  0.00  0.00    +0.000 A 
ATOM     23  C   UNL     1       5.599   4.323  14.367  0.00  0.00    +0.000 A 
ATOM     24  N   UNL     1       6.763   4.824  13.870  0.00  0.00    +0.000 NA
ATOM     25  N   UNL     1       7.600   4.982  14.881  0.00  0.00    +0.000 NA
ATOM     26  N   UNL     1       6.979   4.568  16.003  0.00  0.00    +0.000 N 
BRANCH  26  27
ATOM     27  C   UNL     1       7.710   4.626  17.247  0.00  0.00    +0.000 C 
BRANCH  27  28
ATOM     28  C   UNL     1       7.610   5.962  17.972  0.00  0.00    +0.000 C 
BRANCH  28  29
ATOM     29  C   UNL     1       7.836   5.864  19.476  0.00  0.00    +0.000 C 
BRANCH  29  30
ATOM     30  O   UNL     1       6.713   5.221  20.068  0.00  0.00    +0.000 OA
ATOM     31  H   UNL     1       6.114   4.942  19.355  0.00  0.00    +0.000 HD
ENDBRANCH  29  30
ENDBRANCH  28  29
ENDBRANCH  27  28
ENDBRANCH  26  27
ENDBRANCH  21  22
ENDBRANCH  20  21
ENDBRANCH  19  20
ENDBRANCH  17  19
ENDBRANCH   2  17
TORSDOF 14
ENDMDL
MODEL 8
REMARK VINA RESULT:      -6.7      1.900      3.295
REMARK  Name = 
REMARK  16 active torsions:
REMARK  status: ('A' for Active; 'I' for Inactive)
REMARK    1  A    between atoms: C_1  and  C_2
REMARK    2  A    between atoms: C_2  and  O_4
REMARK    3  A    between atoms: O_4  and  C_5
REMARK    4  A    between atoms: C_8  and  C_9
REMARK    5  A    between atoms: C_10  and  C_11
REMARK    6  A    between atoms: C_11  and  O_13
REMARK    7  A    between atoms: O_13  and  C_14
REMARK    8  A    between atoms: C_14  and  C_15
REMARK    9  A    between atoms: C_15  and  C_16
REMARK   10  A    between atoms: N_20  and  C_21
REMARK   11  A    between atoms: C_21  and  C_22
REMARK   12  A    between atoms: C_22  and  C_23
REMARK   13  A    between atoms: C_23  and  O_24
REMARK   14  A    between atoms: C_26  and  O_27
REMARK   15  A    between atoms: O_27  and  C_28
REMARK   16  A    between atoms: C_28  and  C_29
REMARK                            x       y       z     vdW  Elec       q    Type
REMARK                         _______ _______ _______ _____ _____    ______ ____
ROOT
ATOM      1  C   UNL     1       8.970   9.228  18.868  0.00  0.00    +0.000 C 
ATOM      2  C   UNL     1       8.174   9.034  17.809  0.00  0.00    +0.000 C 
ENDROOT
BRANCH   1   6
ATOM      3  C   UNL     1      10.608  12.984  20.168  0.00  0.00    +0.000 A 
ATOM      4  C   UNL     1      10.773  12.514  18.858  0.00  0.00    +0.000 A 
ATOM      5  C   UNL     1      10.221  11.299  18.457  0.00  0.00    +0.000 A 
ATOM      6  C   UNL     1       9.462  10.529  19.342  0.00  0.00    +0.000 A 
ATOM      7  C   UNL     1       9.274  11.013  20.642  0.00  0.00    +0.000 A 
ATOM      8  C   UNL     1       9.832  12.238  21.050  0.00  0.00    +0.000 A 
BRANCH   3   9
ATOM      9  O   UNL     1      11.104  14.253  20.493  0.00  0.00    +0.000 OA
BRANCH   9  11
ATOM     10  C   UNL     1      10.445  16.294  21.484  0.00  0.00    +0.000 C 
ATOM     11  C   UNL     1      10.245  15.343  20.340  0.00  0.00    +0.000 C 
ATOM     12  O   UNL     1       9.379  15.481  19.483  0.00  0.00    +0.000 OA
ENDBRANCH   9  11
ENDBRANCH   3   9
BRANCH   8  13
ATOM     13  O   UNL     1       9.460  12.562  22.386  0.00  0.00    +0.000 OA
BRANCH  13  14
ATOM     14  C   UNL     1       8.561  13.449  22.981  0.00  0.00    +0.000 C 
ATOM     15  C   UNL     1       7.430  13.685  22.012  0.00  0.00    +0.000 C 
ATOM     16  O   UNL     1       8.671  13.987  24.073  0.00  0.00    +0.000 OA
ENDBRANCH  13  14
ENDBRANCH   8  13
ENDBRANCH   1   6
BRANCH   2  17
ATOM     17  C   UNL     1       7.565   7.703  17.608  0.00  0.00    +0.000 C 
ATOM     18  O   UNL     1       6.950   7.339  16.621  0.00  0.00    +0.000 OA
BRANCH  17  19
ATOM     19  O   UNL     1       8.023   6.919  18.609  0.00  0.00    +0.000 OA
BRANCH  19  20
ATOM     20  C   UNL     1       7.590   5.555  18.536  0.00  0.00    +0.000 C 
BRANCH  20  21
ATOM     21  C   UNL     1       6.215   5.441  19.211  0.00  0.00    +0.000 C 
BRANCH  21  22
ATOM     22  C   UNL     1       5.172   4.784  18.361  0.00  0.00    +0.000 A 
ATOM     23  C   UNL     1       5.258   4.299  17.070  0.00  0.00    +0.000 A 
ATOM     24  N   UNL     1       4.068   3.756  16.693  0.00  0.00    +0.000 NA
ATOM     25  N   UNL     1       3.224   3.891  17.701  0.00  0.00    +0.000 NA
ATOM     26  N   UNL     1       3.867   4.530  18.698  0.00  0.00    +0.000 N 
BRANCH  26  27
ATOM     27  C   UNL     1       3.134   4.813  19.910  0.00  0.00    +0.000 C 
BRANCH  27  28
ATOM     28  C   UNL     1       2.979   3.618  20.843  0.00  0.00    +0.000 C 
BRANCH  28  29
ATOM     29  C   UNL     1       1.559   3.067  20.904  0.00  0.00    +0.000 C 
BRANCH  29  30
ATOM     30  O   UNL     1       1.325   2.544  22.207  0.00  0.00    +0.000 OA
ATOM     31  H   UNL     1       1.898   1.768  22.327  0.00  0.00    +0.000 HD
ENDBRANCH  29  30
ENDBRANCH  28  29
ENDBRANCH  27  28
ENDBRANCH  26  27
ENDBRANCH  21  22
ENDBRANCH  20  21
ENDBRANCH  19  20
ENDBRANCH  17  19
ENDBRANCH   2  17
TORSDOF 14
ENDMDL
MODEL 9
REMARK VINA RESULT:      -6.7      6.815     10.148
REMARK  Name = 
REMARK  16 active torsions:
REMARK  status: ('A' for Active; 'I' for Inactive)
REMARK    1  A    between atoms: C_1  and  C_2
REMARK    2  A    between atoms: C_2  and  O_4
REMARK    3  A    between atoms: O_4  and  C_5
REMARK    4  A    between atoms: C_8  and  C_9
REMARK    5  A    between atoms: C_10  and  C_11
REMARK    6  A    between atoms: C_11  and  O_13
REMARK    7  A    between atoms: O_13  and  C_14
REMARK    8  A    between atoms: C_14  and  C_15
REMARK    9  A    between atoms: C_15  and  C_16
REMARK   10  A    between atoms: N_20  and  C_21
REMARK   11  A    between atoms: C_21  and  C_22
REMARK   12  A    between atoms: C_22  and  C_23
REMARK   13  A    between atoms: C_23  and  O_24
REMARK   14  A    between atoms: C_26  and  O_27
REMARK   15  A    between atoms: O_27  and  C_28
REMARK   16  A    between atoms: C_28  and  C_29
REMARK                            x       y       z     vdW  Elec       q    Type
REMARK                         _______ _______ _______ _____ _____    ______ ____
ROOT
ATOM      1  C   UNL     1       2.135   8.054  18.618  0.00  0.00    +0.000 C 
ATOM      2  C   UNL     1       1.491   8.950  17.858  0.00  0.00    +0.000 C 
ENDROOT
BRANCH   1   6
ATOM      3  C   UNL     1       4.524   4.887  16.963  0.00  0.00    +0.000 A 
ATOM      4  C   UNL     1       4.830   6.238  16.750  0.00  0.00    +0.000 A 
ATOM      5  C   UNL     1       4.048   7.247  17.309  0.00  0.00    +0.000 A 
ATOM      6  C   UNL     1       2.953   6.939  18.121  0.00  0.00    +0.000 A 
ATOM      7  C   UNL     1       2.666   5.589  18.356  0.00  0.00    +0.000 A 
ATOM      8  C   UNL     1       3.453   4.569  17.793  0.00  0.00    +0.000 A 
BRANCH   3   9
ATOM      9  O   UNL     1       5.396   3.914  16.457  0.00  0.00    +0.000 OA
BRANCH   9  11
ATOM     10  C   UNL     1       6.708   4.362  14.543  0.00  0.00    +0.000 C 
ATOM     11  C   UNL     1       6.662   4.331  16.043  0.00  0.00    +0.000 C 
ATOM     12  O   UNL     1       7.636   4.543  16.758  0.00  0.00    +0.000 OA
ENDBRANCH   9  11
ENDBRANCH   3   9
BRANCH   8  13
ATOM     13  O   UNL     1       3.019   3.280  18.216  0.00  0.00    +0.000 OA
BRANCH  13  14
ATOM     14  C   UNL     1       2.250   2.787  19.272  0.00  0.00    +0.000 C 
ATOM     15  C   UNL     1       0.881   2.455  18.735  0.00  0.00    +0.000 C 
ATOM     16  O   UNL     1       2.589   2.677  20.441  0.00  0.00    +0.000 OA
ENDBRANCH  13  14
ENDBRANCH   8  13
ENDBRANCH   1   6
BRANCH   2  17
ATOM     17  C   UNL     1       0.921  10.151  18.500  0.00  0.00    +0.000 C 
ATOM     18  O   UNL     1       1.546  11.007  19.101  0.00  0.00    +0.000 OA
BRANCH  17  19
ATOM     19  O   UNL     1      -0.365  10.230  18.088  0.00  0.00    +0.000 OA
BRANCH  19  20
ATOM     20  C   UNL     1      -1.260  10.795  19.054  0.00  0.00    +0.000 C 
BRANCH  20  21
ATOM     21  C   UNL     1      -2.166  11.813  18.343  0.00  0.00    +0.000 C 
BRANCH  21  22
ATOM     22  C   UNL     1      -3.627  11.605  18.592  0.00  0.00    +0.000 A 
ATOM     23  C   UNL     1      -4.508  10.716  18.006  0.00  0.00    +0.000 A 
ATOM     24  N   UNL     1      -5.746  10.852  18.554  0.00  0.00    +0.000 NA
ATOM     25  N   UNL     1      -5.684  11.811  19.462  0.00  0.00    +0.000 NA
ATOM     26  N   UNL     1      -4.424  12.287  19.476  0.00  0.00    +0.000 N 
BRANCH  26  27
ATOM     27  C   UNL     1      -4.113  13.367  20.384  0.00  0.00    +0.000 C 
BRANCH  27  28
ATOM     28  C   UNL     1      -4.305  13.024  21.856  0.00  0.00    +0.000 C 
BRANCH  28  29
ATOM     29  C   UNL     1      -3.105  12.325  22.485  0.00  0.00    +0.000 C 
BRANCH  29  30
ATOM     30  O   UNL     1      -3.462  11.887  23.791  0.00  0.00    +0.000 OA
ATOM     31  H   UNL     1      -2.787  11.254  24.091  0.00  0.00    +0.000 HD
ENDBRANCH  29  30
ENDBRANCH  28  29
ENDBRANCH  27  28
ENDBRANCH  26  27
ENDBRANCH  21  22
ENDBRANCH  20  21
ENDBRANCH  19  20
ENDBRANCH  17  19
ENDBRANCH   2  17
TORSDOF 14
ENDMDL
