MODEL 1
REMARK VINA RESULT:      -6.2      0.000      0.000
REMARK  Name = 
REMARK  11 active torsions:
REMARK  status: ('A' for Active; 'I' for Inactive)
REMARK    1  A    between atoms: C_1  and  C_2
REMARK    2  A    between atoms: C_2  and  N_3
REMARK    3  A    between atoms: C_2  and  C_20
REMARK    4  A    between atoms: C_5  and  O_6
REMARK    5  A    between atoms: C_7  and  O_8
REMARK    6  A    between atoms: N_10  and  C_11
REMARK    7  A    between atoms: C_14  and  C_15
REMARK    8  A    between atoms: C_15  and  C_16
REMARK    9  A    between atoms: C_20  and  C_21
REMARK   10  A    between atoms: C_20  and  C_22
REMARK   11  A    between atoms: C_20  and  C_23
REMARK                            x       y       z     vdW  Elec       q    Type
REMARK                         _______ _______ _______ _____ _____    ______ ____
ROOT
ATOM      1  N   UNL     1       4.645   7.015  17.229  0.00  0.00    +0.000 NA
ATOM      2  C   UNL     1       3.713   7.091  18.105  0.00  0.00    +0.000 C 
ATOM      3  C   UNL     1       3.302   6.438  19.370  0.00  0.00    +0.000 C 
ATOM      4  C   UNL     1       2.225   7.262  19.490  0.00  0.00    +0.000 C 
ATOM      5  C   UNL     1       2.574   7.994  18.253  0.00  0.00    +0.000 C 
ATOM      6  N   UNL     1       2.189   9.018  17.566  0.00  0.00    +0.000 NA
ENDROOT
BRANCH   6   7
ATOM      7  C   UNL     1       1.091   9.775  18.035  0.00  0.00    +0.000 A 
ATOM      8  C   UNL     1       1.243  10.909  18.839  0.00  0.00    +0.000 A 
ATOM      9  C   UNL     1       0.144  11.616  19.333  0.00  0.00    +0.000 A 
ATOM     10  C   UNL     1      -1.154  11.275  18.942  0.00  0.00    +0.000 A 
ATOM     11  C   UNL     1      -1.320  10.185  18.077  0.00  0.00    +0.000 A 
ATOM     12  C   UNL     1      -0.208   9.442  17.635  0.00  0.00    +0.000 A 
BRANCH  10  13
ATOM     13  C   UNL     1      -2.331  12.069  19.464  0.00  0.00    +0.000 C 
BRANCH  13  14
ATOM     14  C   UNL     1      -3.581  11.815  18.722  0.00  0.00    +0.000 C 
ATOM     15  N   UNL     1      -4.548  11.601  18.117  0.00  0.00    +0.000 NA
ENDBRANCH  13  14
ENDBRANCH  10  13
ENDBRANCH   6   7
BRANCH   1  17
ATOM     16  C   UNL     1       7.041   6.713  17.574  0.00  0.00    +0.000 C 
ATOM     17  C   UNL     1       5.693   5.993  17.437  0.00  0.00    +0.000 C 
BRANCH  17  18
ATOM     18  C   UNL     1       5.658   4.922  16.294  0.00  0.00    +0.000 C 
ATOM     19  C   UNL     1       5.335   5.596  14.939  0.00  0.00    +0.000 C 
ATOM     20  C   UNL     1       7.047   4.264  16.157  0.00  0.00    +0.000 C 
ATOM     21  C   UNL     1       4.614   3.821  16.548  0.00  0.00    +0.000 C 
ENDBRANCH  17  18
ENDBRANCH   1  17
BRANCH   3  22
ATOM     22  O   UNL     1       3.727   5.487  20.122  0.00  0.00    +0.000 OA
ATOM     23  H   UNL     1       3.473   5.641  21.044  0.00  0.00    +0.000 HD
ENDBRANCH   3  22
BRANCH   4  24
ATOM     24  O   UNL     1       1.314   7.357  20.387  0.00  0.00    +0.000 OA
ATOM     25  H   UNL     1       1.622   6.891  21.188  0.00  0.00    +0.000 HD
ENDBRANCH   4  24
TORSDOF 7
ENDMDL
MODEL 2
REMARK VINA RESULT:      -6.2      2.489      7.959
REMARK  Name = 
REMARK  11 active torsions:
REMARK  status: ('A' for Active; 'I' for Inactive)
REMARK    1  A    between atoms: C_1  and  C_2
REMARK    2  A    between atoms: C_2  and  N_3
REMARK    3  A    between atoms: C_2  and  C_20
REMARK    4  A    between atoms: C_5  and  O_6
REMARK    5  A    between atoms: C_7  and  O_8
REMARK    6  A    between atoms: N_10  and  C_11
REMARK    7  A    between atoms: C_14  and  C_15
REMARK    8  A    between atoms: C_15  and  C_16
REMARK    9  A    between atoms: C_20  and  C_21
REMARK   10  A    between atoms: C_20  and  C_22
REMARK   11  A    between atoms: C_20  and  C_23
REMARK                            x       y       z     vdW  Elec       q    Type
REMARK                         _______ _______ _______ _____ _____    ______ ____
ROOT
ATOM      1  N   UNL     1       1.009  10.797  18.571  0.00  0.00    +0.000 NA
ATOM      2  C   UNL     1       1.201   9.798  19.349  0.00  0.00    +0.000 C 
ATOM      3  C   UNL     1       0.959   9.405  20.758  0.00  0.00    +0.000 C 
ATOM      4  C   UNL     1       1.500   8.174  20.547  0.00  0.00    +0.000 C 
ATOM      5  C   UNL     1       1.752   8.464  19.118  0.00  0.00    +0.000 C 
ATOM      6  N   UNL     1       2.174   7.878  18.048  0.00  0.00    +0.000 NA
ENDROOT
BRANCH   6   7
ATOM      7  C   UNL     1       2.547   6.515  18.123  0.00  0.00    +0.000 A 
ATOM      8  C   UNL     1       1.648   5.471  17.888  0.00  0.00    +0.000 A 
ATOM      9  C   UNL     1       2.023   4.132  18.014  0.00  0.00    +0.000 A 
ATOM     10  C   UNL     1       3.352   3.788  18.273  0.00  0.00    +0.000 A 
ATOM     11  C   UNL     1       4.283   4.823  18.439  0.00  0.00    +0.000 A 
ATOM     12  C   UNL     1       3.880   6.170  18.370  0.00  0.00    +0.000 A 
BRANCH  10  13
ATOM     13  C   UNL     1       3.748   2.332  18.379  0.00  0.00    +0.000 C 
BRANCH  13  14
ATOM     14  C   UNL     1       4.459   2.009  19.630  0.00  0.00    +0.000 C 
ATOM     15  N   UNL     1       5.042   1.771  20.605  0.00  0.00    +0.000 NA
ENDBRANCH  13  14
ENDBRANCH  10  13
ENDBRANCH   6   7
BRANCH   1  17
ATOM     16  C   UNL     1      -0.927  12.264  18.345  0.00  0.00    +0.000 C 
ATOM     17  C   UNL     1       0.353  11.991  19.146  0.00  0.00    +0.000 C 
BRANCH  17  18
ATOM     18  C   UNL     1       1.346  13.203  19.189  0.00  0.00    +0.000 C 
ATOM     19  C   UNL     1       2.047  13.270  20.567  0.00  0.00    +0.000 C 
ATOM     20  C   UNL     1       2.448  13.008  18.126  0.00  0.00    +0.000 C 
ATOM     21  C   UNL     1       0.648  14.549  18.935  0.00  0.00    +0.000 C 
ENDBRANCH  17  18
ENDBRANCH   1  17
BRANCH   3  22
ATOM     22  O   UNL     1       0.449   9.936  21.810  0.00  0.00    +0.000 OA
ATOM     23  H   UNL     1      -0.373   9.487  22.055  0.00  0.00    +0.000 HD
ENDBRANCH   3  22
BRANCH   4  24
ATOM     24  O   UNL     1       1.658   7.163  21.320  0.00  0.00    +0.000 OA
ATOM     25  H   UNL     1       1.117   6.427  20.977  0.00  0.00    +0.000 HD
ENDBRANCH   4  24
TORSDOF 7
ENDMDL
MODEL 3
REMARK VINA RESULT:      -6.1      0.111      1.352
REMARK  Name = 
REMARK  11 active torsions:
REMARK  status: ('A' for Active; 'I' for Inactive)
REMARK    1  A    between atoms: C_1  and  C_2
REMARK    2  A    between atoms: C_2  and  N_3
REMARK    3  A    between atoms: C_2  and  C_20
REMARK    4  A    between atoms: C_5  and  O_6
REMARK    5  A    between atoms: C_7  and  O_8
REMARK    6  A    between atoms: N_10  and  C_11
REMARK    7  A    between atoms: C_14  and  C_15
REMARK    8  A    between atoms: C_15  and  C_16
REMARK    9  A    between atoms: C_20  and  C_21
REMARK   10  A    between atoms: C_20  and  C_22
REMARK   11  A    between atoms: C_20  and  C_23
REMARK                            x       y       z     vdW  Elec       q    Type
REMARK                         _______ _______ _______ _____ _____    ______ ____
ROOT
ATOM      1  N   UNL     1       4.558   7.003  17.195  0.00  0.00    +0.000 NA
ATOM      2  C   UNL     1       3.644   7.102  18.087  0.00  0.00    +0.000 C 
ATOM      3  C   UNL     1       3.256   6.480  19.376  0.00  0.00    +0.000 C 
ATOM      4  C   UNL     1       2.185   7.311  19.497  0.00  0.00    +0.000 C 
ATOM      5  C   UNL     1       2.511   8.013  18.236  0.00  0.00    +0.000 C 
ATOM      6  N   UNL     1       2.115   9.021  17.533  0.00  0.00    +0.000 NA
ENDROOT
BRANCH   6   7
ATOM      7  C   UNL     1       1.028   9.793  18.006  0.00  0.00    +0.000 A 
ATOM      8  C   UNL     1      -0.301   9.507  17.682  0.00  0.00    +0.000 A 
ATOM      9  C   UNL     1      -1.357  10.309  18.119  0.00  0.00    +0.000 A 
ATOM     10  C   UNL     1      -1.125  11.372  18.996  0.00  0.00    +0.000 A 
ATOM     11  C   UNL     1       0.196  11.629  19.390  0.00  0.00    +0.000 A 
ATOM     12  C   UNL     1       1.258  10.850  18.894  0.00  0.00    +0.000 A 
BRANCH  10  13
ATOM     13  C   UNL     1      -2.283  12.215  19.483  0.00  0.00    +0.000 C 
BRANCH  13  14
ATOM     14  C   UNL     1      -3.576  11.831  18.887  0.00  0.00    +0.000 C 
ATOM     15  N   UNL     1      -4.591  11.551  18.398  0.00  0.00    +0.000 NA
ENDBRANCH  13  14
ENDBRANCH  10  13
ENDBRANCH   6   7
BRANCH   1  17
ATOM     16  C   UNL     1       6.947   6.707  17.587  0.00  0.00    +0.000 C 
ATOM     17  C   UNL     1       5.607   5.982  17.406  0.00  0.00    +0.000 C 
BRANCH  17  18
ATOM     18  C   UNL     1       5.604   4.934  16.241  0.00  0.00    +0.000 C 
ATOM     19  C   UNL     1       6.980   4.234  16.149  0.00  0.00    +0.000 C 
ATOM     20  C   UNL     1       4.554   3.841  16.531  0.00  0.00    +0.000 C 
ATOM     21  C   UNL     1       5.290   5.569  14.876  0.00  0.00    +0.000 C 
ENDBRANCH  17  18
ENDBRANCH   1  17
BRANCH   3  22
ATOM     22  O   UNL     1       3.694   5.546  20.141  0.00  0.00    +0.000 OA
ATOM     23  H   UNL     1       2.973   4.958  20.407  0.00  0.00    +0.000 HD
ENDBRANCH   3  22
BRANCH   4  24
ATOM     24  O   UNL     1       1.292   7.430  20.410  0.00  0.00    +0.000 OA
ATOM     25  H   UNL     1       0.437   7.135  20.043  0.00  0.00    +0.000 HD
ENDBRANCH   4  24
TORSDOF 7
ENDMDL
MODEL 4
REMARK VINA RESULT:      -6.1      2.447      7.932
REMARK  Name = 
REMARK  11 active torsions:
REMARK  status: ('A' for Active; 'I' for Inactive)
REMARK    1  A    between atoms: C_1  and  C_2
REMARK    2  A    between atoms: C_2  and  N_3
REMARK    3  A    between atoms: C_2  and  C_20
REMARK    4  A    between atoms: C_5  and  O_6
REMARK    5  A    between atoms: C_7  and  O_8
REMARK    6  A    between atoms: N_10  and  C_11
REMARK    7  A    between atoms: C_14  and  C_15
REMARK    8  A    between atoms: C_15  and  C_16
REMARK    9  A    between atoms: C_20  and  C_21
REMARK   10  A    between atoms: C_20  and  C_22
REMARK   11  A    between atoms: C_20  and  C_23
REMARK                            x       y       z     vdW  Elec       q    Type
REMARK                         _______ _______ _______ _____ _____    ______ ____
ROOT
ATOM      1  N   UNL     1       0.972  10.879  18.568  0.00  0.00    +0.000 NA
ATOM      2  C   UNL     1       1.169   9.871  19.334  0.00  0.00    +0.000 C 
ATOM      3  C   UNL     1       0.898   9.447  20.729  0.00  0.00    +0.000 C 
ATOM      4  C   UNL     1       1.477   8.234  20.512  0.00  0.00    +0.000 C 
ATOM      5  C   UNL     1       1.760   8.556  19.096  0.00  0.00    +0.000 C 
ATOM      6  N   UNL     1       2.226   8.000  18.028  0.00  0.00    +0.000 NA
ENDROOT
BRANCH   6   7
ATOM      7  C   UNL     1       2.632   6.646  18.090  0.00  0.00    +0.000 A 
ATOM      8  C   UNL     1       3.963   6.264  18.284  0.00  0.00    +0.000 A 
ATOM      9  C   UNL     1       4.352   4.923  18.294  0.00  0.00    +0.000 A 
ATOM     10  C   UNL     1       3.397   3.906  18.221  0.00  0.00    +0.000 A 
ATOM     11  C   UNL     1       2.049   4.272  18.099  0.00  0.00    +0.000 A 
ATOM     12  C   UNL     1       1.675   5.627  18.029  0.00  0.00    +0.000 A 
BRANCH  10  13
ATOM     13  C   UNL     1       3.831   2.458  18.262  0.00  0.00    +0.000 C 
BRANCH  13  14
ATOM     14  C   UNL     1       4.449   2.069  19.543  0.00  0.00    +0.000 C 
ATOM     15  N   UNL     1       4.963   1.763  20.538  0.00  0.00    +0.000 NA
ENDBRANCH  13  14
ENDBRANCH  10  13
ENDBRANCH   6   7
BRANCH   1  17
ATOM     16  C   UNL     1      -1.000  12.292  18.322  0.00  0.00    +0.000 C 
ATOM     17  C   UNL     1       0.271  12.046  19.145  0.00  0.00    +0.000 C 
BRANCH  17  18
ATOM     18  C   UNL     1       1.227  13.284  19.225  0.00  0.00    +0.000 C 
ATOM     19  C   UNL     1       2.332  13.177  18.148  0.00  0.00    +0.000 C 
ATOM     20  C   UNL     1       0.429  14.574  18.934  0.00  0.00    +0.000 C 
ATOM     21  C   UNL     1       1.902  13.421  20.600  0.00  0.00    +0.000 C 
ENDBRANCH  17  18
ENDBRANCH   1  17
BRANCH   3  22
ATOM     22  O   UNL     1       0.347   9.946  21.775  0.00  0.00    +0.000 OA
ATOM     23  H   UNL     1      -0.563   9.628  21.866  0.00  0.00    +0.000 HD
ENDBRANCH   3  22
BRANCH   4  24
ATOM     24  O   UNL     1       1.640   7.214  21.272  0.00  0.00    +0.000 OA
ATOM     25  H   UNL     1       0.883   6.611  21.142  0.00  0.00    +0.000 HD
ENDBRANCH   4  24
TORSDOF 7
ENDMDL
MODEL 5
REMARK VINA RESULT:      -6.1      1.048      1.517
REMARK  Name = 
REMARK  11 active torsions:
REMARK  status: ('A' for Active; 'I' for Inactive)
REMARK    1  A    between atoms: C_1  and  C_2
REMARK    2  A    between atoms: C_2  and  N_3
REMARK    3  A    between atoms: C_2  and  C_20
REMARK    4  A    between atoms: C_5  and  O_6
REMARK    5  A    between atoms: C_7  and  O_8
REMARK    6  A    between atoms: N_10  and  C_11
REMARK    7  A    between atoms: C_14  and  C_15
REMARK    8  A    between atoms: C_15  and  C_16
REMARK    9  A    between atoms: C_20  and  C_21
REMARK   10  A    between atoms: C_20  and  C_22
REMARK   11  A    between atoms: C_20  and  C_23
REMARK                            x       y       z     vdW  Elec       q    Type
REMARK                         _______ _______ _______ _____ _____    ______ ____
ROOT
ATOM      1  N   UNL     1       4.616   7.060  17.229  0.00  0.00    +0.000 NA
ATOM      2  C   UNL     1       3.687   7.125  18.108  0.00  0.00    +0.000 C 
ATOM      3  C   UNL     1       3.289   6.468  19.377  0.00  0.00    +0.000 C 
ATOM      4  C   UNL     1       2.203   7.280  19.500  0.00  0.00    +0.000 C 
ATOM      5  C   UNL     1       2.538   8.015  18.261  0.00  0.00    +0.000 C 
ATOM      6  N   UNL     1       2.138   9.033  17.574  0.00  0.00    +0.000 NA
ENDROOT
BRANCH   6   7
ATOM      7  C   UNL     1       1.032   9.778  18.048  0.00  0.00    +0.000 A 
ATOM      8  C   UNL     1      -0.285   9.495  17.677  0.00  0.00    +0.000 A 
ATOM      9  C   UNL     1      -1.359  10.272  18.116  0.00  0.00    +0.000 A 
ATOM     10  C   UNL     1      -1.160  11.301  19.040  0.00  0.00    +0.000 A 
ATOM     11  C   UNL     1       0.148  11.552  19.479  0.00  0.00    +0.000 A 
ATOM     12  C   UNL     1       1.230  10.801  18.982  0.00  0.00    +0.000 A 
BRANCH  10  13
ATOM     13  C   UNL     1      -2.337  12.116  19.528  0.00  0.00    +0.000 C 
BRANCH  13  14
ATOM     14  C   UNL     1      -2.242  12.484  20.953  0.00  0.00    +0.000 C 
ATOM     15  N   UNL     1      -2.163  12.745  22.081  0.00  0.00    +0.000 NA
ENDBRANCH  13  14
ENDBRANCH  10  13
ENDBRANCH   6   7
BRANCH   1  17
ATOM     16  C   UNL     1       7.022   6.783  17.521  0.00  0.00    +0.000 C 
ATOM     17  C   UNL     1       5.677   6.050  17.433  0.00  0.00    +0.000 C 
BRANCH  17  18
ATOM     18  C   UNL     1       5.622   4.954  16.314  0.00  0.00    +0.000 C 
ATOM     19  C   UNL     1       5.294   5.601  14.948  0.00  0.00    +0.000 C 
ATOM     20  C   UNL     1       7.005   4.281  16.180  0.00  0.00    +0.000 C 
ATOM     21  C   UNL     1       4.572   3.869  16.601  0.00  0.00    +0.000 C 
ENDBRANCH  17  18
ENDBRANCH   1  17
BRANCH   3  22
ATOM     22  O   UNL     1       3.729   5.523  20.127  0.00  0.00    +0.000 OA
ATOM     23  H   UNL     1       4.279   4.910  19.617  0.00  0.00    +0.000 HD
ENDBRANCH   3  22
BRANCH   4  24
ATOM     24  O   UNL     1       1.295   7.364  20.401  0.00  0.00    +0.000 OA
ATOM     25  H   UNL     1       0.465   7.654  19.974  0.00  0.00    +0.000 HD
ENDBRANCH   4  24
TORSDOF 7
ENDMDL
MODEL 6
REMARK VINA RESULT:      -6.0      1.053      1.461
REMARK  Name = 
REMARK  11 active torsions:
REMARK  status: ('A' for Active; 'I' for Inactive)
REMARK    1  A    between atoms: C_1  and  C_2
REMARK    2  A    between atoms: C_2  and  N_3
REMARK    3  A    between atoms: C_2  and  C_20
REMARK    4  A    between atoms: C_5  and  O_6
REMARK    5  A    between atoms: C_7  and  O_8
REMARK    6  A    between atoms: N_10  and  C_11
REMARK    7  A    between atoms: C_14  and  C_15
REMARK    8  A    between atoms: C_15  and  C_16
REMARK    9  A    between atoms: C_20  and  C_21
REMARK   10  A    between atoms: C_20  and  C_22
REMARK   11  A    between atoms: C_20  and  C_23
REMARK                            x       y       z     vdW  Elec       q    Type
REMARK                         _______ _______ _______ _____ _____    ______ ____
ROOT
ATOM      1  N   UNL     1       4.578   7.009  17.217  0.00  0.00    +0.000 NA
ATOM      2  C   UNL     1       3.663   7.110  18.109  0.00  0.00    +0.000 C 
ATOM      3  C   UNL     1       3.260   6.473  19.385  0.00  0.00    +0.000 C 
ATOM      4  C   UNL     1       2.205   7.323  19.520  0.00  0.00    +0.000 C 
ATOM      5  C   UNL     1       2.549   8.040  18.272  0.00  0.00    +0.000 C 
ATOM      6  N   UNL     1       2.175   9.069  17.587  0.00  0.00    +0.000 NA
ENDROOT
BRANCH   6   7
ATOM      7  C   UNL     1       1.103   9.854  18.072  0.00  0.00    +0.000 A 
ATOM      8  C   UNL     1       1.297  11.006  18.840  0.00  0.00    +0.000 A 
ATOM      9  C   UNL     1       0.225  11.742  19.350  0.00  0.00    +0.000 A 
ATOM     10  C   UNL     1      -1.090  11.409  19.013  0.00  0.00    +0.000 A 
ATOM     11  C   UNL     1      -1.299  10.299  18.183  0.00  0.00    +0.000 A 
ATOM     12  C   UNL     1      -0.213   9.529  17.724  0.00  0.00    +0.000 A 
BRANCH  10  13
ATOM     13  C   UNL     1      -2.239  12.233  19.551  0.00  0.00    +0.000 C 
BRANCH  13  14
ATOM     14  C   UNL     1      -2.227  12.361  21.020  0.00  0.00    +0.000 C 
ATOM     15  N   UNL     1      -2.237  12.486  22.174  0.00  0.00    +0.000 NA
ENDBRANCH  13  14
ENDBRANCH  10  13
ENDBRANCH   6   7
BRANCH   1  17
ATOM     16  C   UNL     1       6.955   6.658  17.633  0.00  0.00    +0.000 C 
ATOM     17  C   UNL     1       5.605   5.963  17.412  0.00  0.00    +0.000 C 
BRANCH  17  18
ATOM     18  C   UNL     1       5.600   4.951  16.216  0.00  0.00    +0.000 C 
ATOM     19  C   UNL     1       6.976   4.253  16.101  0.00  0.00    +0.000 C 
ATOM     20  C   UNL     1       4.550   3.849  16.474  0.00  0.00    +0.000 C 
ATOM     21  C   UNL     1       5.285   5.626  14.871  0.00  0.00    +0.000 C 
ENDBRANCH  17  18
ENDBRANCH   1  17
BRANCH   3  22
ATOM     22  O   UNL     1       3.677   5.517  20.134  0.00  0.00    +0.000 OA
ATOM     23  H   UNL     1       4.148   4.853  19.609  0.00  0.00    +0.000 HD
ENDBRANCH   3  22
BRANCH   4  24
ATOM     24  O   UNL     1       1.313   7.443  20.432  0.00  0.00    +0.000 OA
ATOM     25  H   UNL     1       1.335   8.361  20.765  0.00  0.00    +0.000 HD
ENDBRANCH   4  24
TORSDOF 7
ENDMDL
MODEL 7
REMARK VINA RESULT:      -6.0      1.062      1.776
REMARK  Name = 
REMARK  11 active torsions:
REMARK  status: ('A' for Active; 'I' for Inactive)
REMARK    1  A    between atoms: C_1  and  C_2
REMARK    2  A    between atoms: C_2  and  N_3
REMARK    3  A    between atoms: C_2  and  C_20
REMARK    4  A    between atoms: C_5  and  O_6
REMARK    5  A    between atoms: C_7  and  O_8
REMARK    6  A    between atoms: N_10  and  C_11
REMARK    7  A    between atoms: C_14  and  C_15
REMARK    8  A    between atoms: C_15  and  C_16
REMARK    9  A    between atoms: C_20  and  C_21
REMARK   10  A    between atoms: C_20  and  C_22
REMARK   11  A    between atoms: C_20  and  C_23
REMARK                            x       y       z     vdW  Elec       q    Type
REMARK                         _______ _______ _______ _____ _____    ______ ____
ROOT
ATOM      1  N   UNL     1       4.606   7.033  17.203  0.00  0.00    +0.000 NA
ATOM      2  C   UNL     1       3.686   7.103  18.092  0.00  0.00    +0.000 C 
ATOM      3  C   UNL     1       3.299   6.450  19.365  0.00  0.00    +0.000 C 
ATOM      4  C   UNL     1       2.219   7.267  19.500  0.00  0.00    +0.000 C 
ATOM      5  C   UNL     1       2.544   7.999  18.256  0.00  0.00    +0.000 C 
ATOM      6  N   UNL     1       2.142   9.019  17.574  0.00  0.00    +0.000 NA
ENDROOT
BRANCH   6   7
ATOM      7  C   UNL     1       1.046   9.771  18.058  0.00  0.00    +0.000 A 
ATOM      8  C   UNL     1      -0.278   9.493  17.704  0.00  0.00    +0.000 A 
ATOM      9  C   UNL     1      -1.342  10.276  18.154  0.00  0.00    +0.000 A 
ATOM     10  C   UNL     1      -1.128  11.307  19.073  0.00  0.00    +0.000 A 
ATOM     11  C   UNL     1       0.186  11.552  19.496  0.00  0.00    +0.000 A 
ATOM     12  C   UNL     1       1.259  10.795  18.988  0.00  0.00    +0.000 A 
BRANCH  10  13
ATOM     13  C   UNL     1      -2.295  12.128  19.573  0.00  0.00    +0.000 C 
BRANCH  13  14
ATOM     14  C   UNL     1      -1.888  13.395  20.209  0.00  0.00    +0.000 C 
ATOM     15  N   UNL     1      -1.596  14.397  20.717  0.00  0.00    +0.000 NA
ENDBRANCH  13  14
ENDBRANCH  10  13
ENDBRANCH   6   7
BRANCH   1  17
ATOM     16  C   UNL     1       7.004   6.748  17.544  0.00  0.00    +0.000 C 
ATOM     17  C   UNL     1       5.663   6.017  17.396  0.00  0.00    +0.000 C 
BRANCH  17  18
ATOM     18  C   UNL     1       5.638   4.963  16.237  0.00  0.00    +0.000 C 
ATOM     19  C   UNL     1       7.017   4.271  16.116  0.00  0.00    +0.000 C 
ATOM     20  C   UNL     1       4.603   3.864  16.558  0.00  0.00    +0.000 C 
ATOM     21  C   UNL     1       5.289   5.588  14.877  0.00  0.00    +0.000 C 
ENDBRANCH  17  18
ENDBRANCH   1  17
BRANCH   3  22
ATOM     22  O   UNL     1       3.742   5.503  20.111  0.00  0.00    +0.000 OA
ATOM     23  H   UNL     1       3.014   5.071  20.583  0.00  0.00    +0.000 HD
ENDBRANCH   3  22
BRANCH   4  24
ATOM     24  O   UNL     1       1.321   7.357  20.411  0.00  0.00    +0.000 OA
ATOM     25  H   UNL     1       0.474   7.592  19.985  0.00  0.00    +0.000 HD
ENDBRANCH   4  24
TORSDOF 7
ENDMDL
MODEL 8
REMARK VINA RESULT:      -6.0      1.043      1.448
REMARK  Name = 
REMARK  11 active torsions:
REMARK  status: ('A' for Active; 'I' for Inactive)
REMARK    1  A    between atoms: C_1  and  C_2
REMARK    2  A    between atoms: C_2  and  N_3
REMARK    3  A    between atoms: C_2  and  C_20
REMARK    4  A    between atoms: C_5  and  O_6
REMARK    5  A    between atoms: C_7  and  O_8
REMARK    6  A    between atoms: N_10  and  C_11
REMARK    7  A    between atoms: C_14  and  C_15
REMARK    8  A    between atoms: C_15  and  C_16
REMARK    9  A    between atoms: C_20  and  C_21
REMARK   10  A    between atoms: C_20  and  C_22
REMARK   11  A    between atoms: C_20  and  C_23
REMARK                            x       y       z     vdW  Elec       q    Type
REMARK                         _______ _______ _______ _____ _____    ______ ____
ROOT
ATOM      1  N   UNL     1       4.612   7.009  17.216  0.00  0.00    +0.000 NA
ATOM      2  C   UNL     1       3.701   7.079  18.114  0.00  0.00    +0.000 C 
ATOM      3  C   UNL     1       3.322   6.419  19.387  0.00  0.00    +0.000 C 
ATOM      4  C   UNL     1       2.248   7.241  19.537  0.00  0.00    +0.000 C 
ATOM      5  C   UNL     1       2.565   7.979  18.295  0.00  0.00    +0.000 C 
ATOM      6  N   UNL     1       2.162   9.006  17.623  0.00  0.00    +0.000 NA
ENDROOT
BRANCH   6   7
ATOM      7  C   UNL     1       1.074   9.760  18.123  0.00  0.00    +0.000 A 
ATOM      8  C   UNL     1       1.234  10.797  19.047  0.00  0.00    +0.000 A 
ATOM      9  C   UNL     1       0.143  11.498  19.565  0.00  0.00    +0.000 A 
ATOM     10  C   UNL     1      -1.148  11.257  19.088  0.00  0.00    +0.000 A 
ATOM     11  C   UNL     1      -1.317  10.270  18.108  0.00  0.00    +0.000 A 
ATOM     12  C   UNL     1      -0.217   9.527  17.637  0.00  0.00    +0.000 A 
BRANCH  10  13
ATOM     13  C   UNL     1      -2.315  12.044  19.640  0.00  0.00    +0.000 C 
BRANCH  13  14
ATOM     14  C   UNL     1      -1.935  13.377  20.146  0.00  0.00    +0.000 C 
ATOM     15  N   UNL     1      -1.664  14.431  20.549  0.00  0.00    +0.000 NA
ENDBRANCH  13  14
ENDBRANCH  10  13
ENDBRANCH   6   7
BRANCH   1  17
ATOM     16  C   UNL     1       7.010   6.711  17.545  0.00  0.00    +0.000 C 
ATOM     17  C   UNL     1       5.665   5.987  17.392  0.00  0.00    +0.000 C 
BRANCH  17  18
ATOM     18  C   UNL     1       5.632   4.947  16.221  0.00  0.00    +0.000 C 
ATOM     19  C   UNL     1       4.532   3.890  16.476  0.00  0.00    +0.000 C 
ATOM     20  C   UNL     1       5.278   5.665  14.901  0.00  0.00    +0.000 C 
ATOM     21  C   UNL     1       6.974   4.217  16.041  0.00  0.00    +0.000 C 
ENDBRANCH  17  18
ENDBRANCH   1  17
BRANCH   3  22
ATOM     22  O   UNL     1       3.767   5.465  20.123  0.00  0.00    +0.000 OA
ATOM     23  H   UNL     1       3.191   4.689  20.061  0.00  0.00    +0.000 HD
ENDBRANCH   3  22
BRANCH   4  24
ATOM     24  O   UNL     1       1.359   7.330  20.457  0.00  0.00    +0.000 OA
ATOM     25  H   UNL     1       1.619   8.046  21.067  0.00  0.00    +0.000 HD
ENDBRANCH   4  24
TORSDOF 7
ENDMDL
MODEL 9
REMARK VINA RESULT:      -5.9      1.933      8.301
REMARK  Name = 
REMARK  11 active torsions:
REMARK  status: ('A' for Active; 'I' for Inactive)
REMARK    1  A    between atoms: C_1  and  C_2
REMARK    2  A    between atoms: C_2  and  N_3
REMARK    3  A    between atoms: C_2  and  C_20
REMARK    4  A    between atoms: C_5  and  O_6
REMARK    5  A    between atoms: C_7  and  O_8
REMARK    6  A    between atoms: N_10  and  C_11
REMARK    7  A    between atoms: C_14  and  C_15
REMARK    8  A    between atoms: C_15  and  C_16
REMARK    9  A    between atoms: C_20  and  C_21
REMARK   10  A    between atoms: C_20  and  C_22
REMARK   11  A    between atoms: C_20  and  C_23
REMARK                            x       y       z     vdW  Elec       q    Type
REMARK                         _______ _______ _______ _____ _____    ______ ____
ROOT
ATOM      1  N   UNL     1      -0.137  10.932  18.921  0.00  0.00    +0.000 NA
ATOM      2  C   UNL     1       0.469   9.989  19.542  0.00  0.00    +0.000 C 
ATOM      3  C   UNL     1       0.537   9.397  20.900  0.00  0.00    +0.000 C 
ATOM      4  C   UNL     1       1.433   8.460  20.487  0.00  0.00    +0.000 C 
ATOM      5  C   UNL     1       1.407   8.962  19.096  0.00  0.00    +0.000 C 
ATOM      6  N   UNL     1       1.877   8.670  17.929  0.00  0.00    +0.000 NA
ENDROOT
BRANCH   6   7
ATOM      7  C   UNL     1       2.694   7.523  17.793  0.00  0.00    +0.000 A 
ATOM      8  C   UNL     1       2.217   6.226  18.003  0.00  0.00    +0.000 A 
ATOM      9  C   UNL     1       3.051   5.109  17.912  0.00  0.00    +0.000 A 
ATOM     10  C   UNL     1       4.377   5.245  17.495  0.00  0.00    +0.000 A 
ATOM     11  C   UNL     1       4.853   6.533  17.211  0.00  0.00    +0.000 A 
ATOM     12  C   UNL     1       4.019   7.658  17.365  0.00  0.00    +0.000 A 
BRANCH  10  13
ATOM     13  C   UNL     1       5.260   4.023  17.374  0.00  0.00    +0.000 C 
BRANCH  13  14
ATOM     14  C   UNL     1       6.652   4.342  17.008  0.00  0.00    +0.000 C 
ATOM     15  N   UNL     1       7.739   4.601  16.693  0.00  0.00    +0.000 NA
ENDBRANCH  13  14
ENDBRANCH  10  13
ENDBRANCH   6   7
BRANCH   1  17
ATOM     16  C   UNL     1      -2.426  11.772  18.949  0.00  0.00    +0.000 C 
ATOM     17  C   UNL     1      -1.086  11.758  19.697  0.00  0.00    +0.000 C 
BRANCH  17  18
ATOM     18  C   UNL     1      -0.492  13.183  19.964  0.00  0.00    +0.000 C 
ATOM     19  C   UNL     1       0.062  13.785  18.652  0.00  0.00    +0.000 C 
ATOM     20  C   UNL     1      -1.609  14.124  20.463  0.00  0.00    +0.000 C 
ATOM     21  C   UNL     1       0.639  13.165  21.005  0.00  0.00    +0.000 C 
ENDBRANCH  17  18
ENDBRANCH   1  17
BRANCH   3  22
ATOM     22  O   UNL     1       0.001   9.608  22.048  0.00  0.00    +0.000 OA
ATOM     23  H   UNL     1       0.194  10.507  22.354  0.00  0.00    +0.000 HD
ENDBRANCH   3  22
BRANCH   4  24
ATOM     24  O   UNL     1       2.010   7.496  21.105  0.00  0.00    +0.000 OA
ATOM     25  H   UNL     1       2.974   7.576  20.968  0.00  0.00    +0.000 HD
ENDBRANCH   4  24
TORSDOF 7
ENDMDL
