MODEL 1
REMARK VINA RESULT:      -9.3      0.000      0.000
REMARK  Name = 
REMARK  6 active torsions:
REMARK  status: ('A' for Active; 'I' for Inactive)
REMARK    1  A    between atoms: C_2  and  C_22
REMARK    2  A    between atoms: N_3  and  C_4
REMARK    3  A    between atoms: C_4  and  C_5
REMARK    4  A    between atoms: C_5  and  C_6
REMARK    5  A    between atoms: C_6  and  C_7
REMARK    6  A    between atoms: C_7  and  N_8
REMARK                            x       y       z     vdW  Elec       q    Type
REMARK                         _______ _______ _______ _____ _____    ______ ____
ROOT
ATOM      1  C   UNL     1       8.092   7.687  18.276  0.00  0.00    +0.000 C 
ENDROOT
BRANCH   1   2
ATOM      2  C   UNL     1       7.269   6.683  17.413  0.00  0.00    +0.000 C 
BRANCH   2   5
ATOM      3  O   UNL     1       6.686   4.321  18.499  0.00  0.00    +0.000 OA
ATOM      4  C   UNL     1       5.679   4.999  18.260  0.00  0.00    +0.000 C 
ATOM      5  N   UNL     1       5.897   6.301  17.858  0.00  0.00    +0.000 N 
ATOM      6  H   UNL     1       5.121   6.823  17.477  0.00  0.00    +0.000 HD
BRANCH   4   7
ATOM      7  C   UNL     1       4.318   4.278  18.331  0.00  0.00    +0.000 A 
ATOM      8  C   UNL     1       4.119   3.649  17.079  0.00  0.00    +0.000 A 
ATOM      9  C   UNL     1       2.919   3.075  16.742  0.00  0.00    +0.000 A 
ATOM     10  C   UNL     1       2.409   2.317  17.759  0.00  0.00    +0.000 A 
ATOM     11  C   UNL     1       2.460   2.851  19.031  0.00  0.00    +0.000 A 
ATOM     12  C   UNL     1       1.594   2.241  19.935  0.00  0.00    +0.000 A 
ATOM     13  C   UNL     1       1.287   2.864  21.124  0.00  0.00    +0.000 A 
ATOM     14  C   UNL     1       1.896   4.089  21.405  0.00  0.00    +0.000 A 
ATOM     15  C   UNL     1       2.909   4.606  20.573  0.00  0.00    +0.000 A 
ATOM     16  C   UNL     1       3.294   3.997  19.335  0.00  0.00    +0.000 A 
ENDBRANCH   4   7
ENDBRANCH   2   5
ENDBRANCH   1   2
BRANCH   1  17
ATOM     17  C   UNL     1       8.251   9.171  17.844  0.00  0.00    +0.000 C 
BRANCH  17  18
ATOM     18  C   UNL     1       9.045  10.099  18.803  0.00  0.00    +0.000 C 
BRANCH  18  19
ATOM     19  N   UNL     1       9.808  11.246  18.218  0.00  0.00    +0.000 NA
ATOM     20  C   UNL     1      11.162  11.316  18.819  0.00  0.00    +0.000 C 
ATOM     21  C   UNL     1      11.988  12.539  18.318  0.00  0.00    +0.000 C 
ATOM     22  O   UNL     1      11.304  13.745  18.592  0.00  0.00    +0.000 OA
ATOM     23  C   UNL     1      10.060  13.766  17.875  0.00  0.00    +0.000 C 
ATOM     24  C   UNL     1       9.313  15.063  18.099  0.00  0.00    +0.000 A 
ATOM     25  C   UNL     1       9.977  16.265  18.393  0.00  0.00    +0.000 A 
ATOM     26  C   UNL     1       9.251  17.437  18.629  0.00  0.00    +0.000 A 
ATOM     27  C   UNL     1       7.862  17.426  18.557  0.00  0.00    +0.000 A 
ATOM     28  C   UNL     1       7.195  16.244  18.227  0.00  0.00    +0.000 A 
ATOM     29  C   UNL     1       7.919  15.067  17.995  0.00  0.00    +0.000 A 
ATOM     30  O   UNL     1       7.172  13.952  17.710  0.00  0.00    +0.000 OA
ATOM     31  C   UNL     1       7.913  12.760  17.396  0.00  0.00    +0.000 C 
ATOM     32  C   UNL     1       9.142  12.578  18.308  0.00  0.00    +0.000 C 
ENDBRANCH  18  19
ENDBRANCH  17  18
ENDBRANCH   1  17
TORSDOF 6
ENDMDL
MODEL 2
REMARK VINA RESULT:      -9.3      7.168      9.685
REMARK  Name = 
REMARK  6 active torsions:
REMARK  status: ('A' for Active; 'I' for Inactive)
REMARK    1  A    between atoms: C_2  and  C_22
REMARK    2  A    between atoms: N_3  and  C_4
REMARK    3  A    between atoms: C_4  and  C_5
REMARK    4  A    between atoms: C_5  and  C_6
REMARK    5  A    between atoms: C_6  and  C_7
REMARK    6  A    between atoms: C_7  and  N_8
REMARK                            x       y       z     vdW  Elec       q    Type
REMARK                         _______ _______ _______ _____ _____    ______ ____
ROOT
ATOM      1  C   UNL     1       0.077   9.452  23.016  0.00  0.00    +0.000 C 
ENDROOT
BRANCH   1   2
ATOM      2  C   UNL     1       0.830   9.333  21.655  0.00  0.00    +0.000 C 
BRANCH   2   5
ATOM      3  O   UNL     1       1.663   8.600  19.233  0.00  0.00    +0.000 OA
ATOM      4  C   UNL     1       1.944   7.770  20.107  0.00  0.00    +0.000 C 
ATOM      5  N   UNL     1       1.703   8.149  21.412  0.00  0.00    +0.000 N 
ATOM      6  H   UNL     1       1.741   7.442  22.132  0.00  0.00    +0.000 HD
BRANCH   4   7
ATOM      7  C   UNL     1       2.420   6.385  19.628  0.00  0.00    +0.000 A 
ATOM      8  C   UNL     1       3.110   6.586  18.408  0.00  0.00    +0.000 A 
ATOM      9  C   UNL     1       3.503   5.534  17.619  0.00  0.00    +0.000 A 
ATOM     10  C   UNL     1       4.077   4.531  18.349  0.00  0.00    +0.000 A 
ATOM     11  C   UNL     1       3.455   4.172  19.527  0.00  0.00    +0.000 A 
ATOM     12  C   UNL     1       3.835   2.921  20.009  0.00  0.00    +0.000 A 
ATOM     13  C   UNL     1       3.074   2.290  20.965  0.00  0.00    +0.000 A 
ATOM     14  C   UNL     1       1.947   2.953  21.458  0.00  0.00    +0.000 A 
ATOM     15  C   UNL     1       1.677   4.290  21.103  0.00  0.00    +0.000 A 
ATOM     16  C   UNL     1       2.443   5.013  20.133  0.00  0.00    +0.000 A 
ENDBRANCH   4   7
ENDBRANCH   2   5
ENDBRANCH   1   2
BRANCH   1  17
ATOM     17  C   UNL     1      -1.114  10.435  23.188  0.00  0.00    +0.000 C 
BRANCH  17  18
ATOM     18  C   UNL     1      -0.855  11.920  22.819  0.00  0.00    +0.000 C 
BRANCH  18  19
ATOM     19  N   UNL     1      -1.728  12.563  21.786  0.00  0.00    +0.000 NA
ATOM     20  C   UNL     1      -3.085  12.796  22.339  0.00  0.00    +0.000 C 
ATOM     21  C   UNL     1      -4.075  13.388  21.291  0.00  0.00    +0.000 C 
ATOM     22  O   UNL     1      -4.179  12.534  20.170  0.00  0.00    +0.000 OA
ATOM     23  C   UNL     1      -2.903  12.435  19.520  0.00  0.00    +0.000 C 
ATOM     24  C   UNL     1      -2.977  11.569  18.282  0.00  0.00    +0.000 A 
ATOM     25  C   UNL     1      -4.159  11.432  17.537  0.00  0.00    +0.000 A 
ATOM     26  C   UNL     1      -4.200  10.594  16.418  0.00  0.00    +0.000 A 
ATOM     27  C   UNL     1      -3.061   9.900  16.022  0.00  0.00    +0.000 A 
ATOM     28  C   UNL     1      -1.870  10.059  16.734  0.00  0.00    +0.000 A 
ATOM     29  C   UNL     1      -1.828  10.894  17.859  0.00  0.00    +0.000 A 
ATOM     30  O   UNL     1      -0.622  10.960  18.510  0.00  0.00    +0.000 OA
ATOM     31  C   UNL     1      -0.552  11.874  19.617  0.00  0.00    +0.000 C 
ATOM     32  C   UNL     1      -1.826  11.841  20.484  0.00  0.00    +0.000 C 
ENDBRANCH  18  19
ENDBRANCH  17  18
ENDBRANCH   1  17
TORSDOF 6
ENDMDL
MODEL 3
REMARK VINA RESULT:      -9.1      6.770      9.520
REMARK  Name = 
REMARK  6 active torsions:
REMARK  status: ('A' for Active; 'I' for Inactive)
REMARK    1  A    between atoms: C_2  and  C_22
REMARK    2  A    between atoms: N_3  and  C_4
REMARK    3  A    between atoms: C_4  and  C_5
REMARK    4  A    between atoms: C_5  and  C_6
REMARK    5  A    between atoms: C_6  and  C_7
REMARK    6  A    between atoms: C_7  and  N_8
REMARK                            x       y       z     vdW  Elec       q    Type
REMARK                         _______ _______ _______ _____ _____    ______ ____
ROOT
ATOM      1  C   UNL     1       0.190   8.104  21.567  0.00  0.00    +0.000 C 
ENDROOT
BRANCH   1   2
ATOM      2  C   UNL     1       1.314   8.448  20.541  0.00  0.00    +0.000 C 
BRANCH   2   5
ATOM      3  O   UNL     1       2.252   8.059  18.078  0.00  0.00    +0.000 OA
ATOM      4  C   UNL     1       2.628   7.190  18.876  0.00  0.00    +0.000 C 
ATOM      5  N   UNL     1       2.331   7.410  20.206  0.00  0.00    +0.000 N 
ATOM      6  H   UNL     1       2.452   6.648  20.857  0.00  0.00    +0.000 HD
BRANCH   4   7
ATOM      7  C   UNL     1       3.278   5.927  18.279  0.00  0.00    +0.000 A 
ATOM      8  C   UNL     1       2.299   4.906  18.313  0.00  0.00    +0.000 A 
ATOM      9  C   UNL     1       2.608   3.599  18.025  0.00  0.00    +0.000 A 
ATOM     10  C   UNL     1       3.394   3.490  16.912  0.00  0.00    +0.000 A 
ATOM     11  C   UNL     1       4.446   4.376  16.793  0.00  0.00    +0.000 A 
ATOM     12  C   UNL     1       5.421   3.976  15.882  0.00  0.00    +0.000 A 
ATOM     13  C   UNL     1       6.664   4.565  15.900  0.00  0.00    +0.000 A 
ATOM     14  C   UNL     1       6.899   5.589  16.821  0.00  0.00    +0.000 A 
ATOM     15  C   UNL     1       5.853   6.112  17.609  0.00  0.00    +0.000 A 
ATOM     16  C   UNL     1       4.531   5.563  17.621  0.00  0.00    +0.000 A 
ENDBRANCH   4   7
ENDBRANCH   2   5
ENDBRANCH   1   2
BRANCH   1  17
ATOM     17  C   UNL     1      -0.550   9.224  22.348  0.00  0.00    +0.000 C 
BRANCH  17  18
ATOM     18  C   UNL     1      -0.013  10.670  22.177  0.00  0.00    +0.000 C 
BRANCH  18  19
ATOM     19  N   UNL     1      -0.827  11.646  21.384  0.00  0.00    +0.000 NA
ATOM     20  C   UNL     1      -1.979  12.120  22.189  0.00  0.00    +0.000 C 
ATOM     21  C   UNL     1      -2.920  13.078  21.399  0.00  0.00    +0.000 C 
ATOM     22  O   UNL     1      -3.408  12.443  20.234  0.00  0.00    +0.000 OA
ATOM     23  C   UNL     1      -2.311  12.131  19.361  0.00  0.00    +0.000 C 
ATOM     24  C   UNL     1      -2.789  11.494  18.075  0.00  0.00    +0.000 A 
ATOM     25  C   UNL     1      -4.062  11.756  17.541  0.00  0.00    +0.000 A 
ATOM     26  C   UNL     1      -4.484  11.121  16.368  0.00  0.00    +0.000 A 
ATOM     27  C   UNL     1      -3.637  10.235  15.710  0.00  0.00    +0.000 A 
ATOM     28  C   UNL     1      -2.356   9.997  16.212  0.00  0.00    +0.000 A 
ATOM     29  C   UNL     1      -1.933  10.629  17.390  0.00  0.00    +0.000 A 
ATOM     30  O   UNL     1      -0.670  10.306  17.820  0.00  0.00    +0.000 OA
ATOM     31  C   UNL     1      -0.202  11.008  18.983  0.00  0.00    +0.000 C 
ATOM     32  C   UNL     1      -1.300  11.162  20.055  0.00  0.00    +0.000 C 
ENDBRANCH  18  19
ENDBRANCH  17  18
ENDBRANCH   1  17
TORSDOF 6
ENDMDL
MODEL 4
REMARK VINA RESULT:      -9.0      5.215      7.761
REMARK  Name = 
REMARK  6 active torsions:
REMARK  status: ('A' for Active; 'I' for Inactive)
REMARK    1  A    between atoms: C_2  and  C_22
REMARK    2  A    between atoms: N_3  and  C_4
REMARK    3  A    between atoms: C_4  and  C_5
REMARK    4  A    between atoms: C_5  and  C_6
REMARK    5  A    between atoms: C_6  and  C_7
REMARK    6  A    between atoms: C_7  and  N_8
REMARK                            x       y       z     vdW  Elec       q    Type
REMARK                         _______ _______ _______ _____ _____    ______ ____
ROOT
ATOM      1  C   UNL     1       1.873   3.275  21.229  0.00  0.00    +0.000 C 
ENDROOT
BRANCH   1   2
ATOM      2  C   UNL     1       2.561   2.315  20.211  0.00  0.00    +0.000 C 
BRANCH   2   5
ATOM      3  O   UNL     1       5.165   2.813  19.947  0.00  0.00    +0.000 OA
ATOM      4  C   UNL     1       4.497   3.249  19.002  0.00  0.00    +0.000 C 
ATOM      5  N   UNL     1       3.166   2.886  18.973  0.00  0.00    +0.000 N 
ATOM      6  H   UNL     1       2.550   3.366  18.332  0.00  0.00    +0.000 HD
BRANCH   4   7
ATOM      7  C   UNL     1       5.201   4.228  18.041  0.00  0.00    +0.000 A 
ATOM      8  C   UNL     1       4.553   4.112  16.788  0.00  0.00    +0.000 A 
ATOM      9  C   UNL     1       5.053   4.711  15.659  0.00  0.00    +0.000 A 
ATOM     10  C   UNL     1       5.445   6.000  15.892  0.00  0.00    +0.000 A 
ATOM     11  C   UNL     1       6.165   6.242  17.045  0.00  0.00    +0.000 A 
ATOM     12  C   UNL     1       6.863   7.447  17.033  0.00  0.00    +0.000 A 
ATOM     13  C   UNL     1       7.871   7.669  17.943  0.00  0.00    +0.000 A 
ATOM     14  C   UNL     1       8.139   6.677  18.889  0.00  0.00    +0.000 A 
ATOM     15  C   UNL     1       7.307   5.545  19.012  0.00  0.00    +0.000 A 
ATOM     16  C   UNL     1       6.227   5.266  18.115  0.00  0.00    +0.000 A 
ENDBRANCH   4   7
ENDBRANCH   2   5
ENDBRANCH   1   2
BRANCH   1  17
ATOM     17  C   UNL     1       1.192   4.589  20.756  0.00  0.00    +0.000 C 
BRANCH  17  18
ATOM     18  C   UNL     1       2.097   5.845  20.641  0.00  0.00    +0.000 C 
BRANCH  18  19
ATOM     19  N   UNL     1       1.724   6.907  19.654  0.00  0.00    +0.000 NA
ATOM     20  C   UNL     1       2.802   7.071  18.649  0.00  0.00    +0.000 C 
ATOM     21  C   UNL     1       2.520   8.220  17.635  0.00  0.00    +0.000 C 
ATOM     22  O   UNL     1       2.338   9.446  18.313  0.00  0.00    +0.000 OA
ATOM     23  C   UNL     1       1.186   9.357  19.167  0.00  0.00    +0.000 C 
ATOM     24  C   UNL     1       0.921  10.666  19.878  0.00  0.00    +0.000 A 
ATOM     25  C   UNL     1       1.299  11.903  19.330  0.00  0.00    +0.000 A 
ATOM     26  C   UNL     1       1.069  13.090  20.032  0.00  0.00    +0.000 A 
ATOM     27  C   UNL     1       0.448  13.057  21.277  0.00  0.00    +0.000 A 
ATOM     28  C   UNL     1       0.035  11.836  21.814  0.00  0.00    +0.000 A 
ATOM     29  C   UNL     1       0.268  10.644  21.113  0.00  0.00    +0.000 A 
ATOM     30  O   UNL     1      -0.145   9.494  21.737  0.00  0.00    +0.000 OA
ATOM     31  C   UNL     1       0.021   8.277  20.991  0.00  0.00    +0.000 C 
ATOM     32  C   UNL     1       1.365   8.232  20.237  0.00  0.00    +0.000 C 
ENDBRANCH  18  19
ENDBRANCH  17  18
ENDBRANCH   1  17
TORSDOF 6
ENDMDL
MODEL 5
REMARK VINA RESULT:      -8.9      2.178     11.939
REMARK  Name = 
REMARK  6 active torsions:
REMARK  status: ('A' for Active; 'I' for Inactive)
REMARK    1  A    between atoms: C_2  and  C_22
REMARK    2  A    between atoms: N_3  and  C_4
REMARK    3  A    between atoms: C_4  and  C_5
REMARK    4  A    between atoms: C_5  and  C_6
REMARK    5  A    between atoms: C_6  and  C_7
REMARK    6  A    between atoms: C_7  and  N_8
REMARK                            x       y       z     vdW  Elec       q    Type
REMARK                         _______ _______ _______ _____ _____    ______ ____
ROOT
ATOM      1  C   UNL     1       8.323   9.017  17.939  0.00  0.00    +0.000 C 
ENDROOT
BRANCH   1   2
ATOM      2  C   UNL     1       8.939   9.715  19.190  0.00  0.00    +0.000 C 
BRANCH   2   5
ATOM      3  O   UNL     1       9.552  11.354  21.198  0.00  0.00    +0.000 OA
ATOM      4  C   UNL     1       9.826  11.832  20.090  0.00  0.00    +0.000 C 
ATOM      5  N   UNL     1       9.702  10.984  19.009  0.00  0.00    +0.000 N 
ATOM      6  H   UNL     1       9.733  11.381  18.081  0.00  0.00    +0.000 HD
BRANCH   4   7
ATOM      7  C   UNL     1      10.162  13.336  20.042  0.00  0.00    +0.000 A 
ATOM      8  C   UNL     1      10.038  13.828  21.363  0.00  0.00    +0.000 A 
ATOM      9  C   UNL     1      10.087  15.172  21.640  0.00  0.00    +0.000 A 
ATOM     10  C   UNL     1      11.107  15.796  20.977  0.00  0.00    +0.000 A 
ATOM     11  C   UNL     1      11.288  15.471  19.648  0.00  0.00    +0.000 A 
ATOM     12  C   UNL     1      12.048  16.397  18.938  0.00  0.00    +0.000 A 
ATOM     13  C   UNL     1      12.033  16.391  17.562  0.00  0.00    +0.000 A 
ATOM     14  C   UNL     1      11.274  15.415  16.912  0.00  0.00    +0.000 A 
ATOM     15  C   UNL     1      10.660  14.371  17.634  0.00  0.00    +0.000 A 
ATOM     16  C   UNL     1      10.658  14.303  19.064  0.00  0.00    +0.000 A 
ENDBRANCH   4   7
ENDBRANCH   2   5
ENDBRANCH   1   2
BRANCH   1  17
ATOM     17  C   UNL     1       7.862   7.534  17.995  0.00  0.00    +0.000 C 
BRANCH  17  18
ATOM     18  C   UNL     1       6.602   7.162  17.168  0.00  0.00    +0.000 C 
BRANCH  18  19
ATOM     19  N   UNL     1       6.203   5.721  17.084  0.00  0.00    +0.000 NA
ATOM     20  C   UNL     1       6.050   5.317  15.666  0.00  0.00    +0.000 C 
ATOM     21  C   UNL     1       5.555   3.848  15.501  0.00  0.00    +0.000 C 
ATOM     22  O   UNL     1       4.320   3.665  16.163  0.00  0.00    +0.000 OA
ATOM     23  C   UNL     1       4.492   3.887  17.571  0.00  0.00    +0.000 C 
ATOM     24  C   UNL     1       3.204   3.652  18.330  0.00  0.00    +0.000 A 
ATOM     25  C   UNL     1       2.219   2.762  17.872  0.00  0.00    +0.000 A 
ATOM     26  C   UNL     1       1.025   2.597  18.582  0.00  0.00    +0.000 A 
ATOM     27  C   UNL     1       0.810   3.304  19.761  0.00  0.00    +0.000 A 
ATOM     28  C   UNL     1       1.798   4.163  20.244  0.00  0.00    +0.000 A 
ATOM     29  C   UNL     1       2.994   4.334  19.532  0.00  0.00    +0.000 A 
ATOM     30  O   UNL     1       3.889   5.222  20.072  0.00  0.00    +0.000 OA
ATOM     31  C   UNL     1       5.148   5.343  19.388  0.00  0.00    +0.000 C 
ATOM     32  C   UNL     1       4.983   5.343  17.855  0.00  0.00    +0.000 C 
ENDBRANCH  18  19
ENDBRANCH  17  18
ENDBRANCH   1  17
TORSDOF 6
ENDMDL
MODEL 6
REMARK VINA RESULT:      -8.9      5.529      7.750
REMARK  Name = 
REMARK  6 active torsions:
REMARK  status: ('A' for Active; 'I' for Inactive)
REMARK    1  A    between atoms: C_2  and  C_22
REMARK    2  A    between atoms: N_3  and  C_4
REMARK    3  A    between atoms: C_4  and  C_5
REMARK    4  A    between atoms: C_5  and  C_6
REMARK    5  A    between atoms: C_6  and  C_7
REMARK    6  A    between atoms: C_7  and  N_8
REMARK                            x       y       z     vdW  Elec       q    Type
REMARK                         _______ _______ _______ _____ _____    ______ ____
ROOT
ATOM      1  C   UNL     1       0.927   3.902  19.975  0.00  0.00    +0.000 C 
ENDROOT
BRANCH   1   2
ATOM      2  C   UNL     1       1.201   3.290  18.567  0.00  0.00    +0.000 C 
BRANCH   2   5
ATOM      3  O   UNL     1       3.568   2.191  18.034  0.00  0.00    +0.000 OA
ATOM      4  C   UNL     1       3.471   3.347  17.605  0.00  0.00    +0.000 C 
ATOM      5  N   UNL     1       2.221   3.928  17.686  0.00  0.00    +0.000 N 
ATOM      6  H   UNL     1       2.141   4.921  17.523  0.00  0.00    +0.000 HD
BRANCH   4   7
ATOM      7  C   UNL     1       4.771   4.032  17.140  0.00  0.00    +0.000 A 
ATOM      8  C   UNL     1       4.813   3.921  15.730  0.00  0.00    +0.000 A 
ATOM      9  C   UNL     1       5.932   4.265  15.012  0.00  0.00    +0.000 A 
ATOM     10  C   UNL     1       6.464   5.453  15.428  0.00  0.00    +0.000 A 
ATOM     11  C   UNL     1       6.562   5.659  16.789  0.00  0.00    +0.000 A 
ATOM     12  C   UNL     1       7.450   6.672  17.144  0.00  0.00    +0.000 A 
ATOM     13  C   UNL     1       7.904   6.767  18.440  0.00  0.00    +0.000 A 
ATOM     14  C   UNL     1       7.420   5.854  19.380  0.00  0.00    +0.000 A 
ATOM     15  C   UNL     1       6.385   4.954  19.054  0.00  0.00    +0.000 A 
ATOM     16  C   UNL     1       5.850   4.820  17.733  0.00  0.00    +0.000 A 
ENDBRANCH   4   7
ENDBRANCH   2   5
ENDBRANCH   1   2
BRANCH   1  17
ATOM     17  C   UNL     1       2.096   4.364  20.888  0.00  0.00    +0.000 C 
BRANCH  17  18
ATOM     18  C   UNL     1       2.255   5.893  21.102  0.00  0.00    +0.000 C 
BRANCH  18  19
ATOM     19  N   UNL     1       1.804   6.818  20.014  0.00  0.00    +0.000 NA
ATOM     20  C   UNL     1       2.834   6.894  18.951  0.00  0.00    +0.000 C 
ATOM     21  C   UNL     1       2.470   7.904  17.821  0.00  0.00    +0.000 C 
ATOM     22  O   UNL     1       2.271   9.196  18.357  0.00  0.00    +0.000 OA
ATOM     23  C   UNL     1       1.159   9.174  19.265  0.00  0.00    +0.000 C 
ATOM     24  C   UNL     1       0.876  10.550  19.828  0.00  0.00    +0.000 A 
ATOM     25  C   UNL     1       1.186  11.723  19.121  0.00  0.00    +0.000 A 
ATOM     26  C   UNL     1       0.941  12.979  19.688  0.00  0.00    +0.000 A 
ATOM     27  C   UNL     1       0.373  13.076  20.954  0.00  0.00    +0.000 A 
ATOM     28  C   UNL     1       0.027  11.915  21.649  0.00  0.00    +0.000 A 
ATOM     29  C   UNL     1       0.274  10.656  21.085  0.00  0.00    +0.000 A 
ATOM     30  O   UNL     1      -0.071   9.577  21.858  0.00  0.00    +0.000 OA
ATOM     31  C   UNL     1       0.109   8.284  21.254  0.00  0.00    +0.000 C 
ATOM     32  C   UNL     1       1.422   8.192  20.452  0.00  0.00    +0.000 C 
ENDBRANCH  18  19
ENDBRANCH  17  18
ENDBRANCH   1  17
TORSDOF 6
ENDMDL
MODEL 7
REMARK VINA RESULT:      -8.8      7.130      8.982
REMARK  Name = 
REMARK  6 active torsions:
REMARK  status: ('A' for Active; 'I' for Inactive)
REMARK    1  A    between atoms: C_2  and  C_22
REMARK    2  A    between atoms: N_3  and  C_4
REMARK    3  A    between atoms: C_4  and  C_5
REMARK    4  A    between atoms: C_5  and  C_6
REMARK    5  A    between atoms: C_6  and  C_7
REMARK    6  A    between atoms: C_7  and  N_8
REMARK                            x       y       z     vdW  Elec       q    Type
REMARK                         _______ _______ _______ _____ _____    ______ ____
ROOT
ATOM      1  C   UNL     1       0.361   9.993  17.934  0.00  0.00    +0.000 C 
ENDROOT
BRANCH   1   2
ATOM      2  C   UNL     1       1.762   9.309  17.899  0.00  0.00    +0.000 C 
BRANCH   2   5
ATOM      3  O   UNL     1       3.797   7.665  17.401  0.00  0.00    +0.000 OA
ATOM      4  C   UNL     1       2.945   7.160  18.143  0.00  0.00    +0.000 C 
ATOM      5  N   UNL     1       1.946   8.001  18.590  0.00  0.00    +0.000 N 
ATOM      6  H   UNL     1       1.139   7.592  19.038  0.00  0.00    +0.000 HD
BRANCH   4   7
ATOM      7  C   UNL     1       3.040   5.641  18.384  0.00  0.00    +0.000 A 
ATOM      8  C   UNL     1       3.810   5.103  17.325  0.00  0.00    +0.000 A 
ATOM      9  C   UNL     1       3.930   3.749  17.135  0.00  0.00    +0.000 A 
ATOM     10  C   UNL     1       4.174   3.086  18.305  0.00  0.00    +0.000 A 
ATOM     11  C   UNL     1       3.428   3.453  19.406  0.00  0.00    +0.000 A 
ATOM     12  C   UNL     1       3.427   2.508  20.429  0.00  0.00    +0.000 A 
ATOM     13  C   UNL     1       2.480   2.572  21.426  0.00  0.00    +0.000 A 
ATOM     14  C   UNL     1       1.561   3.623  21.399  0.00  0.00    +0.000 A 
ATOM     15  C   UNL     1       1.686   4.675  20.470  0.00  0.00    +0.000 A 
ATOM     16  C   UNL     1       2.662   4.684  19.422  0.00  0.00    +0.000 A 
ENDBRANCH   4   7
ENDBRANCH   2   5
ENDBRANCH   1   2
BRANCH   1  17
ATOM     17  C   UNL     1       0.093  11.224  18.844  0.00  0.00    +0.000 C 
BRANCH  17  18
ATOM     18  C   UNL     1       1.084  11.456  20.017  0.00  0.00    +0.000 C 
BRANCH  18  19
ATOM     19  N   UNL     1       0.559  11.394  21.418  0.00  0.00    +0.000 NA
ATOM     20  C   UNL     1       0.349   9.982  21.821  0.00  0.00    +0.000 C 
ATOM     21  C   UNL     1      -0.275   9.841  23.242  0.00  0.00    +0.000 C 
ATOM     22  O   UNL     1      -1.510  10.524  23.310  0.00  0.00    +0.000 OA
ATOM     23  C   UNL     1      -1.297  11.927  23.091  0.00  0.00    +0.000 C 
ATOM     24  C   UNL     1      -2.588  12.708  23.204  0.00  0.00    +0.000 A 
ATOM     25  C   UNL     1      -3.654  12.274  24.010  0.00  0.00    +0.000 A 
ATOM     26  C   UNL     1      -4.846  13.004  24.062  0.00  0.00    +0.000 A 
ATOM     27  C   UNL     1      -4.980  14.178  23.328  0.00  0.00    +0.000 A 
ATOM     28  C   UNL     1      -3.913  14.638  22.554  0.00  0.00    +0.000 A 
ATOM     29  C   UNL     1      -2.719  13.906  22.496  0.00  0.00    +0.000 A 
ATOM     30  O   UNL     1      -1.741  14.421  21.683  0.00  0.00    +0.000 OA
ATOM     31  C   UNL     1      -0.487  13.717  21.680  0.00  0.00    +0.000 C 
ATOM     32  C   UNL     1      -0.676  12.187  21.681  0.00  0.00    +0.000 C 
ENDBRANCH  18  19
ENDBRANCH  17  18
ENDBRANCH   1  17
TORSDOF 6
ENDMDL
MODEL 8
REMARK VINA RESULT:      -8.8      1.919     11.915
REMARK  Name = 
REMARK  6 active torsions:
REMARK  status: ('A' for Active; 'I' for Inactive)
REMARK    1  A    between atoms: C_2  and  C_22
REMARK    2  A    between atoms: N_3  and  C_4
REMARK    3  A    between atoms: C_4  and  C_5
REMARK    4  A    between atoms: C_5  and  C_6
REMARK    5  A    between atoms: C_6  and  C_7
REMARK    6  A    between atoms: C_7  and  N_8
REMARK                            x       y       z     vdW  Elec       q    Type
REMARK                         _______ _______ _______ _____ _____    ______ ____
ROOT
ATOM      1  C   UNL     1       7.932   9.234  17.853  0.00  0.00    +0.000 C 
ENDROOT
BRANCH   1   2
ATOM      2  C   UNL     1       9.092   9.879  18.671  0.00  0.00    +0.000 C 
BRANCH   2   5
ATOM      3  O   UNL     1      10.817  11.336  20.084  0.00  0.00    +0.000 OA
ATOM      4  C   UNL     1      10.510  11.868  19.009  0.00  0.00    +0.000 C 
ATOM      5  N   UNL     1       9.758  11.104  18.140  0.00  0.00    +0.000 N 
ATOM      6  H   UNL     1       9.334  11.558  17.345  0.00  0.00    +0.000 HD
BRANCH   4   7
ATOM      7  C   UNL     1      10.907  13.345  18.822  0.00  0.00    +0.000 A 
ATOM      8  C   UNL     1      11.386  13.478  17.497  0.00  0.00    +0.000 A 
ATOM      9  C   UNL     1      11.995  14.628  17.061  0.00  0.00    +0.000 A 
ATOM     10  C   UNL     1      11.317  15.749  17.453  0.00  0.00    +0.000 A 
ATOM     11  C   UNL     1      10.866  15.790  18.756  0.00  0.00    +0.000 A 
ATOM     12  C   UNL     1      10.551  17.070  19.206  0.00  0.00    +0.000 A 
ATOM     13  C   UNL     1      10.416  17.313  20.554  0.00  0.00    +0.000 A 
ATOM     14  C   UNL     1      10.561  16.242  21.438  0.00  0.00    +0.000 A 
ATOM     15  C   UNL     1      10.693  14.920  20.964  0.00  0.00    +0.000 A 
ATOM     16  C   UNL     1      10.816  14.595  19.576  0.00  0.00    +0.000 A 
ENDBRANCH   4   7
ENDBRANCH   2   5
ENDBRANCH   1   2
BRANCH   1  17
ATOM     17  C   UNL     1       7.728   7.693  17.831  0.00  0.00    +0.000 C 
BRANCH  17  18
ATOM     18  C   UNL     1       6.511   7.160  17.028  0.00  0.00    +0.000 C 
BRANCH  18  19
ATOM     19  N   UNL     1       6.222   5.691  17.062  0.00  0.00    +0.000 NA
ATOM     20  C   UNL     1       6.180   5.149  15.682  0.00  0.00    +0.000 C 
ATOM     21  C   UNL     1       5.802   3.638  15.634  0.00  0.00    +0.000 C 
ATOM     22  O   UNL     1       4.547   3.422  16.247  0.00  0.00    +0.000 OA
ATOM     23  C   UNL     1       4.621   3.784  17.634  0.00  0.00    +0.000 C 
ATOM     24  C   UNL     1       3.312   3.522  18.346  0.00  0.00    +0.000 A 
ATOM     25  C   UNL     1       2.421   2.521  17.925  0.00  0.00    +0.000 A 
ATOM     26  C   UNL     1       1.203   2.330  18.587  0.00  0.00    +0.000 A 
ATOM     27  C   UNL     1       0.870   3.123  19.680  0.00  0.00    +0.000 A 
ATOM     28  C   UNL     1       1.766   4.096  20.130  0.00  0.00    +0.000 A 
ATOM     29  C   UNL     1       2.985   4.292  19.466  0.00  0.00    +0.000 A 
ATOM     30  O   UNL     1       3.782   5.292  19.963  0.00  0.00    +0.000 OA
ATOM     31  C   UNL     1       5.066   5.446  19.335  0.00  0.00    +0.000 C 
ATOM     32  C   UNL     1       4.990   5.293  17.803  0.00  0.00    +0.000 C 
ENDBRANCH  18  19
ENDBRANCH  17  18
ENDBRANCH   1  17
TORSDOF 6
ENDMDL
MODEL 9
REMARK VINA RESULT:      -8.7      7.322      9.419
REMARK  Name = 
REMARK  6 active torsions:
REMARK  status: ('A' for Active; 'I' for Inactive)
REMARK    1  A    between atoms: C_2  and  C_22
REMARK    2  A    between atoms: N_3  and  C_4
REMARK    3  A    between atoms: C_4  and  C_5
REMARK    4  A    between atoms: C_5  and  C_6
REMARK    5  A    between atoms: C_6  and  C_7
REMARK    6  A    between atoms: C_7  and  N_8
REMARK                            x       y       z     vdW  Elec       q    Type
REMARK                         _______ _______ _______ _____ _____    ______ ____
ROOT
ATOM      1  C   UNL     1       0.529  10.193  18.063  0.00  0.00    +0.000 C 
ENDROOT
BRANCH   1   2
ATOM      2  C   UNL     1       2.002   9.683  18.118  0.00  0.00    +0.000 C 
BRANCH   2   5
ATOM      3  O   UNL     1       2.274   7.427  19.509  0.00  0.00    +0.000 OA
ATOM      4  C   UNL     1       2.608   7.301  18.324  0.00  0.00    +0.000 C 
ATOM      5  N   UNL     1       2.337   8.370  17.494  0.00  0.00    +0.000 N 
ATOM      6  H   UNL     1       2.757   8.384  16.575  0.00  0.00    +0.000 HD
BRANCH   4   7
ATOM      7  C   UNL     1       3.381   6.022  17.948  0.00  0.00    +0.000 A 
ATOM      8  C   UNL     1       2.514   4.931  18.192  0.00  0.00    +0.000 A 
ATOM      9  C   UNL     1       2.955   3.632  18.138  0.00  0.00    +0.000 A 
ATOM     10  C   UNL     1       3.739   3.401  17.042  0.00  0.00    +0.000 A 
ATOM     11  C   UNL     1       4.692   4.351  16.735  0.00  0.00    +0.000 A 
ATOM     12  C   UNL     1       5.695   3.892  15.885  0.00  0.00    +0.000 A 
ATOM     13  C   UNL     1       6.870   4.596  15.762  0.00  0.00    +0.000 A 
ATOM     14  C   UNL     1       7.005   5.790  16.476  0.00  0.00    +0.000 A 
ATOM     15  C   UNL     1       5.917   6.340  17.184  0.00  0.00    +0.000 A 
ATOM     16  C   UNL     1       4.660   5.672  17.332  0.00  0.00    +0.000 A 
ENDBRANCH   4   7
ENDBRANCH   2   5
ENDBRANCH   1   2
BRANCH   1  17
ATOM     17  C   UNL     1       0.077  11.425  18.895  0.00  0.00    +0.000 C 
BRANCH  17  18
ATOM     18  C   UNL     1       0.982  11.833  20.089  0.00  0.00    +0.000 C 
BRANCH  18  19
ATOM     19  N   UNL     1       0.449  11.672  21.478  0.00  0.00    +0.000 NA
ATOM     20  C   UNL     1       0.231  10.236  21.777  0.00  0.00    +0.000 C 
ATOM     21  C   UNL     1      -0.403   9.995  23.180  0.00  0.00    +0.000 C 
ATOM     22  O   UNL     1      -1.636  10.675  23.289  0.00  0.00    +0.000 OA
ATOM     23  C   UNL     1      -1.417  12.090  23.174  0.00  0.00    +0.000 C 
ATOM     24  C   UNL     1      -2.706  12.865  23.336  0.00  0.00    +0.000 A 
ATOM     25  C   UNL     1      -3.779  12.379  24.100  0.00  0.00    +0.000 A 
ATOM     26  C   UNL     1      -4.968  13.108  24.199  0.00  0.00    +0.000 A 
ATOM     27  C   UNL     1      -5.093  14.333  23.551  0.00  0.00    +0.000 A 
ATOM     28  C   UNL     1      -4.019  14.843  22.819  0.00  0.00    +0.000 A 
ATOM     29  C   UNL     1      -2.827  14.112  22.715  0.00  0.00    +0.000 A 
ATOM     30  O   UNL     1      -1.842  14.681  21.948  0.00  0.00    +0.000 OA
ATOM     31  C   UNL     1      -0.591  13.974  21.901  0.00  0.00    +0.000 C 
ATOM     32  C   UNL     1      -0.786  12.449  21.790  0.00  0.00    +0.000 C 
ENDBRANCH  18  19
ENDBRANCH  17  18
ENDBRANCH   1  17
TORSDOF 6
ENDMDL
