MODEL 1
REMARK VINA RESULT:      -8.2      0.000      0.000
REMARK  Name = 
REMARK  7 active torsions:
REMARK  status: ('A' for Active; 'I' for Inactive)
REMARK    1  A    between atoms: C_1  and  O_2
REMARK    2  A    between atoms: O_2  and  C_3
REMARK    3  A    between atoms: C_8  and  O_9
REMARK    4  A    between atoms: O_9  and  C_10
REMARK    5  A    between atoms: C_11  and  C_12
REMARK    6  A    between atoms: C_15  and  C_16
REMARK    7  A    between atoms: C_19  and  C_20
REMARK                            x       y       z     vdW  Elec       q    Type
REMARK                         _______ _______ _______ _____ _____    ______ ____
ROOT
ATOM      1  C   UNL     1       6.617   6.240  17.059  0.00  0.00    +0.000 A 
ATOM      2  C   UNL     1       6.036   6.251  18.339  0.00  0.00    +0.000 A 
ATOM      3  C   UNL     1       4.837   5.582  18.600  0.00  0.00    +0.000 A 
ATOM      4  C   UNL     1       4.231   4.848  17.567  0.00  0.00    +0.000 A 
ATOM      5  C   UNL     1       4.761   4.891  16.280  0.00  0.00    +0.000 A 
ATOM      6  C   UNL     1       5.945   5.595  16.008  0.00  0.00    +0.000 A 
ATOM      7  C   UNL     1       3.018   4.066  17.891  0.00  0.00    +0.000 C 
ATOM      8  C   UNL     1       2.465   2.978  17.014  0.00  0.00    +0.000 C 
ATOM      9  N   UNL     1       2.369   4.331  19.010  0.00  0.00    +0.000 N 
ATOM     10  O   UNL     1       1.319   3.674  19.345  0.00  0.00    +0.000 OA
ATOM     11  C   UNL     1       2.836   5.458  19.905  0.00  0.00    +0.000 C 
ATOM     12  N   UNL     1       4.317   5.564  19.914  0.00  0.00    +0.000 N 
ATOM     13  H   UNL     1       4.653   6.335  20.479  0.00  0.00    +0.000 HD
ENDROOT
BRANCH  11  14
ATOM     14  C   UNL     1       2.218   6.816  19.540  0.00  0.00    +0.000 A 
ATOM     15  C   UNL     1       2.265   7.331  18.232  0.00  0.00    +0.000 A 
ATOM     16  C   UNL     1       1.801   8.613  17.945  0.00  0.00    +0.000 A 
ATOM     17  C   UNL     1       1.270   9.424  18.954  0.00  0.00    +0.000 A 
ATOM     18  C   UNL     1       0.821  10.819  18.652  0.00  0.00    +0.000 C 
ATOM     19  C   UNL     1       1.158   8.900  20.246  0.00  0.00    +0.000 A 
ATOM     20  C   UNL     1       1.619   7.611  20.533  0.00  0.00    +0.000 A 
ENDBRANCH  11  14
BRANCH   1  22
ATOM     21  C   UNL     1       8.040   8.080  17.534  0.00  0.00    +0.000 C 
ATOM     22  O   UNL     1       7.812   6.866  16.817  0.00  0.00    +0.000 OA
ENDBRANCH   1  22
BRANCH   6  23
ATOM     23  O   UNL     1       6.295   5.491  14.688  0.00  0.00    +0.000 OA
ATOM     24  C   UNL     1       6.288   4.225  14.053  0.00  0.00    +0.000 C 
ENDBRANCH   6  23
TORSDOF 3
ENDMDL
MODEL 2
REMARK VINA RESULT:      -8.0      0.184      1.020
REMARK  Name = 
REMARK  7 active torsions:
REMARK  status: ('A' for Active; 'I' for Inactive)
REMARK    1  A    between atoms: C_1  and  O_2
REMARK    2  A    between atoms: O_2  and  C_3
REMARK    3  A    between atoms: C_8  and  O_9
REMARK    4  A    between atoms: O_9  and  C_10
REMARK    5  A    between atoms: C_11  and  C_12
REMARK    6  A    between atoms: C_15  and  C_16
REMARK    7  A    between atoms: C_19  and  C_20
REMARK                            x       y       z     vdW  Elec       q    Type
REMARK                         _______ _______ _______ _____ _____    ______ ____
ROOT
ATOM      1  C   UNL     1       6.619   6.298  17.095  0.00  0.00    +0.000 A 
ATOM      2  C   UNL     1       6.047   6.288  18.379  0.00  0.00    +0.000 A 
ATOM      3  C   UNL     1       4.825   5.654  18.626  0.00  0.00    +0.000 A 
ATOM      4  C   UNL     1       4.187   4.976  17.574  0.00  0.00    +0.000 A 
ATOM      5  C   UNL     1       4.711   5.043  16.286  0.00  0.00    +0.000 A 
ATOM      6  C   UNL     1       5.918   5.713  16.028  0.00  0.00    +0.000 A 
ATOM      7  C   UNL     1       2.949   4.229  17.881  0.00  0.00    +0.000 C 
ATOM      8  C   UNL     1       2.353   3.190  16.973  0.00  0.00    +0.000 C 
ATOM      9  N   UNL     1       2.317   4.479  19.013  0.00  0.00    +0.000 N 
ATOM     10  O   UNL     1       1.245   3.849  19.333  0.00  0.00    +0.000 OA
ATOM     11  C   UNL     1       2.829   5.558  19.941  0.00  0.00    +0.000 C 
ATOM     12  N   UNL     1       4.313   5.611  19.943  0.00  0.00    +0.000 N 
ATOM     13  H   UNL     1       4.680   6.351  20.530  0.00  0.00    +0.000 HD
ENDROOT
BRANCH  11  14
ATOM     14  C   UNL     1       2.258   6.949  19.625  0.00  0.00    +0.000 A 
ATOM     15  C   UNL     1       1.658   7.752  20.612  0.00  0.00    +0.000 A 
ATOM     16  C   UNL     1       1.045   8.959  20.284  0.00  0.00    +0.000 A 
ATOM     17  C   UNL     1       1.013   9.408  18.959  0.00  0.00    +0.000 A 
ATOM     18  C   UNL     1       0.309  10.679  18.602  0.00  0.00    +0.000 C 
ATOM     19  C   UNL     1       1.662   8.651  17.979  0.00  0.00    +0.000 A 
ATOM     20  C   UNL     1       2.284   7.442  18.309  0.00  0.00    +0.000 A 
ENDBRANCH  11  14
BRANCH   1  22
ATOM     21  C   UNL     1       8.088   8.098  17.582  0.00  0.00    +0.000 C 
ATOM     22  O   UNL     1       7.834   6.889  16.865  0.00  0.00    +0.000 OA
ENDBRANCH   1  22
BRANCH   6  23
ATOM     23  O   UNL     1       6.256   5.641  14.704  0.00  0.00    +0.000 OA
ATOM     24  C   UNL     1       6.440   4.377  14.090  0.00  0.00    +0.000 C 
ENDBRANCH   6  23
TORSDOF 3
ENDMDL
MODEL 3
REMARK VINA RESULT:      -7.1      2.359      6.020
REMARK  Name = 
REMARK  7 active torsions:
REMARK  status: ('A' for Active; 'I' for Inactive)
REMARK    1  A    between atoms: C_1  and  O_2
REMARK    2  A    between atoms: O_2  and  C_3
REMARK    3  A    between atoms: C_8  and  O_9
REMARK    4  A    between atoms: O_9  and  C_10
REMARK    5  A    between atoms: C_11  and  C_12
REMARK    6  A    between atoms: C_15  and  C_16
REMARK    7  A    between atoms: C_19  and  C_20
REMARK                            x       y       z     vdW  Elec       q    Type
REMARK                         _______ _______ _______ _____ _____    ______ ____
ROOT
ATOM      1  C   UNL     1       1.322   8.866  19.501  0.00  0.00    +0.000 A 
ATOM      2  C   UNL     1       1.699   8.028  18.436  0.00  0.00    +0.000 A 
ATOM      3  C   UNL     1       2.090   6.704  18.656  0.00  0.00    +0.000 A 
ATOM      4  C   UNL     1       2.058   6.195  19.965  0.00  0.00    +0.000 A 
ATOM      5  C   UNL     1       1.756   7.038  21.031  0.00  0.00    +0.000 A 
ATOM      6  C   UNL     1       1.400   8.379  20.816  0.00  0.00    +0.000 A 
ATOM      7  C   UNL     1       2.378   4.765  20.160  0.00  0.00    +0.000 C 
ATOM      8  C   UNL     1       2.057   3.999  21.413  0.00  0.00    +0.000 C 
ATOM      9  N   UNL     1       2.986   4.109  19.188  0.00  0.00    +0.000 N 
ATOM     10  O   UNL     1       3.275   2.863  19.302  0.00  0.00    +0.000 OA
ATOM     11  C   UNL     1       3.395   4.837  17.926  0.00  0.00    +0.000 C 
ATOM     12  N   UNL     1       2.401   5.875  17.554  0.00  0.00    +0.000 N 
ATOM     13  H   UNL     1       2.671   6.401  16.731  0.00  0.00    +0.000 HD
ENDROOT
BRANCH  11  14
ATOM     14  C   UNL     1       4.795   5.463  18.017  0.00  0.00    +0.000 A 
ATOM     15  C   UNL     1       5.707   5.111  19.028  0.00  0.00    +0.000 A 
ATOM     16  C   UNL     1       6.926   5.772  19.161  0.00  0.00    +0.000 A 
ATOM     17  C   UNL     1       7.278   6.805  18.285  0.00  0.00    +0.000 A 
ATOM     18  C   UNL     1       8.565   7.548  18.462  0.00  0.00    +0.000 C 
ATOM     19  C   UNL     1       6.409   7.121  17.237  0.00  0.00    +0.000 A 
ATOM     20  C   UNL     1       5.187   6.454  17.100  0.00  0.00    +0.000 A 
ENDBRANCH  11  14
BRANCH   1  22
ATOM     21  C   UNL     1      -0.453  10.305  18.859  0.00  0.00    +0.000 C 
ATOM     22  O   UNL     1       0.904  10.151  19.277  0.00  0.00    +0.000 OA
ENDBRANCH   1  22
BRANCH   6  23
ATOM     23  O   UNL     1       1.128   9.018  21.995  0.00  0.00    +0.000 OA
ATOM     24  C   UNL     1      -0.210   9.121  22.450  0.00  0.00    +0.000 C 
ENDBRANCH   6  23
TORSDOF 3
ENDMDL
MODEL 4
REMARK VINA RESULT:      -6.6      1.559      2.069
REMARK  Name = 
REMARK  7 active torsions:
REMARK  status: ('A' for Active; 'I' for Inactive)
REMARK    1  A    between atoms: C_1  and  O_2
REMARK    2  A    between atoms: O_2  and  C_3
REMARK    3  A    between atoms: C_8  and  O_9
REMARK    4  A    between atoms: O_9  and  C_10
REMARK    5  A    between atoms: C_11  and  C_12
REMARK    6  A    between atoms: C_15  and  C_16
REMARK    7  A    between atoms: C_19  and  C_20
REMARK                            x       y       z     vdW  Elec       q    Type
REMARK                         _______ _______ _______ _____ _____    ______ ____
ROOT
ATOM      1  C   UNL     1       7.014   5.040  15.365  0.00  0.00    +0.000 A 
ATOM      2  C   UNL     1       6.887   5.420  16.712  0.00  0.00    +0.000 A 
ATOM      3  C   UNL     1       5.940   4.824  17.551  0.00  0.00    +0.000 A 
ATOM      4  C   UNL     1       5.135   3.793  17.040  0.00  0.00    +0.000 A 
ATOM      5  C   UNL     1       5.206   3.460  15.689  0.00  0.00    +0.000 A 
ATOM      6  C   UNL     1       6.130   4.085  14.837  0.00  0.00    +0.000 A 
ATOM      7  C   UNL     1       4.212   3.109  17.970  0.00  0.00    +0.000 C 
ATOM      8  C   UNL     1       3.556   1.788  17.677  0.00  0.00    +0.000 C 
ATOM      9  N   UNL     1       3.934   3.680  19.128  0.00  0.00    +0.000 N 
ATOM     10  O   UNL     1       3.150   3.122  19.977  0.00  0.00    +0.000 OA
ATOM     11  C   UNL     1       4.512   5.039  19.457  0.00  0.00    +0.000 C 
ATOM     12  N   UNL     1       5.886   5.189  18.915  0.00  0.00    +0.000 N 
ATOM     13  H   UNL     1       6.281   6.106  19.091  0.00  0.00    +0.000 HD
ENDROOT
BRANCH  11  14
ATOM     14  C   UNL     1       3.631   6.202  18.976  0.00  0.00    +0.000 A 
ATOM     15  C   UNL     1       3.858   6.854  17.751  0.00  0.00    +0.000 A 
ATOM     16  C   UNL     1       3.122   7.979  17.385  0.00  0.00    +0.000 A 
ATOM     17  C   UNL     1       2.130   8.489  18.230  0.00  0.00    +0.000 A 
ATOM     18  C   UNL     1       1.377   9.728  17.859  0.00  0.00    +0.000 C 
ATOM     19  C   UNL     1       1.851   7.814  19.422  0.00  0.00    +0.000 A 
ATOM     20  C   UNL     1       2.586   6.680  19.786  0.00  0.00    +0.000 A 
ENDBRANCH  11  14
BRANCH   1  22
ATOM     21  C   UNL     1       7.838   5.339  13.159  0.00  0.00    +0.000 C 
ATOM     22  O   UNL     1       7.969   5.600  14.557  0.00  0.00    +0.000 OA
ENDBRANCH   1  22
BRANCH   6  23
ATOM     23  O   UNL     1       6.040   3.598  13.561  0.00  0.00    +0.000 OA
ATOM     24  C   UNL     1       4.795   3.614  12.884  0.00  0.00    +0.000 C 
ENDBRANCH   6  23
TORSDOF 3
ENDMDL
MODEL 5
REMARK VINA RESULT:      -6.6      3.339      5.971
REMARK  Name = 
REMARK  7 active torsions:
REMARK  status: ('A' for Active; 'I' for Inactive)
REMARK    1  A    between atoms: C_1  and  O_2
REMARK    2  A    between atoms: O_2  and  C_3
REMARK    3  A    between atoms: C_8  and  O_9
REMARK    4  A    between atoms: O_9  and  C_10
REMARK    5  A    between atoms: C_11  and  C_12
REMARK    6  A    between atoms: C_15  and  C_16
REMARK    7  A    between atoms: C_19  and  C_20
REMARK                            x       y       z     vdW  Elec       q    Type
REMARK                         _______ _______ _______ _____ _____    ______ ____
ROOT
ATOM      1  C   UNL     1       2.176   6.588  18.733  0.00  0.00    +0.000 A 
ATOM      2  C   UNL     1       2.206   7.952  18.395  0.00  0.00    +0.000 A 
ATOM      3  C   UNL     1       1.748   8.931  19.283  0.00  0.00    +0.000 A 
ATOM      4  C   UNL     1       1.293   8.537  20.552  0.00  0.00    +0.000 A 
ATOM      5  C   UNL     1       1.193   7.184  20.865  0.00  0.00    +0.000 A 
ATOM      6  C   UNL     1       1.617   6.198  19.960  0.00  0.00    +0.000 A 
ATOM      7  C   UNL     1       0.908   9.596  21.509  0.00  0.00    +0.000 C 
ATOM      8  C   UNL     1       0.740   9.368  22.986  0.00  0.00    +0.000 C 
ATOM      9  N   UNL     1       0.691  10.817  21.057  0.00  0.00    +0.000 N 
ATOM     10  O   UNL     1       0.367  11.775  21.847  0.00  0.00    +0.000 OA
ATOM     11  C   UNL     1       0.780  11.099  19.573  0.00  0.00    +0.000 C 
ATOM     12  N   UNL     1       1.852  10.297  18.933  0.00  0.00    +0.000 N 
ATOM     13  H   UNL     1       1.908  10.441  17.931  0.00  0.00    +0.000 HD
ENDROOT
BRANCH  11  14
ATOM     14  C   UNL     1      -0.549  10.877  18.834  0.00  0.00    +0.000 A 
ATOM     15  C   UNL     1      -0.659   9.998  17.742  0.00  0.00    +0.000 A 
ATOM     16  C   UNL     1      -1.843   9.897  17.015  0.00  0.00    +0.000 A 
ATOM     17  C   UNL     1      -2.960  10.668  17.356  0.00  0.00    +0.000 A 
ATOM     18  C   UNL     1      -4.213  10.595  16.541  0.00  0.00    +0.000 C 
ATOM     19  C   UNL     1      -2.884  11.498  18.478  0.00  0.00    +0.000 A 
ATOM     20  C   UNL     1      -1.697  11.595  19.213  0.00  0.00    +0.000 A 
ENDBRANCH  11  14
BRANCH   1  22
ATOM     21  C   UNL     1       4.073   5.422  17.909  0.00  0.00    +0.000 C 
ATOM     22  O   UNL     1       2.661   5.635  17.875  0.00  0.00    +0.000 OA
ENDBRANCH   1  22
BRANCH   6  23
ATOM     23  O   UNL     1       1.447   4.941  20.476  0.00  0.00    +0.000 OA
ATOM     24  C   UNL     1       2.479   4.345  21.241  0.00  0.00    +0.000 C 
ENDBRANCH   6  23
TORSDOF 3
ENDMDL
MODEL 6
REMARK VINA RESULT:      -6.5      7.030      9.120
REMARK  Name = 
REMARK  7 active torsions:
REMARK  status: ('A' for Active; 'I' for Inactive)
REMARK    1  A    between atoms: C_1  and  O_2
REMARK    2  A    between atoms: O_2  and  C_3
REMARK    3  A    between atoms: C_8  and  O_9
REMARK    4  A    between atoms: O_9  and  C_10
REMARK    5  A    between atoms: C_11  and  C_12
REMARK    6  A    between atoms: C_15  and  C_16
REMARK    7  A    between atoms: C_19  and  C_20
REMARK                            x       y       z     vdW  Elec       q    Type
REMARK                         _______ _______ _______ _____ _____    ______ ____
ROOT
ATOM      1  C   UNL     1      -2.477  10.326  17.158  0.00  0.00    +0.000 A 
ATOM      2  C   UNL     1      -1.283  10.106  17.867  0.00  0.00    +0.000 A 
ATOM      3  C   UNL     1      -1.025  10.759  19.076  0.00  0.00    +0.000 A 
ATOM      4  C   UNL     1      -2.004  11.614  19.608  0.00  0.00    +0.000 A 
ATOM      5  C   UNL     1      -3.156  11.892  18.877  0.00  0.00    +0.000 A 
ATOM      6  C   UNL     1      -3.400  11.266  17.644  0.00  0.00    +0.000 A 
ATOM      7  C   UNL     1      -1.752  12.215  20.936  0.00  0.00    +0.000 C 
ATOM      8  C   UNL     1      -2.819  12.853  21.781  0.00  0.00    +0.000 C 
ATOM      9  N   UNL     1      -0.523  12.202  21.419  0.00  0.00    +0.000 N 
ATOM     10  O   UNL     1      -0.253  12.698  22.572  0.00  0.00    +0.000 OA
ATOM     11  C   UNL     1       0.608  11.632  20.591  0.00  0.00    +0.000 C 
ATOM     12  N   UNL     1       0.158  10.465  19.791  0.00  0.00    +0.000 N 
ATOM     13  H   UNL     1       0.890  10.087  19.200  0.00  0.00    +0.000 HD
ENDROOT
BRANCH  11  14
ATOM     14  C   UNL     1       1.267  12.671  19.672  0.00  0.00    +0.000 A 
ATOM     15  C   UNL     1       2.170  12.306  18.657  0.00  0.00    +0.000 A 
ATOM     16  C   UNL     1       2.844  13.269  17.910  0.00  0.00    +0.000 A 
ATOM     17  C   UNL     1       2.636  14.633  18.148  0.00  0.00    +0.000 A 
ATOM     18  C   UNL     1       3.400  15.665  17.380  0.00  0.00    +0.000 C 
ATOM     19  C   UNL     1       1.694  15.010  19.110  0.00  0.00    +0.000 A 
ATOM     20  C   UNL     1       1.012  14.042  19.856  0.00  0.00    +0.000 A 
ENDBRANCH  11  14
BRANCH   1  22
ATOM     21  C   UNL     1      -2.906  10.466  14.827  0.00  0.00    +0.000 C 
ATOM     22  O   UNL     1      -2.742   9.656  15.992  0.00  0.00    +0.000 OA
ENDBRANCH   1  22
BRANCH   6  23
ATOM     23  O   UNL     1      -4.593  11.669  17.107  0.00  0.00    +0.000 OA
ATOM     24  C   UNL     1      -5.803  11.390  17.788  0.00  0.00    +0.000 C 
ENDBRANCH   6  23
TORSDOF 3
ENDMDL
MODEL 7
REMARK VINA RESULT:      -6.4      7.302     10.548
REMARK  Name = 
REMARK  7 active torsions:
REMARK  status: ('A' for Active; 'I' for Inactive)
REMARK    1  A    between atoms: C_1  and  O_2
REMARK    2  A    between atoms: O_2  and  C_3
REMARK    3  A    between atoms: C_8  and  O_9
REMARK    4  A    between atoms: O_9  and  C_10
REMARK    5  A    between atoms: C_11  and  C_12
REMARK    6  A    between atoms: C_15  and  C_16
REMARK    7  A    between atoms: C_19  and  C_20
REMARK                            x       y       z     vdW  Elec       q    Type
REMARK                         _______ _______ _______ _____ _____    ______ ____
ROOT
ATOM      1  C   UNL     1       6.189  13.051  23.517  0.00  0.00    +0.000 A 
ATOM      2  C   UNL     1       7.561  12.915  23.244  0.00  0.00    +0.000 A 
ATOM      3  C   UNL     1       8.171  13.633  22.211  0.00  0.00    +0.000 A 
ATOM      4  C   UNL     1       7.399  14.541  21.467  0.00  0.00    +0.000 A 
ATOM      5  C   UNL     1       6.027  14.627  21.685  0.00  0.00    +0.000 A 
ATOM      6  C   UNL     1       5.405  13.878  22.696  0.00  0.00    +0.000 A 
ATOM      7  C   UNL     1       8.086  15.362  20.448  0.00  0.00    +0.000 C 
ATOM      8  C   UNL     1       7.492  16.596  19.827  0.00  0.00    +0.000 C 
ATOM      9  N   UNL     1       9.292  15.002  20.045  0.00  0.00    +0.000 N 
ATOM     10  O   UNL     1       9.937  15.687  19.172  0.00  0.00    +0.000 OA
ATOM     11  C   UNL     1       9.920  13.735  20.582  0.00  0.00    +0.000 C 
ATOM     12  N   UNL     1       9.565  13.517  22.007  0.00  0.00    +0.000 N 
ATOM     13  H   UNL     1       9.945  12.655  22.380  0.00  0.00    +0.000 HD
ENDROOT
BRANCH  11  14
ATOM     14  C   UNL     1       9.565  12.488  19.759  0.00  0.00    +0.000 A 
ATOM     15  C   UNL     1       9.000  12.577  18.474  0.00  0.00    +0.000 A 
ATOM     16  C   UNL     1       8.579  11.438  17.791  0.00  0.00    +0.000 A 
ATOM     17  C   UNL     1       8.712  10.169  18.367  0.00  0.00    +0.000 A 
ATOM     18  C   UNL     1       8.211   8.953  17.653  0.00  0.00    +0.000 C 
ATOM     19  C   UNL     1       9.330  10.061  19.616  0.00  0.00    +0.000 A 
ATOM     20  C   UNL     1       9.758  11.205  20.300  0.00  0.00    +0.000 A 
ENDBRANCH  11  14
BRANCH   1  22
ATOM     21  C   UNL     1       6.470  11.551  25.335  0.00  0.00    +0.000 C 
ATOM     22  O   UNL     1       5.602  12.374  24.554  0.00  0.00    +0.000 OA
ENDBRANCH   1  22
BRANCH   6  23
ATOM     23  O   UNL     1       4.060  14.128  22.747  0.00  0.00    +0.000 OA
ATOM     24  C   UNL     1       3.488  15.091  21.880  0.00  0.00    +0.000 C 
ENDBRANCH   6  23
TORSDOF 3
ENDMDL
MODEL 8
REMARK VINA RESULT:      -6.3      7.470     10.908
REMARK  Name = 
REMARK  7 active torsions:
REMARK  status: ('A' for Active; 'I' for Inactive)
REMARK    1  A    between atoms: C_1  and  O_2
REMARK    2  A    between atoms: O_2  and  C_3
REMARK    3  A    between atoms: C_8  and  O_9
REMARK    4  A    between atoms: O_9  and  C_10
REMARK    5  A    between atoms: C_11  and  C_12
REMARK    6  A    between atoms: C_15  and  C_16
REMARK    7  A    between atoms: C_19  and  C_20
REMARK                            x       y       z     vdW  Elec       q    Type
REMARK                         _______ _______ _______ _____ _____    ______ ____
ROOT
ATOM      1  C   UNL     1      -0.552  11.790  20.954  0.00  0.00    +0.000 A 
ATOM      2  C   UNL     1      -1.421  12.644  20.253  0.00  0.00    +0.000 A 
ATOM      3  C   UNL     1      -2.462  13.315  20.902  0.00  0.00    +0.000 A 
ATOM      4  C   UNL     1      -2.606  13.162  22.291  0.00  0.00    +0.000 A 
ATOM      5  C   UNL     1      -1.794  12.263  22.979  0.00  0.00    +0.000 A 
ATOM      6  C   UNL     1      -0.773  11.559  22.321  0.00  0.00    +0.000 A 
ATOM      7  C   UNL     1      -3.649  13.959  22.972  0.00  0.00    +0.000 C 
ATOM      8  C   UNL     1      -3.701  14.173  24.459  0.00  0.00    +0.000 C 
ATOM      9  N   UNL     1      -4.600  14.517  22.245  0.00  0.00    +0.000 N 
ATOM     10  O   UNL     1      -5.522  15.229  22.785  0.00  0.00    +0.000 OA
ATOM     11  C   UNL     1      -4.642  14.287  20.751  0.00  0.00    +0.000 C 
ATOM     12  N   UNL     1      -3.275  14.214  20.176  0.00  0.00    +0.000 N 
ATOM     13  H   UNL     1      -3.277  14.024  19.180  0.00  0.00    +0.000 HD
ENDROOT
BRANCH  11  14
ATOM     14  C   UNL     1      -5.443  13.037  20.354  0.00  0.00    +0.000 A 
ATOM     15  C   UNL     1      -6.446  12.499  21.180  0.00  0.00    +0.000 A 
ATOM     16  C   UNL     1      -7.081  11.302  20.856  0.00  0.00    +0.000 A 
ATOM     17  C   UNL     1      -6.738  10.602  19.694  0.00  0.00    +0.000 A 
ATOM     18  C   UNL     1      -7.385   9.291  19.376  0.00  0.00    +0.000 C 
ATOM     19  C   UNL     1      -5.788  11.159  18.832  0.00  0.00    +0.000 A 
ATOM     20  C   UNL     1      -5.155  12.364  19.153  0.00  0.00    +0.000 A 
ENDBRANCH  11  14
BRANCH   1  22
ATOM     21  C   UNL     1       0.133  10.151  19.379  0.00  0.00    +0.000 C 
ATOM     22  O   UNL     1       0.490  11.164  20.321  0.00  0.00    +0.000 OA
ENDBRANCH   1  22
BRANCH   6  23
ATOM     23  O   UNL     1      -0.090  10.747  23.186  0.00  0.00    +0.000 OA
ATOM     24  C   UNL     1      -0.214   9.340  23.079  0.00  0.00    +0.000 C 
ENDBRANCH   6  23
TORSDOF 3
ENDMDL
MODEL 9
REMARK VINA RESULT:      -6.3      7.578     11.490
REMARK  Name = 
REMARK  7 active torsions:
REMARK  status: ('A' for Active; 'I' for Inactive)
REMARK    1  A    between atoms: C_1  and  O_2
REMARK    2  A    between atoms: O_2  and  C_3
REMARK    3  A    between atoms: C_8  and  O_9
REMARK    4  A    between atoms: O_9  and  C_10
REMARK    5  A    between atoms: C_11  and  C_12
REMARK    6  A    between atoms: C_15  and  C_16
REMARK    7  A    between atoms: C_19  and  C_20
REMARK                            x       y       z     vdW  Elec       q    Type
REMARK                         _______ _______ _______ _____ _____    ______ ____
ROOT
ATOM      1  C   UNL     1      -6.213  13.142  21.678  0.00  0.00    +0.000 A 
ATOM      2  C   UNL     1      -4.928  13.654  21.423  0.00  0.00    +0.000 A 
ATOM      3  C   UNL     1      -4.145  13.163  20.374  0.00  0.00    +0.000 A 
ATOM      4  C   UNL     1      -4.679  12.171  19.535  0.00  0.00    +0.000 A 
ATOM      5  C   UNL     1      -5.920  11.610  19.825  0.00  0.00    +0.000 A 
ATOM      6  C   UNL     1      -6.692  12.075  20.902  0.00  0.00    +0.000 A 
ATOM      7  C   UNL     1      -3.874  11.740  18.372  0.00  0.00    +0.000 C 
ATOM      8  C   UNL     1      -4.431  10.966  17.210  0.00  0.00    +0.000 C 
ATOM      9  N   UNL     1      -2.588  12.039  18.341  0.00  0.00    +0.000 N 
ATOM     10  O   UNL     1      -1.847  11.700  17.349  0.00  0.00    +0.000 OA
ATOM     11  C   UNL     1      -1.952  12.760  19.509  0.00  0.00    +0.000 C 
ATOM     12  N   UNL     1      -2.885  13.746  20.110  0.00  0.00    +0.000 N 
ATOM     13  H   UNL     1      -2.494  14.216  20.918  0.00  0.00    +0.000 HD
ENDROOT
BRANCH  11  14
ATOM     14  C   UNL     1      -1.429  11.807  20.595  0.00  0.00    +0.000 A 
ATOM     15  C   UNL     1      -1.581  12.082  21.966  0.00  0.00    +0.000 A 
ATOM     16  C   UNL     1      -1.000  11.265  22.933  0.00  0.00    +0.000 A 
ATOM     17  C   UNL     1      -0.252  10.141  22.565  0.00  0.00    +0.000 A 
ATOM     18  C   UNL     1       0.414   9.295  23.604  0.00  0.00    +0.000 C 
ATOM     19  C   UNL     1      -0.147   9.821  21.208  0.00  0.00    +0.000 A 
ATOM     20  C   UNL     1      -0.735  10.638  20.236  0.00  0.00    +0.000 A 
ENDBRANCH  11  14
BRANCH   1  22
ATOM     21  C   UNL     1      -7.854  14.731  22.324  0.00  0.00    +0.000 C 
ATOM     22  O   UNL     1      -6.991  13.651  22.685  0.00  0.00    +0.000 OA
ENDBRANCH   1  22
BRANCH   6  23
ATOM     23  O   UNL     1      -7.878  11.398  20.994  0.00  0.00    +0.000 OA
ATOM     24  C   UNL     1      -7.917  10.004  20.747  0.00  0.00    +0.000 C 
ENDBRANCH   6  23
TORSDOF 3
ENDMDL
