MODEL 1
REMARK VINA RESULT:      -8.0      0.000      0.000
REMARK  Name = 
REMARK  7 active torsions:
REMARK  status: ('A' for Active; 'I' for Inactive)
REMARK    1  A    between atoms: C_1  and  N_2
REMARK    2  A    between atoms: N_2  and  C_3
REMARK    3  A    between atoms: N_2  and  C_4
REMARK    4  A    between atoms: C_7  and  C_8
REMARK    5  A    between atoms: C_9  and  C_10
REMARK    6  A    between atoms: C_21  and  C_22
REMARK    7  A    between atoms: N_28  and  C_29
REMARK                            x       y       z     vdW  Elec       q    Type
REMARK                         _______ _______ _______ _____ _____    ______ ____
ROOT
ATOM      1  C   UNL     1      10.160  11.997  17.848  0.00  0.00    +0.000 C 
ATOM      2  C   UNL     1      10.747  12.749  18.785  0.00  0.00    +0.000 A 
ATOM      3  C   UNL     1      11.307  14.116  18.603  0.00  0.00    +0.000 A 
ATOM      4  C   UNL     1      11.836  14.773  17.513  0.00  0.00    +0.000 A 
ATOM      5  C   UNL     1      12.333  16.070  17.712  0.00  0.00    +0.000 A 
ATOM      6  C   UNL     1      12.308  16.693  18.983  0.00  0.00    +0.000 A 
ATOM      7  C   UNL     1      11.787  16.033  20.096  0.00  0.00    +0.000 A 
ATOM      8  C   UNL     1      11.312  14.767  19.861  0.00  0.00    +0.000 A 
ATOM      9  N   UNL     1      10.758  13.843  20.825  0.00  0.00    +0.000 N 
ATOM     10  C   UNL     1      10.584  12.570  20.255  0.00  0.00    +0.000 A 
ATOM     11  C   UNL     1       9.862  11.726  21.139  0.00  0.00    +0.000 A 
ATOM     12  C   UNL     1       9.376  12.657  22.170  0.00  0.00    +0.000 A 
ATOM     13  N   UNL     1       9.891  13.989  21.834  0.00  0.00    +0.000 N 
ATOM     14  C   UNL     1       9.133  15.243  21.947  0.00  0.00    +0.000 C 
ENDROOT
BRANCH  12  15
ATOM     15  C   UNL     1       8.369  12.324  23.217  0.00  0.00    +0.000 A 
ATOM     16  C   UNL     1       8.731  12.314  24.562  0.00  0.00    +0.000 A 
ATOM     17  C   UNL     1       7.772  12.055  25.537  0.00  0.00    +0.000 A 
ATOM     18  C   UNL     1       6.446  11.799  25.167  0.00  0.00    +0.000 A 
ATOM     19  C   UNL     1       6.082  11.802  23.830  0.00  0.00    +0.000 A 
ATOM     20  C   UNL     1       7.037  12.058  22.844  0.00  0.00    +0.000 A 
ENDBRANCH  12  15
BRANCH   1  22
ATOM     21  C   UNL     1       8.557  10.197  18.395  0.00  0.00    +0.000 C 
ATOM     22  C   UNL     1       9.769  10.617  18.004  0.00  0.00    +0.000 C 
BRANCH  21  26
ATOM     23  C   UNL     1       7.107   6.147  17.818  0.00  0.00    +0.000 A 
ATOM     24  C   UNL     1       8.079   6.458  18.785  0.00  0.00    +0.000 A 
ATOM     25  C   UNL     1       8.578   7.763  18.961  0.00  0.00    +0.000 A 
ATOM     26  C   UNL     1       8.115   8.809  18.168  0.00  0.00    +0.000 A 
ATOM     27  C   UNL     1       7.117   8.528  17.231  0.00  0.00    +0.000 A 
ATOM     28  C   UNL     1       6.630   7.226  17.062  0.00  0.00    +0.000 A 
BRANCH  23  30
ATOM     29  C   UNL     1       6.660   4.225  16.321  0.00  0.00    +0.000 C 
ATOM     30  N   UNL     1       6.608   4.857  17.635  0.00  0.00    +0.000 N 
ATOM     31  C   UNL     1       5.584   4.363  18.556  0.00  0.00    +0.000 C 
ENDBRANCH  23  30
ENDBRANCH  21  26
ENDBRANCH   1  22
TORSDOF 4
ENDMDL
MODEL 2
REMARK VINA RESULT:      -7.8      7.107     10.151
REMARK  Name = 
REMARK  7 active torsions:
REMARK  status: ('A' for Active; 'I' for Inactive)
REMARK    1  A    between atoms: C_1  and  N_2
REMARK    2  A    between atoms: N_2  and  C_3
REMARK    3  A    between atoms: N_2  and  C_4
REMARK    4  A    between atoms: C_7  and  C_8
REMARK    5  A    between atoms: C_9  and  C_10
REMARK    6  A    between atoms: C_21  and  C_22
REMARK    7  A    between atoms: N_28  and  C_29
REMARK                            x       y       z     vdW  Elec       q    Type
REMARK                         _______ _______ _______ _____ _____    ______ ____
ROOT
ATOM      1  C   UNL     1      -0.400  10.396  21.918  0.00  0.00    +0.000 C 
ATOM      2  C   UNL     1      -1.059  11.516  21.607  0.00  0.00    +0.000 A 
ATOM      3  C   UNL     1      -2.008  12.258  22.481  0.00  0.00    +0.000 A 
ATOM      4  C   UNL     1      -2.834  11.865  23.511  0.00  0.00    +0.000 A 
ATOM      5  C   UNL     1      -3.657  12.841  24.096  0.00  0.00    +0.000 A 
ATOM      6  C   UNL     1      -3.656  14.184  23.649  0.00  0.00    +0.000 A 
ATOM      7  C   UNL     1      -2.834  14.590  22.597  0.00  0.00    +0.000 A 
ATOM      8  C   UNL     1      -2.046  13.608  22.053  0.00  0.00    +0.000 A 
ATOM      9  N   UNL     1      -1.134  13.731  20.937  0.00  0.00    +0.000 N 
ATOM     10  C   UNL     1      -0.671  12.468  20.528  0.00  0.00    +0.000 A 
ATOM     11  C   UNL     1       0.367  12.608  19.570  0.00  0.00    +0.000 A 
ATOM     12  C   UNL     1       0.686  14.044  19.627  0.00  0.00    +0.000 A 
ATOM     13  N   UNL     1      -0.230  14.655  20.596  0.00  0.00    +0.000 N 
ATOM     14  C   UNL     1       0.141  15.685  21.577  0.00  0.00    +0.000 C 
ENDROOT
BRANCH  12  15
ATOM     15  C   UNL     1       1.866  14.683  18.982  0.00  0.00    +0.000 A 
ATOM     16  C   UNL     1       3.060  13.979  18.847  0.00  0.00    +0.000 A 
ATOM     17  C   UNL     1       4.141  14.565  18.193  0.00  0.00    +0.000 A 
ATOM     18  C   UNL     1       4.030  15.861  17.678  0.00  0.00    +0.000 A 
ATOM     19  C   UNL     1       2.847  16.569  17.814  0.00  0.00    +0.000 A 
ATOM     20  C   UNL     1       1.757  15.991  18.469  0.00  0.00    +0.000 A 
ENDBRANCH  12  15
BRANCH   1  22
ATOM     21  C   UNL     1       1.167   8.570  21.352  0.00  0.00    +0.000 C 
ATOM     22  C   UNL     1       0.389   9.606  21.004  0.00  0.00    +0.000 C 
BRANCH  21  26
ATOM     23  C   UNL     1       2.691   5.678  18.497  0.00  0.00    +0.000 A 
ATOM     24  C   UNL     1       2.607   7.048  18.194  0.00  0.00    +0.000 A 
ATOM     25  C   UNL     1       2.087   7.991  19.101  0.00  0.00    +0.000 A 
ATOM     26  C   UNL     1       1.631   7.589  20.354  0.00  0.00    +0.000 A 
ATOM     27  C   UNL     1       1.749   6.238  20.690  0.00  0.00    +0.000 A 
ATOM     28  C   UNL     1       2.263   5.308  19.780  0.00  0.00    +0.000 A 
BRANCH  23  30
ATOM     29  C   UNL     1       2.507   3.472  17.385  0.00  0.00    +0.000 C 
ATOM     30  N   UNL     1       3.203   4.735  17.604  0.00  0.00    +0.000 N 
ATOM     31  C   UNL     1       4.637   4.749  17.315  0.00  0.00    +0.000 C 
ENDBRANCH  23  30
ENDBRANCH  21  26
ENDBRANCH   1  22
TORSDOF 4
ENDMDL
MODEL 3
REMARK VINA RESULT:      -7.8      6.607      9.682
REMARK  Name = 
REMARK  7 active torsions:
REMARK  status: ('A' for Active; 'I' for Inactive)
REMARK    1  A    between atoms: C_1  and  N_2
REMARK    2  A    between atoms: N_2  and  C_3
REMARK    3  A    between atoms: N_2  and  C_4
REMARK    4  A    between atoms: C_7  and  C_8
REMARK    5  A    between atoms: C_9  and  C_10
REMARK    6  A    between atoms: C_21  and  C_22
REMARK    7  A    between atoms: N_28  and  C_29
REMARK                            x       y       z     vdW  Elec       q    Type
REMARK                         _______ _______ _______ _____ _____    ______ ____
ROOT
ATOM      1  C   UNL     1       0.050  10.300  22.429  0.00  0.00    +0.000 C 
ATOM      2  C   UNL     1      -0.564  11.365  21.904  0.00  0.00    +0.000 A 
ATOM      3  C   UNL     1      -1.665  12.150  22.526  0.00  0.00    +0.000 A 
ATOM      4  C   UNL     1      -2.652  11.824  23.431  0.00  0.00    +0.000 A 
ATOM      5  C   UNL     1      -3.581  12.820  23.769  0.00  0.00    +0.000 A 
ATOM      6  C   UNL     1      -3.527  14.116  23.204  0.00  0.00    +0.000 A 
ATOM      7  C   UNL     1      -2.541  14.454  22.276  0.00  0.00    +0.000 A 
ATOM      8  C   UNL     1      -1.652  13.453  21.971  0.00  0.00    +0.000 A 
ATOM      9  N   UNL     1      -0.561  13.506  21.023  0.00  0.00    +0.000 N 
ATOM     10  C   UNL     1      -0.011  12.228  20.822  0.00  0.00    +0.000 A 
ATOM     11  C   UNL     1       1.176  12.316  20.049  0.00  0.00    +0.000 A 
ATOM     12  C   UNL     1       1.454  13.761  20.024  0.00  0.00    +0.000 A 
ATOM     13  N   UNL     1       0.372  14.427  20.758  0.00  0.00    +0.000 N 
ATOM     14  C   UNL     1       0.548  15.552  21.686  0.00  0.00    +0.000 C 
ENDROOT
BRANCH  12  15
ATOM     15  C   UNL     1       2.718  14.380  19.534  0.00  0.00    +0.000 A 
ATOM     16  C   UNL     1       3.796  14.554  20.398  0.00  0.00    +0.000 A 
ATOM     17  C   UNL     1       4.992  15.083  19.919  0.00  0.00    +0.000 A 
ATOM     18  C   UNL     1       5.109  15.444  18.572  0.00  0.00    +0.000 A 
ATOM     19  C   UNL     1       4.038  15.278  17.709  0.00  0.00    +0.000 A 
ATOM     20  C   UNL     1       2.833  14.750  18.180  0.00  0.00    +0.000 A 
ENDBRANCH  12  15
BRANCH   1  22
ATOM     21  C   UNL     1       0.786   8.184  21.384  0.00  0.00    +0.000 C 
ATOM     22  C   UNL     1       1.001   9.458  21.744  0.00  0.00    +0.000 C 
BRANCH  21  26
ATOM     23  C   UNL     1       3.120   6.209  18.305  0.00  0.00    +0.000 A 
ATOM     24  C   UNL     1       2.675   5.529  19.452  0.00  0.00    +0.000 A 
ATOM     25  C   UNL     1       1.943   6.166  20.471  0.00  0.00    +0.000 A 
ATOM     26  C   UNL     1       1.627   7.519  20.374  0.00  0.00    +0.000 A 
ATOM     27  C   UNL     1       2.022   8.201  19.220  0.00  0.00    +0.000 A 
ATOM     28  C   UNL     1       2.754   7.559  18.214  0.00  0.00    +0.000 A 
BRANCH  23  30
ATOM     29  C   UNL     1       3.897   4.131  17.202  0.00  0.00    +0.000 C 
ATOM     30  N   UNL     1       3.848   5.587  17.290  0.00  0.00    +0.000 N 
ATOM     31  C   UNL     1       4.958   6.315  16.675  0.00  0.00    +0.000 C 
ENDBRANCH  23  30
ENDBRANCH  21  26
ENDBRANCH   1  22
TORSDOF 4
ENDMDL
MODEL 4
REMARK VINA RESULT:      -7.8      7.302     10.345
REMARK  Name = 
REMARK  7 active torsions:
REMARK  status: ('A' for Active; 'I' for Inactive)
REMARK    1  A    between atoms: C_1  and  N_2
REMARK    2  A    between atoms: N_2  and  C_3
REMARK    3  A    between atoms: N_2  and  C_4
REMARK    4  A    between atoms: C_7  and  C_8
REMARK    5  A    between atoms: C_9  and  C_10
REMARK    6  A    between atoms: C_21  and  C_22
REMARK    7  A    between atoms: N_28  and  C_29
REMARK                            x       y       z     vdW  Elec       q    Type
REMARK                         _______ _______ _______ _____ _____    ______ ____
ROOT
ATOM      1  C   UNL     1      -0.423  10.668  22.686  0.00  0.00    +0.000 C 
ATOM      2  C   UNL     1      -1.164  11.592  22.067  0.00  0.00    +0.000 A 
ATOM      3  C   UNL     1      -2.274  12.384  22.663  0.00  0.00    +0.000 A 
ATOM      4  C   UNL     1      -3.155  12.132  23.692  0.00  0.00    +0.000 A 
ATOM      5  C   UNL     1      -4.136  13.101  23.961  0.00  0.00    +0.000 A 
ATOM      6  C   UNL     1      -4.235  14.294  23.207  0.00  0.00    +0.000 A 
ATOM      7  C   UNL     1      -3.357  14.552  22.154  0.00  0.00    +0.000 A 
ATOM      8  C   UNL     1      -2.414  13.583  21.922  0.00  0.00    +0.000 A 
ATOM      9  N   UNL     1      -1.410  13.565  20.881  0.00  0.00    +0.000 N 
ATOM     10  C   UNL     1      -0.772  12.313  20.823  0.00  0.00    +0.000 A 
ATOM     11  C   UNL     1       0.339  12.365  19.941  0.00  0.00    +0.000 A 
ATOM     12  C   UNL     1       0.492  13.805  19.676  0.00  0.00    +0.000 A 
ATOM     13  N   UNL     1      -0.581  14.497  20.398  0.00  0.00    +0.000 N 
ATOM     14  C   UNL     1      -0.428  15.763  21.129  0.00  0.00    +0.000 C 
ENDROOT
BRANCH  12  15
ATOM     15  C   UNL     1       1.656  14.428  18.987  0.00  0.00    +0.000 A 
ATOM     16  C   UNL     1       1.589  15.748  18.549  0.00  0.00    +0.000 A 
ATOM     17  C   UNL     1       2.701  16.339  17.955  0.00  0.00    +0.000 A 
ATOM     18  C   UNL     1       3.883  15.607  17.793  0.00  0.00    +0.000 A 
ATOM     19  C   UNL     1       3.954  14.292  18.222  0.00  0.00    +0.000 A 
ATOM     20  C   UNL     1       2.844  13.688  18.818  0.00  0.00    +0.000 A 
ENDBRANCH  12  15
BRANCH   1  22
ATOM     21  C   UNL     1       0.245   8.653  21.420  0.00  0.00    +0.000 C 
ATOM     22  C   UNL     1       0.538   9.799  22.050  0.00  0.00    +0.000 C 
BRANCH  21  26
ATOM     23  C   UNL     1       2.905   6.768  18.555  0.00  0.00    +0.000 A 
ATOM     24  C   UNL     1       2.502   6.118  19.734  0.00  0.00    +0.000 A 
ATOM     25  C   UNL     1       1.663   6.730  20.685  0.00  0.00    +0.000 A 
ATOM     26  C   UNL     1       1.195   8.026  20.483  0.00  0.00    +0.000 A 
ATOM     27  C   UNL     1       1.549   8.672  19.295  0.00  0.00    +0.000 A 
ATOM     28  C   UNL     1       2.387   8.055  18.359  0.00  0.00    +0.000 A 
BRANCH  23  30
ATOM     29  C   UNL     1       3.743   4.721  17.439  0.00  0.00    +0.000 C 
ATOM     30  N   UNL     1       3.738   6.170  17.608  0.00  0.00    +0.000 N 
ATOM     31  C   UNL     1       4.946   6.880  17.187  0.00  0.00    +0.000 C 
ENDBRANCH  23  30
ENDBRANCH  21  26
ENDBRANCH   1  22
TORSDOF 4
ENDMDL
MODEL 5
REMARK VINA RESULT:      -7.7      6.374      9.549
REMARK  Name = 
REMARK  7 active torsions:
REMARK  status: ('A' for Active; 'I' for Inactive)
REMARK    1  A    between atoms: C_1  and  N_2
REMARK    2  A    between atoms: N_2  and  C_3
REMARK    3  A    between atoms: N_2  and  C_4
REMARK    4  A    between atoms: C_7  and  C_8
REMARK    5  A    between atoms: C_9  and  C_10
REMARK    6  A    between atoms: C_21  and  C_22
REMARK    7  A    between atoms: N_28  and  C_29
REMARK                            x       y       z     vdW  Elec       q    Type
REMARK                         _______ _______ _______ _____ _____    ______ ____
ROOT
ATOM      1  C   UNL     1       0.225  10.083  22.304  0.00  0.00    +0.000 C 
ATOM      2  C   UNL     1      -0.368  11.190  21.845  0.00  0.00    +0.000 A 
ATOM      3  C   UNL     1      -1.438  11.969  22.523  0.00  0.00    +0.000 A 
ATOM      4  C   UNL     1      -2.422  11.621  23.424  0.00  0.00    +0.000 A 
ATOM      5  C   UNL     1      -3.320  12.622  23.828  0.00  0.00    +0.000 A 
ATOM      6  C   UNL     1      -3.238  13.944  23.330  0.00  0.00    +0.000 A 
ATOM      7  C   UNL     1      -2.256  14.304  22.407  0.00  0.00    +0.000 A 
ATOM      8  C   UNL     1      -1.398  13.299  22.038  0.00  0.00    +0.000 A 
ATOM      9  N   UNL     1      -0.319  13.374  21.078  0.00  0.00    +0.000 N 
ATOM     10  C   UNL     1       0.194  12.094  20.802  0.00  0.00    +0.000 A 
ATOM     11  C   UNL     1       1.373  12.193  20.017  0.00  0.00    +0.000 A 
ATOM     12  C   UNL     1       1.689  13.629  20.064  0.00  0.00    +0.000 A 
ATOM     13  N   UNL     1       0.635  14.283  20.848  0.00  0.00    +0.000 N 
ATOM     14  C   UNL     1       0.852  15.353  21.831  0.00  0.00    +0.000 C 
ENDROOT
BRANCH  12  15
ATOM     15  C   UNL     1       2.962  14.240  19.589  0.00  0.00    +0.000 A 
ATOM     16  C   UNL     1       3.122  14.576  18.248  0.00  0.00    +0.000 A 
ATOM     17  C   UNL     1       4.294  15.196  17.822  0.00  0.00    +0.000 A 
ATOM     18  C   UNL     1       5.313  15.476  18.741  0.00  0.00    +0.000 A 
ATOM     19  C   UNL     1       5.161  15.139  20.075  0.00  0.00    +0.000 A 
ATOM     20  C   UNL     1       3.991  14.515  20.512  0.00  0.00    +0.000 A 
ENDBRANCH  12  15
BRANCH   1  22
ATOM     21  C   UNL     1       0.890   8.008  21.138  0.00  0.00    +0.000 C 
ATOM     22  C   UNL     1       1.144   9.255  21.562  0.00  0.00    +0.000 C 
BRANCH  21  26
ATOM     23  C   UNL     1       3.422   6.171  18.130  0.00  0.00    +0.000 A 
ATOM     24  C   UNL     1       2.972   7.498  18.013  0.00  0.00    +0.000 A 
ATOM     25  C   UNL     1       2.126   8.094  18.967  0.00  0.00    +0.000 A 
ATOM     26  C   UNL     1       1.701   7.376  20.082  0.00  0.00    +0.000 A 
ATOM     27  C   UNL     1       2.174   6.070  20.238  0.00  0.00    +0.000 A 
ATOM     28  C   UNL     1       3.011   5.485  19.281  0.00  0.00    +0.000 A 
BRANCH  23  30
ATOM     29  C   UNL     1       4.515   4.135  17.238  0.00  0.00    +0.000 C 
ATOM     30  N   UNL     1       4.259   5.570  17.188  0.00  0.00    +0.000 N 
ATOM     31  C   UNL     1       5.270   6.391  16.523  0.00  0.00    +0.000 C 
ENDBRANCH  23  30
ENDBRANCH  21  26
ENDBRANCH   1  22
TORSDOF 4
ENDMDL
MODEL 6
REMARK VINA RESULT:      -7.7      6.629      9.808
REMARK  Name = 
REMARK  7 active torsions:
REMARK  status: ('A' for Active; 'I' for Inactive)
REMARK    1  A    between atoms: C_1  and  N_2
REMARK    2  A    between atoms: N_2  and  C_3
REMARK    3  A    between atoms: N_2  and  C_4
REMARK    4  A    between atoms: C_7  and  C_8
REMARK    5  A    between atoms: C_9  and  C_10
REMARK    6  A    between atoms: C_21  and  C_22
REMARK    7  A    between atoms: N_28  and  C_29
REMARK                            x       y       z     vdW  Elec       q    Type
REMARK                         _______ _______ _______ _____ _____    ______ ____
ROOT
ATOM      1  C   UNL     1      -0.272  10.171  22.826  0.00  0.00    +0.000 C 
ATOM      2  C   UNL     1      -0.796  11.245  22.226  0.00  0.00    +0.000 A 
ATOM      3  C   UNL     1      -1.881  12.115  22.755  0.00  0.00    +0.000 A 
ATOM      4  C   UNL     1      -2.930  11.883  23.617  0.00  0.00    +0.000 A 
ATOM      5  C   UNL     1      -3.817  12.943  23.864  0.00  0.00    +0.000 A 
ATOM      6  C   UNL     1      -3.660  14.208  23.249  0.00  0.00    +0.000 A 
ATOM      7  C   UNL     1      -2.609  14.450  22.364  0.00  0.00    +0.000 A 
ATOM      8  C   UNL     1      -1.765  13.390  22.149  0.00  0.00    +0.000 A 
ATOM      9  N   UNL     1      -0.625  13.341  21.259  0.00  0.00    +0.000 N 
ATOM     10  C   UNL     1      -0.139  12.027  21.141  0.00  0.00    +0.000 A 
ATOM     11  C   UNL     1       1.089  12.016  20.430  0.00  0.00    +0.000 A 
ATOM     12  C   UNL     1       1.451  13.441  20.361  0.00  0.00    +0.000 A 
ATOM     13  N   UNL     1       0.372  14.197  21.008  0.00  0.00    +0.000 N 
ATOM     14  C   UNL     1       0.563  15.351  21.897  0.00  0.00    +0.000 C 
ENDROOT
BRANCH  12  15
ATOM     15  C   UNL     1       2.771  13.967  19.916  0.00  0.00    +0.000 A 
ATOM     16  C   UNL     1       3.050  14.107  18.559  0.00  0.00    +0.000 A 
ATOM     17  C   UNL     1       4.266  14.650  18.152  0.00  0.00    +0.000 A 
ATOM     18  C   UNL     1       5.209  15.051  19.106  0.00  0.00    +0.000 A 
ATOM     19  C   UNL     1       4.940  14.909  20.457  0.00  0.00    +0.000 A 
ATOM     20  C   UNL     1       3.724  14.363  20.876  0.00  0.00    +0.000 A 
ENDBRANCH  12  15
BRANCH   1  22
ATOM     21  C   UNL     1       0.331   8.125  21.578  0.00  0.00    +0.000 C 
ATOM     22  C   UNL     1       0.663   9.249  22.228  0.00  0.00    +0.000 C 
BRANCH  21  26
ATOM     23  C   UNL     1       3.005   6.112  18.815  0.00  0.00    +0.000 A 
ATOM     24  C   UNL     1       2.406   5.438  19.894  0.00  0.00    +0.000 A 
ATOM     25  C   UNL     1       1.561   6.088  20.813  0.00  0.00    +0.000 A 
ATOM     26  C   UNL     1       1.283   7.446  20.681  0.00  0.00    +0.000 A 
ATOM     27  C   UNL     1       1.833   8.122  19.589  0.00  0.00    +0.000 A 
ATOM     28  C   UNL     1       2.676   7.468  18.683  0.00  0.00    +0.000 A 
BRANCH  23  30
ATOM     29  C   UNL     1       4.681   6.263  16.998  0.00  0.00    +0.000 C 
ATOM     30  N   UNL     1       3.846   5.478  17.900  0.00  0.00    +0.000 N 
ATOM     31  C   UNL     1       3.516   4.120  17.467  0.00  0.00    +0.000 C 
ENDBRANCH  23  30
ENDBRANCH  21  26
ENDBRANCH   1  22
TORSDOF 4
ENDMDL
MODEL 7
REMARK VINA RESULT:      -7.7      6.672      9.775
REMARK  Name = 
REMARK  7 active torsions:
REMARK  status: ('A' for Active; 'I' for Inactive)
REMARK    1  A    between atoms: C_1  and  N_2
REMARK    2  A    between atoms: N_2  and  C_3
REMARK    3  A    between atoms: N_2  and  C_4
REMARK    4  A    between atoms: C_7  and  C_8
REMARK    5  A    between atoms: C_9  and  C_10
REMARK    6  A    between atoms: C_21  and  C_22
REMARK    7  A    between atoms: N_28  and  C_29
REMARK                            x       y       z     vdW  Elec       q    Type
REMARK                         _______ _______ _______ _____ _____    ______ ____
ROOT
ATOM      1  C   UNL     1      -0.368  10.188  21.887  0.00  0.00    +0.000 C 
ATOM      2  C   UNL     1      -0.849  11.406  21.613  0.00  0.00    +0.000 A 
ATOM      3  C   UNL     1      -1.772  12.206  22.462  0.00  0.00    +0.000 A 
ATOM      4  C   UNL     1      -2.733  11.857  23.386  0.00  0.00    +0.000 A 
ATOM      5  C   UNL     1      -3.476  12.892  23.977  0.00  0.00    +0.000 A 
ATOM      6  C   UNL     1      -3.264  14.250  23.640  0.00  0.00    +0.000 A 
ATOM      7  C   UNL     1      -2.304  14.614  22.695  0.00  0.00    +0.000 A 
ATOM      8  C   UNL     1      -1.600  13.575  22.141  0.00  0.00    +0.000 A 
ATOM      9  N   UNL     1      -0.581  13.651  21.117  0.00  0.00    +0.000 N 
ATOM     10  C   UNL     1      -0.246  12.368  20.649  0.00  0.00    +0.000 A 
ATOM     11  C   UNL     1       0.885  12.434  19.794  0.00  0.00    +0.000 A 
ATOM     12  C   UNL     1       1.377  13.807  19.992  0.00  0.00    +0.000 A 
ATOM     13  N   UNL     1       0.461  14.468  20.928  0.00  0.00    +0.000 N 
ATOM     14  C   UNL     1       0.868  15.369  22.015  0.00  0.00    +0.000 C 
ENDROOT
BRANCH  12  15
ATOM     15  C   UNL     1       2.683  14.326  19.499  0.00  0.00    +0.000 A 
ATOM     16  C   UNL     1       2.836  14.689  18.163  0.00  0.00    +0.000 A 
ATOM     17  C   UNL     1       4.044  15.224  17.722  0.00  0.00    +0.000 A 
ATOM     18  C   UNL     1       5.105  15.393  18.620  0.00  0.00    +0.000 A 
ATOM     19  C   UNL     1       4.961  15.028  19.948  0.00  0.00    +0.000 A 
ATOM     20  C   UNL     1       3.754  14.488  20.400  0.00  0.00    +0.000 A 
ENDBRANCH  12  15
BRANCH   1  22
ATOM     21  C   UNL     1       1.331   8.477  21.347  0.00  0.00    +0.000 C 
ATOM     22  C   UNL     1       0.395   9.365  20.981  0.00  0.00    +0.000 C 
BRANCH  21  26
ATOM     23  C   UNL     1       2.523   5.381  18.549  0.00  0.00    +0.000 A 
ATOM     24  C   UNL     1       2.010   5.075  19.822  0.00  0.00    +0.000 A 
ATOM     25  C   UNL     1       1.648   6.071  20.748  0.00  0.00    +0.000 A 
ATOM     26  C   UNL     1       1.788   7.419  20.428  0.00  0.00    +0.000 A 
ATOM     27  C   UNL     1       2.254   7.743  19.151  0.00  0.00    +0.000 A 
ATOM     28  C   UNL     1       2.615   6.745  18.238  0.00  0.00    +0.000 A 
BRANCH  23  30
ATOM     29  C   UNL     1       2.271   3.080  17.668  0.00  0.00    +0.000 C 
ATOM     30  N   UNL     1       2.887   4.401  17.624  0.00  0.00    +0.000 N 
ATOM     31  C   UNL     1       4.203   4.487  16.992  0.00  0.00    +0.000 C 
ENDBRANCH  23  30
ENDBRANCH  21  26
ENDBRANCH   1  22
TORSDOF 4
ENDMDL
MODEL 8
REMARK VINA RESULT:      -7.7      1.055      1.494
REMARK  Name = 
REMARK  7 active torsions:
REMARK  status: ('A' for Active; 'I' for Inactive)
REMARK    1  A    between atoms: C_1  and  N_2
REMARK    2  A    between atoms: N_2  and  C_3
REMARK    3  A    between atoms: N_2  and  C_4
REMARK    4  A    between atoms: C_7  and  C_8
REMARK    5  A    between atoms: C_9  and  C_10
REMARK    6  A    between atoms: C_21  and  C_22
REMARK    7  A    between atoms: N_28  and  C_29
REMARK                            x       y       z     vdW  Elec       q    Type
REMARK                         _______ _______ _______ _____ _____    ______ ____
ROOT
ATOM      1  C   UNL     1       8.965  10.844  17.792  0.00  0.00    +0.000 C 
ATOM      2  C   UNL     1       9.839  11.474  18.583  0.00  0.00    +0.000 A 
ATOM      3  C   UNL     1      10.688  12.640  18.216  0.00  0.00    +0.000 A 
ATOM      4  C   UNL     1      11.210  13.077  17.017  0.00  0.00    +0.000 A 
ATOM      5  C   UNL     1      12.033  14.214  17.041  0.00  0.00    +0.000 A 
ATOM      6  C   UNL     1      12.333  14.894  18.245  0.00  0.00    +0.000 A 
ATOM      7  C   UNL     1      11.821  14.453  19.465  0.00  0.00    +0.000 A 
ATOM      8  C   UNL     1      11.023  13.339  19.401  0.00  0.00    +0.000 A 
ATOM      9  N   UNL     1      10.394  12.644  20.503  0.00  0.00    +0.000 N 
ATOM     10  C   UNL     1       9.837  11.427  20.072  0.00  0.00    +0.000 A 
ATOM     11  C   UNL     1       9.056  10.847  21.107  0.00  0.00    +0.000 A 
ATOM     12  C   UNL     1       8.958  11.929  22.100  0.00  0.00    +0.000 A 
ATOM     13  N   UNL     1       9.734  13.063  21.588  0.00  0.00    +0.000 N 
ATOM     14  C   UNL     1       9.329  14.474  21.675  0.00  0.00    +0.000 C 
ENDROOT
BRANCH  12  15
ATOM     15  C   UNL     1       8.051  11.924  23.282  0.00  0.00    +0.000 A 
ATOM     16  C   UNL     1       8.576  11.985  24.570  0.00  0.00    +0.000 A 
ATOM     17  C   UNL     1       7.720  12.034  25.667  0.00  0.00    +0.000 A 
ATOM     18  C   UNL     1       6.334  12.018  25.476  0.00  0.00    +0.000 A 
ATOM     19  C   UNL     1       5.805  11.952  24.197  0.00  0.00    +0.000 A 
ATOM     20  C   UNL     1       6.655  11.899  23.090  0.00  0.00    +0.000 A 
ENDBRANCH  12  15
BRANCH   1  22
ATOM     21  C   UNL     1       7.186   9.157  17.479  0.00  0.00    +0.000 C 
ATOM     22  C   UNL     1       8.272   9.620  18.115  0.00  0.00    +0.000 C 
BRANCH  21  26
ATOM     23  C   UNL     1       5.843   5.060  17.972  0.00  0.00    +0.000 A 
ATOM     24  C   UNL     1       7.072   5.506  18.487  0.00  0.00    +0.000 A 
ATOM     25  C   UNL     1       7.532   6.824  18.308  0.00  0.00    +0.000 A 
ATOM     26  C   UNL     1       6.767   7.749  17.601  0.00  0.00    +0.000 A 
ATOM     27  C   UNL     1       5.522   7.336  17.120  0.00  0.00    +0.000 A 
ATOM     28  C   UNL     1       5.076   6.022  17.300  0.00  0.00    +0.000 A 
BRANCH  23  30
ATOM     29  C   UNL     1       4.721   3.055  17.044  0.00  0.00    +0.000 C 
ATOM     30  N   UNL     1       5.380   3.754  18.142  0.00  0.00    +0.000 N 
ATOM     31  C   UNL     1       5.062   3.293  19.494  0.00  0.00    +0.000 C 
ENDBRANCH  23  30
ENDBRANCH  21  26
ENDBRANCH   1  22
TORSDOF 4
ENDMDL
MODEL 9
REMARK VINA RESULT:      -7.6      7.489     10.551
REMARK  Name = 
REMARK  7 active torsions:
REMARK  status: ('A' for Active; 'I' for Inactive)
REMARK    1  A    between atoms: C_1  and  N_2
REMARK    2  A    between atoms: N_2  and  C_3
REMARK    3  A    between atoms: N_2  and  C_4
REMARK    4  A    between atoms: C_7  and  C_8
REMARK    5  A    between atoms: C_9  and  C_10
REMARK    6  A    between atoms: C_21  and  C_22
REMARK    7  A    between atoms: N_28  and  C_29
REMARK                            x       y       z     vdW  Elec       q    Type
REMARK                         _______ _______ _______ _____ _____    ______ ____
ROOT
ATOM      1  C   UNL     1      -0.752  10.714  22.981  0.00  0.00    +0.000 C 
ATOM      2  C   UNL     1      -1.464  11.637  22.327  0.00  0.00    +0.000 A 
ATOM      3  C   UNL     1      -2.569  12.463  22.884  0.00  0.00    +0.000 A 
ATOM      4  C   UNL     1      -3.473  12.253  23.903  0.00  0.00    +0.000 A 
ATOM      5  C   UNL     1      -4.439  13.246  24.132  0.00  0.00    +0.000 A 
ATOM      6  C   UNL     1      -4.503  14.422  23.348  0.00  0.00    +0.000 A 
ATOM      7  C   UNL     1      -3.602  14.639  22.305  0.00  0.00    +0.000 A 
ATOM      8  C   UNL     1      -2.674  13.646  22.112  0.00  0.00    +0.000 A 
ATOM      9  N   UNL     1      -1.652  13.585  21.091  0.00  0.00    +0.000 N 
ATOM     10  C   UNL     1      -1.037  12.320  21.074  0.00  0.00    +0.000 A 
ATOM     11  C   UNL     1       0.090  12.330  20.211  0.00  0.00    +0.000 A 
ATOM     12  C   UNL     1       0.275  13.759  19.915  0.00  0.00    +0.000 A 
ATOM     13  N   UNL     1      -0.797  14.489  20.601  0.00  0.00    +0.000 N 
ATOM     14  C   UNL     1      -0.633  15.769  21.304  0.00  0.00    +0.000 C 
ENDROOT
BRANCH  12  15
ATOM     15  C   UNL     1       1.463  14.344  19.233  0.00  0.00    +0.000 A 
ATOM     16  C   UNL     1       2.627  13.594  19.082  0.00  0.00    +0.000 A 
ATOM     17  C   UNL     1       3.713  14.128  18.395  0.00  0.00    +0.000 A 
ATOM     18  C   UNL     1       3.639  15.419  17.861  0.00  0.00    +0.000 A 
ATOM     19  C   UNL     1       2.487  16.172  18.012  0.00  0.00    +0.000 A 
ATOM     20  C   UNL     1       1.391  15.647  18.701  0.00  0.00    +0.000 A 
ENDBRANCH  12  15
BRANCH   1  22
ATOM     21  C   UNL     1      -0.106   8.763  21.608  0.00  0.00    +0.000 C 
ATOM     22  C   UNL     1       0.203   9.812  22.384  0.00  0.00    +0.000 C 
BRANCH  21  26
ATOM     23  C   UNL     1       2.727   6.859  18.927  0.00  0.00    +0.000 A 
ATOM     24  C   UNL     1       2.240   6.211  20.076  0.00  0.00    +0.000 A 
ATOM     25  C   UNL     1       1.344   6.830  20.969  0.00  0.00    +0.000 A 
ATOM     26  C   UNL     1       0.901   8.130  20.737  0.00  0.00    +0.000 A 
ATOM     27  C   UNL     1       1.339   8.773  19.576  0.00  0.00    +0.000 A 
ATOM     28  C   UNL     1       2.233   8.150  18.697  0.00  0.00    +0.000 A 
BRANCH  23  30
ATOM     29  C   UNL     1       4.410   7.067  17.122  0.00  0.00    +0.000 C 
ATOM     30  N   UNL     1       3.617   6.255  18.038  0.00  0.00    +0.000 N 
ATOM     31  C   UNL     1       3.378   4.867  17.640  0.00  0.00    +0.000 C 
ENDBRANCH  23  30
ENDBRANCH  21  26
ENDBRANCH   1  22
TORSDOF 4
ENDMDL
