MODEL 1
REMARK VINA RESULT:      -7.2      0.000      0.000
REMARK  Name = 
REMARK  3 active torsions:
REMARK  status: ('A' for Active; 'I' for Inactive)
REMARK    1  A    between atoms: C_2  and  C_3
REMARK    2  A    between atoms: N_11  and  C_12
REMARK    3  A    between atoms: C_12  and  C_13
REMARK                            x       y       z     vdW  Elec       q    Type
REMARK                         _______ _______ _______ _____ _____    ______ ____
ROOT
ATOM      1  C   UNL     1       3.711   6.474  17.797  0.00  0.00    +0.000 A 
ATOM      2  N   UNL     1       4.920   6.983  17.600  0.00  0.00    +0.000 NA
ATOM      3  C   UNL     1       5.638   6.018  16.949  0.00  0.00    +0.000 A 
ATOM      4  C   UNL     1       6.946   5.972  16.477  0.00  0.00    +0.000 A 
ATOM      5  N   UNL     1       7.389   4.853  15.846  0.00  0.00    +0.000 NA
ATOM      6  C   UNL     1       6.527   3.823  15.714  0.00  0.00    +0.000 A 
ATOM      7  N   UNL     1       5.251   3.745  16.143  0.00  0.00    +0.000 NA
ATOM      8  C   UNL     1       4.871   4.885  16.749  0.00  0.00    +0.000 A 
ATOM      9  N   UNL     1       3.648   5.178  17.303  0.00  0.00    +0.000 N 
ENDROOT
BRANCH   1  11
ATOM     10  C   UNL     1       2.119   8.254  17.952  0.00  0.00    +0.000 C 
ATOM     11  C   UNL     1       2.588   7.087  18.412  0.00  0.00    +0.000 C 
ENDBRANCH   1  11
BRANCH   9  12
ATOM     12  C   UNL     1       2.569   4.211  17.433  0.00  0.00    +0.000 C 
BRANCH  12  13
ATOM     13  C   UNL     1       2.431   3.650  18.828  0.00  0.00    +0.000 A 
ATOM     14  C   UNL     1       3.516   3.031  19.465  0.00  0.00    +0.000 A 
ATOM     15  C   UNL     1       3.409   2.579  20.782  0.00  0.00    +0.000 A 
ATOM     16  C   UNL     1       2.216   2.746  21.482  0.00  0.00    +0.000 A 
ATOM     17  C   UNL     1       1.127   3.356  20.862  0.00  0.00    +0.000 A 
ATOM     18  C   UNL     1       1.233   3.806  19.545  0.00  0.00    +0.000 A 
ENDBRANCH  12  13
ENDBRANCH   9  12
TORSDOF 3
ENDMDL
MODEL 2
REMARK VINA RESULT:      -7.1      0.112      1.142
REMARK  Name = 
REMARK  3 active torsions:
REMARK  status: ('A' for Active; 'I' for Inactive)
REMARK    1  A    between atoms: C_2  and  C_3
REMARK    2  A    between atoms: N_11  and  C_12
REMARK    3  A    between atoms: C_12  and  C_13
REMARK                            x       y       z     vdW  Elec       q    Type
REMARK                         _______ _______ _______ _____ _____    ______ ____
ROOT
ATOM      1  C   UNL     1       3.662   6.563  17.748  0.00  0.00    +0.000 A 
ATOM      2  N   UNL     1       4.866   7.075  17.529  0.00  0.00    +0.000 NA
ATOM      3  C   UNL     1       5.599   6.084  16.936  0.00  0.00    +0.000 A 
ATOM      4  C   UNL     1       6.910   6.027  16.474  0.00  0.00    +0.000 A 
ATOM      5  N   UNL     1       7.370   4.881  15.907  0.00  0.00    +0.000 NA
ATOM      6  C   UNL     1       6.520   3.836  15.827  0.00  0.00    +0.000 A 
ATOM      7  N   UNL     1       5.242   3.766  16.253  0.00  0.00    +0.000 NA
ATOM      8  C   UNL     1       4.846   4.933  16.794  0.00  0.00    +0.000 A 
ATOM      9  N   UNL     1       3.617   5.242  17.325  0.00  0.00    +0.000 N 
ENDROOT
BRANCH   1  11
ATOM     10  C   UNL     1       2.230   8.463  18.008  0.00  0.00    +0.000 C 
ATOM     11  C   UNL     1       2.528   7.195  18.323  0.00  0.00    +0.000 C 
ENDBRANCH   1  11
BRANCH   9  12
ATOM     12  C   UNL     1       2.548   4.271  17.502  0.00  0.00    +0.000 C 
BRANCH  12  13
ATOM     13  C   UNL     1       2.441   3.746  18.914  0.00  0.00    +0.000 A 
ATOM     14  C   UNL     1       1.245   3.862  19.636  0.00  0.00    +0.000 A 
ATOM     15  C   UNL     1       1.126   3.311  20.913  0.00  0.00    +0.000 A 
ATOM     16  C   UNL     1       2.200   2.630  21.483  0.00  0.00    +0.000 A 
ATOM     17  C   UNL     1       3.396   2.509  20.780  0.00  0.00    +0.000 A 
ATOM     18  C   UNL     1       3.517   3.061  19.503  0.00  0.00    +0.000 A 
ENDBRANCH  12  13
ENDBRANCH   9  12
TORSDOF 3
ENDMDL
MODEL 3
REMARK VINA RESULT:      -7.1      2.166      5.171
REMARK  Name = 
REMARK  3 active torsions:
REMARK  status: ('A' for Active; 'I' for Inactive)
REMARK    1  A    between atoms: C_2  and  C_3
REMARK    2  A    between atoms: N_11  and  C_12
REMARK    3  A    between atoms: C_12  and  C_13
REMARK                            x       y       z     vdW  Elec       q    Type
REMARK                         _______ _______ _______ _____ _____    ______ ____
ROOT
ATOM      1  C   UNL     1       2.598   6.030  18.993  0.00  0.00    +0.000 A 
ATOM      2  N   UNL     1       1.868   5.690  20.046  0.00  0.00    +0.000 NA
ATOM      3  C   UNL     1       2.379   4.503  20.495  0.00  0.00    +0.000 A 
ATOM      4  C   UNL     1       2.040   3.671  21.557  0.00  0.00    +0.000 A 
ATOM      5  N   UNL     1       2.752   2.532  21.768  0.00  0.00    +0.000 NA
ATOM      6  C   UNL     1       3.763   2.258  20.918  0.00  0.00    +0.000 A 
ATOM      7  N   UNL     1       4.172   2.974  19.851  0.00  0.00    +0.000 NA
ATOM      8  C   UNL     1       3.435   4.091  19.703  0.00  0.00    +0.000 A 
ATOM      9  N   UNL     1       3.560   5.063  18.740  0.00  0.00    +0.000 N 
ENDROOT
BRANCH   1  11
ATOM     10  C   UNL     1       2.063   8.347  18.713  0.00  0.00    +0.000 C 
ATOM     11  C   UNL     1       2.486   7.191  18.182  0.00  0.00    +0.000 C 
ENDBRANCH   1  11
BRANCH   9  12
ATOM     12  C   UNL     1       4.472   4.965  17.610  0.00  0.00    +0.000 C 
BRANCH  12  13
ATOM     13  C   UNL     1       5.765   5.719  17.817  0.00  0.00    +0.000 A 
ATOM     14  C   UNL     1       6.027   6.904  17.115  0.00  0.00    +0.000 A 
ATOM     15  C   UNL     1       7.188   7.639  17.362  0.00  0.00    +0.000 A 
ATOM     16  C   UNL     1       8.101   7.201  18.319  0.00  0.00    +0.000 A 
ATOM     17  C   UNL     1       7.858   6.023  19.022  0.00  0.00    +0.000 A 
ATOM     18  C   UNL     1       6.697   5.287  18.775  0.00  0.00    +0.000 A 
ENDBRANCH  12  13
ENDBRANCH   9  12
TORSDOF 3
ENDMDL
MODEL 4
REMARK VINA RESULT:      -7.0      1.887      4.874
REMARK  Name = 
REMARK  3 active torsions:
REMARK  status: ('A' for Active; 'I' for Inactive)
REMARK    1  A    between atoms: C_2  and  C_3
REMARK    2  A    between atoms: N_11  and  C_12
REMARK    3  A    between atoms: C_12  and  C_13
REMARK                            x       y       z     vdW  Elec       q    Type
REMARK                         _______ _______ _______ _____ _____    ______ ____
ROOT
ATOM      1  C   UNL     1       2.750   6.171  18.514  0.00  0.00    +0.000 A 
ATOM      2  N   UNL     1       1.828   5.546  19.233  0.00  0.00    +0.000 NA
ATOM      3  C   UNL     1       2.060   4.208  19.071  0.00  0.00    +0.000 A 
ATOM      4  C   UNL     1       1.435   3.073  19.576  0.00  0.00    +0.000 A 
ATOM      5  N   UNL     1       1.906   1.844  19.237  0.00  0.00    +0.000 NA
ATOM      6  C   UNL     1       2.970   1.785  18.409  0.00  0.00    +0.000 A 
ATOM      7  N   UNL     1       3.644   2.809  17.845  0.00  0.00    +0.000 NA
ATOM      8  C   UNL     1       3.135   3.995  18.227  0.00  0.00    +0.000 A 
ATOM      9  N   UNL     1       3.561   5.251  17.866  0.00  0.00    +0.000 N 
ENDROOT
BRANCH   1  11
ATOM     10  C   UNL     1       2.016   8.331  17.787  0.00  0.00    +0.000 C 
ATOM     11  C   UNL     1       2.953   7.569  18.367  0.00  0.00    +0.000 C 
ENDBRANCH   1  11
BRANCH   9  12
ATOM     12  C   UNL     1       4.597   5.496  16.875  0.00  0.00    +0.000 C 
BRANCH  12  13
ATOM     13  C   UNL     1       5.896   5.983  17.473  0.00  0.00    +0.000 A 
ATOM     14  C   UNL     1       6.486   7.177  17.036  0.00  0.00    +0.000 A 
ATOM     15  C   UNL     1       7.646   7.664  17.642  0.00  0.00    +0.000 A 
ATOM     16  C   UNL     1       8.228   6.966  18.697  0.00  0.00    +0.000 A 
ATOM     17  C   UNL     1       7.656   5.776  19.142  0.00  0.00    +0.000 A 
ATOM     18  C   UNL     1       6.496   5.288  18.536  0.00  0.00    +0.000 A 
ENDBRANCH  12  13
ENDBRANCH   9  12
TORSDOF 3
ENDMDL
MODEL 5
REMARK VINA RESULT:      -7.0      1.779      3.946
REMARK  Name = 
REMARK  3 active torsions:
REMARK  status: ('A' for Active; 'I' for Inactive)
REMARK    1  A    between atoms: C_2  and  C_3
REMARK    2  A    between atoms: N_11  and  C_12
REMARK    3  A    between atoms: C_12  and  C_13
REMARK                            x       y       z     vdW  Elec       q    Type
REMARK                         _______ _______ _______ _____ _____    ______ ____
ROOT
ATOM      1  C   UNL     1       3.178   4.203  17.649  0.00  0.00    +0.000 A 
ATOM      2  N   UNL     1       4.037   3.840  16.707  0.00  0.00    +0.000 NA
ATOM      3  C   UNL     1       5.260   4.302  17.107  0.00  0.00    +0.000 A 
ATOM      4  C   UNL     1       6.530   4.224  16.545  0.00  0.00    +0.000 A 
ATOM      5  N   UNL     1       7.584   4.784  17.193  0.00  0.00    +0.000 NA
ATOM      6  C   UNL     1       7.342   5.405  18.367  0.00  0.00    +0.000 A 
ATOM      7  N   UNL     1       6.160   5.559  18.999  0.00  0.00    +0.000 NA
ATOM      8  C   UNL     1       5.161   4.975  18.311  0.00  0.00    +0.000 A 
ATOM      9  N   UNL     1       3.829   4.919  18.644  0.00  0.00    +0.000 N 
ENDROOT
BRANCH   1  11
ATOM     10  C   UNL     1       1.323   2.897  18.412  0.00  0.00    +0.000 C 
ATOM     11  C   UNL     1       1.783   3.944  17.716  0.00  0.00    +0.000 C 
ENDBRANCH   1  11
BRANCH   9  12
ATOM     12  C   UNL     1       3.252   5.620  19.781  0.00  0.00    +0.000 C 
BRANCH  12  13
ATOM     13  C   UNL     1       2.634   6.949  19.416  0.00  0.00    +0.000 A 
ATOM     14  C   UNL     1       2.779   7.479  18.127  0.00  0.00    +0.000 A 
ATOM     15  C   UNL     1       2.146   8.671  17.769  0.00  0.00    +0.000 A 
ATOM     16  C   UNL     1       1.353   9.346  18.696  0.00  0.00    +0.000 A 
ATOM     17  C   UNL     1       1.202   8.834  19.983  0.00  0.00    +0.000 A 
ATOM     18  C   UNL     1       1.837   7.643  20.342  0.00  0.00    +0.000 A 
ENDBRANCH  12  13
ENDBRANCH   9  12
TORSDOF 3
ENDMDL
MODEL 6
REMARK VINA RESULT:      -7.0      1.750      4.017
REMARK  Name = 
REMARK  3 active torsions:
REMARK  status: ('A' for Active; 'I' for Inactive)
REMARK    1  A    between atoms: C_2  and  C_3
REMARK    2  A    between atoms: N_11  and  C_12
REMARK    3  A    between atoms: C_12  and  C_13
REMARK                            x       y       z     vdW  Elec       q    Type
REMARK                         _______ _______ _______ _____ _____    ______ ____
ROOT
ATOM      1  C   UNL     1       3.109   4.216  17.658  0.00  0.00    +0.000 A 
ATOM      2  N   UNL     1       3.929   3.826  16.691  0.00  0.00    +0.000 NA
ATOM      3  C   UNL     1       5.170   4.285  17.036  0.00  0.00    +0.000 A 
ATOM      4  C   UNL     1       6.417   4.185  16.428  0.00  0.00    +0.000 A 
ATOM      5  N   UNL     1       7.500   4.748  17.025  0.00  0.00    +0.000 NA
ATOM      6  C   UNL     1       7.307   5.393  18.194  0.00  0.00    +0.000 A 
ATOM      7  N   UNL     1       6.152   5.570  18.867  0.00  0.00    +0.000 NA
ATOM      8  C   UNL     1       5.122   4.983  18.229  0.00  0.00    +0.000 A 
ATOM      9  N   UNL     1       3.803   4.946  18.613  0.00  0.00    +0.000 N 
ENDROOT
BRANCH   1  11
ATOM     10  C   UNL     1       1.275   2.921  18.488  0.00  0.00    +0.000 C 
ATOM     11  C   UNL     1       1.716   3.971  17.783  0.00  0.00    +0.000 C 
ENDBRANCH   1  11
BRANCH   9  12
ATOM     12  C   UNL     1       3.276   5.673  19.757  0.00  0.00    +0.000 C 
BRANCH  12  13
ATOM     13  C   UNL     1       2.570   6.954  19.380  0.00  0.00    +0.000 A 
ATOM     14  C   UNL     1       1.774   7.637  20.310  0.00  0.00    +0.000 A 
ATOM     15  C   UNL     1       1.183   8.859  19.982  0.00  0.00    +0.000 A 
ATOM     16  C   UNL     1       1.384   9.416  18.721  0.00  0.00    +0.000 A 
ATOM     17  C   UNL     1       2.169   8.748  17.784  0.00  0.00    +0.000 A 
ATOM     18  C   UNL     1       2.760   7.525  18.111  0.00  0.00    +0.000 A 
ENDBRANCH  12  13
ENDBRANCH   9  12
TORSDOF 3
ENDMDL
MODEL 7
REMARK VINA RESULT:      -7.0      1.357      1.866
REMARK  Name = 
REMARK  3 active torsions:
REMARK  status: ('A' for Active; 'I' for Inactive)
REMARK    1  A    between atoms: C_2  and  C_3
REMARK    2  A    between atoms: N_11  and  C_12
REMARK    3  A    between atoms: C_12  and  C_13
REMARK                            x       y       z     vdW  Elec       q    Type
REMARK                         _______ _______ _______ _____ _____    ______ ____
ROOT
ATOM      1  C   UNL     1       3.733   6.864  17.690  0.00  0.00    +0.000 A 
ATOM      2  N   UNL     1       4.580   7.145  16.708  0.00  0.00    +0.000 NA
ATOM      3  C   UNL     1       5.642   6.299  16.868  0.00  0.00    +0.000 A 
ATOM      4  C   UNL     1       6.821   6.119  16.152  0.00  0.00    +0.000 A 
ATOM      5  N   UNL     1       7.708   5.171  16.553  0.00  0.00    +0.000 NA
ATOM      6  C   UNL     1       7.399   4.444  17.647  0.00  0.00    +0.000 A 
ATOM      7  N   UNL     1       6.303   4.539  18.428  0.00  0.00    +0.000 NA
ATOM      8  C   UNL     1       5.463   5.487  17.973  0.00  0.00    +0.000 A 
ATOM      9  N   UNL     1       4.250   5.862  18.499  0.00  0.00    +0.000 N 
ENDROOT
BRANCH   1  11
ATOM     10  C   UNL     1       2.283   8.766  17.790  0.00  0.00    +0.000 C 
ATOM     11  C   UNL     1       2.467   7.449  17.954  0.00  0.00    +0.000 C 
ENDBRANCH   1  11
BRANCH   9  12
ATOM     12  C   UNL     1       3.724   5.351  19.756  0.00  0.00    +0.000 C 
BRANCH  12  13
ATOM     13  C   UNL     1       2.694   4.261  19.575  0.00  0.00    +0.000 A 
ATOM     14  C   UNL     1       1.559   4.201  20.396  0.00  0.00    +0.000 A 
ATOM     15  C   UNL     1       0.571   3.238  20.179  0.00  0.00    +0.000 A 
ATOM     16  C   UNL     1       0.703   2.326  19.135  0.00  0.00    +0.000 A 
ATOM     17  C   UNL     1       1.826   2.369  18.313  0.00  0.00    +0.000 A 
ATOM     18  C   UNL     1       2.815   3.331  18.529  0.00  0.00    +0.000 A 
ENDBRANCH  12  13
ENDBRANCH   9  12
TORSDOF 3
ENDMDL
MODEL 8
REMARK VINA RESULT:      -6.9      1.894      4.863
REMARK  Name = 
REMARK  3 active torsions:
REMARK  status: ('A' for Active; 'I' for Inactive)
REMARK    1  A    between atoms: C_2  and  C_3
REMARK    2  A    between atoms: N_11  and  C_12
REMARK    3  A    between atoms: C_12  and  C_13
REMARK                            x       y       z     vdW  Elec       q    Type
REMARK                         _______ _______ _______ _____ _____    ______ ____
ROOT
ATOM      1  C   UNL     1       2.706   6.169  18.367  0.00  0.00    +0.000 A 
ATOM      2  N   UNL     1       1.731   5.570  19.038  0.00  0.00    +0.000 NA
ATOM      3  C   UNL     1       1.970   4.227  18.939  0.00  0.00    +0.000 A 
ATOM      4  C   UNL     1       1.305   3.111  19.436  0.00  0.00    +0.000 A 
ATOM      5  N   UNL     1       1.795   1.871  19.176  0.00  0.00    +0.000 NA
ATOM      6  C   UNL     1       2.916   1.782  18.431  0.00  0.00    +0.000 A 
ATOM      7  N   UNL     1       3.634   2.784  17.883  0.00  0.00    +0.000 NA
ATOM      8  C   UNL     1       3.103   3.984  18.185  0.00  0.00    +0.000 A 
ATOM      9  N   UNL     1       3.559   5.225  17.812  0.00  0.00    +0.000 N 
ENDROOT
BRANCH   1  11
ATOM     10  C   UNL     1       1.914   8.363  17.830  0.00  0.00    +0.000 C 
ATOM     11  C   UNL     1       2.925   7.561  18.187  0.00  0.00    +0.000 C 
ENDBRANCH   1  11
BRANCH   9  12
ATOM     12  C   UNL     1       4.667   5.435  16.893  0.00  0.00    +0.000 C 
BRANCH  12  13
ATOM     13  C   UNL     1       5.896   6.009  17.556  0.00  0.00    +0.000 A 
ATOM     14  C   UNL     1       6.533   5.328  18.603  0.00  0.00    +0.000 A 
ATOM     15  C   UNL     1       7.712   5.823  19.165  0.00  0.00    +0.000 A 
ATOM     16  C   UNL     1       8.273   7.003  18.682  0.00  0.00    +0.000 A 
ATOM     17  C   UNL     1       7.651   7.694  17.645  0.00  0.00    +0.000 A 
ATOM     18  C   UNL     1       6.471   7.200  17.083  0.00  0.00    +0.000 A 
ENDBRANCH  12  13
ENDBRANCH   9  12
TORSDOF 3
ENDMDL
MODEL 9
REMARK VINA RESULT:      -6.9      1.337      1.719
REMARK  Name = 
REMARK  3 active torsions:
REMARK  status: ('A' for Active; 'I' for Inactive)
REMARK    1  A    between atoms: C_2  and  C_3
REMARK    2  A    between atoms: N_11  and  C_12
REMARK    3  A    between atoms: C_12  and  C_13
REMARK                            x       y       z     vdW  Elec       q    Type
REMARK                         _______ _______ _______ _____ _____    ______ ____
ROOT
ATOM      1  C   UNL     1       3.662   6.965  17.750  0.00  0.00    +0.000 A 
ATOM      2  N   UNL     1       4.488   7.177  16.734  0.00  0.00    +0.000 NA
ATOM      3  C   UNL     1       5.527   6.304  16.899  0.00  0.00    +0.000 A 
ATOM      4  C   UNL     1       6.679   6.055  16.160  0.00  0.00    +0.000 A 
ATOM      5  N   UNL     1       7.546   5.095  16.575  0.00  0.00    +0.000 NA
ATOM      6  C   UNL     1       7.245   4.424  17.707  0.00  0.00    +0.000 A 
ATOM      7  N   UNL     1       6.176   4.587  18.512  0.00  0.00    +0.000 NA
ATOM      8  C   UNL     1       5.353   5.543  18.042  0.00  0.00    +0.000 A 
ATOM      9  N   UNL     1       4.169   5.980  18.585  0.00  0.00    +0.000 N 
ENDROOT
BRANCH   1  11
ATOM     10  C   UNL     1       2.251   8.898  17.735  0.00  0.00    +0.000 C 
ATOM     11  C   UNL     1       2.423   7.602  18.024  0.00  0.00    +0.000 C 
ENDBRANCH   1  11
BRANCH   9  12
ATOM     12  C   UNL     1       3.663   5.537  19.876  0.00  0.00    +0.000 C 
BRANCH  12  13
ATOM     13  C   UNL     1       2.593   4.478  19.769  0.00  0.00    +0.000 A 
ATOM     14  C   UNL     1       2.186   3.990  18.519  0.00  0.00    +0.000 A 
ATOM     15  C   UNL     1       1.250   2.957  18.425  0.00  0.00    +0.000 A 
ATOM     16  C   UNL     1       0.713   2.395  19.581  0.00  0.00    +0.000 A 
ATOM     17  C   UNL     1       1.103   2.871  20.831  0.00  0.00    +0.000 A 
ATOM     18  C   UNL     1       2.038   3.904  20.925  0.00  0.00    +0.000 A 
ENDBRANCH  12  13
ENDBRANCH   9  12
TORSDOF 3
ENDMDL
