MODEL 1
REMARK VINA RESULT:      -5.8      0.000      0.000
REMARK  Name = 
REMARK  6 active torsions:
REMARK  status: ('A' for Active; 'I' for Inactive)
REMARK    1  A    between atoms: O_1  and  C_2
REMARK    2  A    between atoms: C_2  and  C_3
REMARK    3  A    between atoms: C_2  and  C_12
REMARK    4  A    between atoms: C_3  and  N_4
REMARK    5  A    between atoms: N_4  and  C_5
REMARK    6  A    between atoms: C_5  and  C_6
REMARK                            x       y       z     vdW  Elec       q    Type
REMARK                         _______ _______ _______ _____ _____    ______ ____
ROOT
ATOM      1  C   UNL     1       1.185   5.047  20.697  0.00  0.00    +0.000 C 
ENDROOT
BRANCH   1   2
ATOM      2  N   UNL     1       2.436   5.825  20.765  0.00  0.00    +0.000 NA
ATOM      3  H   UNL     1       3.214   5.181  20.901  0.00  0.00    +0.000 HD
BRANCH   2   4
ATOM      4  C   UNL     1       2.676   6.541  19.511  0.00  0.00    +0.000 C 
BRANCH   4   5
ATOM      5  C   UNL     1       3.799   5.878  18.749  0.00  0.00    +0.000 A 
ATOM      6  C   UNL     1       3.684   5.627  17.374  0.00  0.00    +0.000 A 
ATOM      7  C   UNL     1       4.706   4.969  16.688  0.00  0.00    +0.000 A 
ATOM      8  C   UNL     1       5.851   4.556  17.367  0.00  0.00    +0.000 A 
ATOM      9  C   UNL     1       5.974   4.796  18.734  0.00  0.00    +0.000 A 
ATOM     10  C   UNL     1       4.952   5.451  19.423  0.00  0.00    +0.000 A 
ENDBRANCH   4   5
ENDBRANCH   2   4
ENDBRANCH   1   2
BRANCH   1  11
ATOM     11  C   UNL     1       1.450   3.553  21.003  0.00  0.00    +0.000 C 
BRANCH  11  12
ATOM     12  C   UNL     1       2.201   2.841  19.900  0.00  0.00    +0.000 A 
ATOM     13  C   UNL     1       3.451   2.257  20.158  0.00  0.00    +0.000 A 
ATOM     14  C   UNL     1       4.171   1.637  19.135  0.00  0.00    +0.000 A 
ATOM     15  C   UNL     1       3.649   1.587  17.845  0.00  0.00    +0.000 A 
ATOM     16  C   UNL     1       2.405   2.154  17.575  0.00  0.00    +0.000 A 
ATOM     17  C   UNL     1       1.689   2.779  18.595  0.00  0.00    +0.000 A 
ENDBRANCH  11  12
BRANCH  11  18
ATOM     18  O   UNL     1       2.221   3.443  22.206  0.00  0.00    +0.000 OA
ATOM     19  H   UNL     1       2.707   4.284  22.275  0.00  0.00    +0.000 HD
ENDBRANCH  11  18
ENDBRANCH   1  11
TORSDOF 6
ENDMDL
MODEL 2
REMARK VINA RESULT:      -5.8      1.986      4.954
REMARK  Name = 
REMARK  6 active torsions:
REMARK  status: ('A' for Active; 'I' for Inactive)
REMARK    1  A    between atoms: O_1  and  C_2
REMARK    2  A    between atoms: C_2  and  C_3
REMARK    3  A    between atoms: C_2  and  C_12
REMARK    4  A    between atoms: C_3  and  N_4
REMARK    5  A    between atoms: N_4  and  C_5
REMARK    6  A    between atoms: C_5  and  C_6
REMARK                            x       y       z     vdW  Elec       q    Type
REMARK                         _______ _______ _______ _____ _____    ______ ____
ROOT
ATOM      1  C   UNL     1       4.746   3.679  16.804  0.00  0.00    +0.000 C 
ENDROOT
BRANCH   1   2
ATOM      2  N   UNL     1       4.433   2.452  17.558  0.00  0.00    +0.000 NA
ATOM      3  H   UNL     1       4.722   2.580  18.527  0.00  0.00    +0.000 HD
BRANCH   2   4
ATOM      4  C   UNL     1       2.992   2.193  17.564  0.00  0.00    +0.000 C 
BRANCH   4   5
ATOM      5  C   UNL     1       2.422   2.493  18.929  0.00  0.00    +0.000 A 
ATOM      6  C   UNL     1       1.135   3.032  19.068  0.00  0.00    +0.000 A 
ATOM      7  C   UNL     1       0.636   3.353  20.332  0.00  0.00    +0.000 A 
ATOM      8  C   UNL     1       1.416   3.138  21.467  0.00  0.00    +0.000 A 
ATOM      9  C   UNL     1       2.698   2.607  21.341  0.00  0.00    +0.000 A 
ATOM     10  C   UNL     1       3.201   2.289  20.078  0.00  0.00    +0.000 A 
ENDBRANCH   4   5
ENDBRANCH   2   4
ENDBRANCH   1   2
BRANCH   1  11
ATOM     11  C   UNL     1       5.328   4.765  17.740  0.00  0.00    +0.000 C 
BRANCH  11  12
ATOM     12  C   UNL     1       4.306   5.794  18.170  0.00  0.00    +0.000 A 
ATOM     13  C   UNL     1       3.628   5.652  19.391  0.00  0.00    +0.000 A 
ATOM     14  C   UNL     1       2.651   6.573  19.774  0.00  0.00    +0.000 A 
ATOM     15  C   UNL     1       2.344   7.650  18.946  0.00  0.00    +0.000 A 
ATOM     16  C   UNL     1       3.015   7.811  17.735  0.00  0.00    +0.000 A 
ATOM     17  C   UNL     1       3.986   6.887  17.349  0.00  0.00    +0.000 A 
ENDBRANCH  11  12
BRANCH  11  18
ATOM     18  O   UNL     1       5.854   4.145  18.921  0.00  0.00    +0.000 OA
ATOM     19  H   UNL     1       6.603   4.705  19.190  0.00  0.00    +0.000 HD
ENDBRANCH  11  18
ENDBRANCH   1  11
TORSDOF 6
ENDMDL
MODEL 3
REMARK VINA RESULT:      -5.8      0.253      1.197
REMARK  Name = 
REMARK  6 active torsions:
REMARK  status: ('A' for Active; 'I' for Inactive)
REMARK    1  A    between atoms: O_1  and  C_2
REMARK    2  A    between atoms: C_2  and  C_3
REMARK    3  A    between atoms: C_2  and  C_12
REMARK    4  A    between atoms: C_3  and  N_4
REMARK    5  A    between atoms: N_4  and  C_5
REMARK    6  A    between atoms: C_5  and  C_6
REMARK                            x       y       z     vdW  Elec       q    Type
REMARK                         _______ _______ _______ _____ _____    ______ ____
ROOT
ATOM      1  C   UNL     1       1.403   5.253  20.751  0.00  0.00    +0.000 C 
ENDROOT
BRANCH   1   2
ATOM      2  N   UNL     1       2.746   5.842  20.602  0.00  0.00    +0.000 NA
ATOM      3  H   UNL     1       3.439   5.097  20.668  0.00  0.00    +0.000 HD
BRANCH   2   4
ATOM      4  C   UNL     1       2.902   6.467  19.287  0.00  0.00    +0.000 C 
BRANCH   4   5
ATOM      5  C   UNL     1       4.035   5.808  18.537  0.00  0.00    +0.000 A 
ATOM      6  C   UNL     1       3.922   5.526  17.168  0.00  0.00    +0.000 A 
ATOM      7  C   UNL     1       4.954   4.872  16.493  0.00  0.00    +0.000 A 
ATOM      8  C   UNL     1       6.107   4.494  17.179  0.00  0.00    +0.000 A 
ATOM      9  C   UNL     1       6.229   4.765  18.540  0.00  0.00    +0.000 A 
ATOM     10  C   UNL     1       5.197   5.416  19.217  0.00  0.00    +0.000 A 
ENDBRANCH   4   5
ENDBRANCH   2   4
ENDBRANCH   1   2
BRANCH   1  11
ATOM     11  C   UNL     1       1.495   3.725  20.975  0.00  0.00    +0.000 C 
BRANCH  11  12
ATOM     12  C   UNL     1       2.268   3.006  19.891  0.00  0.00    +0.000 A 
ATOM     13  C   UNL     1       1.732   2.889  18.599  0.00  0.00    +0.000 A 
ATOM     14  C   UNL     1       2.419   2.188  17.606  0.00  0.00    +0.000 A 
ATOM     15  C   UNL     1       3.651   1.604  17.888  0.00  0.00    +0.000 A 
ATOM     16  C   UNL     1       4.201   1.720  19.163  0.00  0.00    +0.000 A 
ATOM     17  C   UNL     1       3.511   2.414  20.158  0.00  0.00    +0.000 A 
ENDBRANCH  11  12
BRANCH  11  18
ATOM     18  O   UNL     1       2.143   3.465  22.226  0.00  0.00    +0.000 OA
ATOM     19  H   UNL     1       2.941   4.022  22.220  0.00  0.00    +0.000 HD
ENDBRANCH  11  18
ENDBRANCH   1  11
TORSDOF 6
ENDMDL
MODEL 4
REMARK VINA RESULT:      -5.6      2.045      5.248
REMARK  Name = 
REMARK  6 active torsions:
REMARK  status: ('A' for Active; 'I' for Inactive)
REMARK    1  A    between atoms: O_1  and  C_2
REMARK    2  A    between atoms: C_2  and  C_3
REMARK    3  A    between atoms: C_2  and  C_12
REMARK    4  A    between atoms: C_3  and  N_4
REMARK    5  A    between atoms: N_4  and  C_5
REMARK    6  A    between atoms: C_5  and  C_6
REMARK                            x       y       z     vdW  Elec       q    Type
REMARK                         _______ _______ _______ _____ _____    ______ ____
ROOT
ATOM      1  C   UNL     1       4.207   4.059  16.827  0.00  0.00    +0.000 C 
ENDROOT
BRANCH   1   2
ATOM      2  N   UNL     1       4.496   2.800  17.536  0.00  0.00    +0.000 NA
ATOM      3  H   UNL     1       4.877   3.021  18.455  0.00  0.00    +0.000 HD
BRANCH   2   4
ATOM      4  C   UNL     1       3.272   2.024  17.747  0.00  0.00    +0.000 C 
BRANCH   4   5
ATOM      5  C   UNL     1       2.611   2.449  19.036  0.00  0.00    +0.000 A 
ATOM      6  C   UNL     1       3.329   2.467  20.241  0.00  0.00    +0.000 A 
ATOM      7  C   UNL     1       2.696   2.812  21.436  0.00  0.00    +0.000 A 
ATOM      8  C   UNL     1       1.342   3.143  21.440  0.00  0.00    +0.000 A 
ATOM      9  C   UNL     1       0.618   3.125  20.250  0.00  0.00    +0.000 A 
ATOM     10  C   UNL     1       1.247   2.776  19.054  0.00  0.00    +0.000 A 
ENDBRANCH   4   5
ENDBRANCH   2   4
ENDBRANCH   1   2
BRANCH   1  11
ATOM     11  C   UNL     1       4.837   5.263  17.568  0.00  0.00    +0.000 C 
BRANCH  11  12
ATOM     12  C   UNL     1       3.813   6.224  18.129  0.00  0.00    +0.000 A 
ATOM     13  C   UNL     1       3.535   7.429  17.466  0.00  0.00    +0.000 A 
ATOM     14  C   UNL     1       2.624   8.342  18.001  0.00  0.00    +0.000 A 
ATOM     15  C   UNL     1       1.974   8.059  19.200  0.00  0.00    +0.000 A 
ATOM     16  C   UNL     1       2.231   6.861  19.865  0.00  0.00    +0.000 A 
ATOM     17  C   UNL     1       3.147   5.953  19.334  0.00  0.00    +0.000 A 
ENDBRANCH  11  12
BRANCH  11  18
ATOM     18  O   UNL     1       5.638   4.786  18.657  0.00  0.00    +0.000 OA
ATOM     19  H   UNL     1       5.650   3.817  18.559  0.00  0.00    +0.000 HD
ENDBRANCH  11  18
ENDBRANCH   1  11
TORSDOF 6
ENDMDL
MODEL 5
REMARK VINA RESULT:      -5.6      1.926      5.021
REMARK  Name = 
REMARK  6 active torsions:
REMARK  status: ('A' for Active; 'I' for Inactive)
REMARK    1  A    between atoms: O_1  and  C_2
REMARK    2  A    between atoms: C_2  and  C_3
REMARK    3  A    between atoms: C_2  and  C_12
REMARK    4  A    between atoms: C_3  and  N_4
REMARK    5  A    between atoms: N_4  and  C_5
REMARK    6  A    between atoms: C_5  and  C_6
REMARK                            x       y       z     vdW  Elec       q    Type
REMARK                         _______ _______ _______ _____ _____    ______ ____
ROOT
ATOM      1  C   UNL     1       5.022   3.950  16.866  0.00  0.00    +0.000 C 
ENDROOT
BRANCH   1   2
ATOM      2  N   UNL     1       3.592   3.613  16.987  0.00  0.00    +0.000 NA
ATOM      3  H   UNL     1       3.202   3.502  16.052  0.00  0.00    +0.000 HD
BRANCH   2   4
ATOM      4  C   UNL     1       3.411   2.342  17.690  0.00  0.00    +0.000 C 
BRANCH   4   5
ATOM      5  C   UNL     1       2.665   2.572  18.983  0.00  0.00    +0.000 A 
ATOM      6  C   UNL     1       1.346   3.047  18.977  0.00  0.00    +0.000 A 
ATOM      7  C   UNL     1       0.682   3.304  20.178  0.00  0.00    +0.000 A 
ATOM      8  C   UNL     1       1.329   3.091  21.394  0.00  0.00    +0.000 A 
ATOM      9  C   UNL     1       2.641   2.624  21.412  0.00  0.00    +0.000 A 
ATOM     10  C   UNL     1       3.309   2.370  20.213  0.00  0.00    +0.000 A 
ENDBRANCH   4   5
ENDBRANCH   2   4
ENDBRANCH   1   2
BRANCH   1  11
ATOM     11  C   UNL     1       5.418   5.043  17.887  0.00  0.00    +0.000 C 
BRANCH  11  12
ATOM     12  C   UNL     1       4.281   5.979  18.232  0.00  0.00    +0.000 A 
ATOM     13  C   UNL     1       3.956   7.043  17.377  0.00  0.00    +0.000 A 
ATOM     14  C   UNL     1       2.938   7.939  17.710  0.00  0.00    +0.000 A 
ATOM     15  C   UNL     1       2.228   7.778  18.897  0.00  0.00    +0.000 A 
ATOM     16  C   UNL     1       2.532   6.720  19.753  0.00  0.00    +0.000 A 
ATOM     17  C   UNL     1       3.554   5.830  19.423  0.00  0.00    +0.000 A 
ENDBRANCH  11  12
BRANCH  11  18
ATOM     18  O   UNL     1       5.863   4.422  19.100  0.00  0.00    +0.000 OA
ATOM     19  H   UNL     1       6.834   4.492  19.080  0.00  0.00    +0.000 HD
ENDBRANCH  11  18
ENDBRANCH   1  11
TORSDOF 6
ENDMDL
MODEL 6
REMARK VINA RESULT:      -5.5      1.902      4.017
REMARK  Name = 
REMARK  6 active torsions:
REMARK  status: ('A' for Active; 'I' for Inactive)
REMARK    1  A    between atoms: O_1  and  C_2
REMARK    2  A    between atoms: C_2  and  C_3
REMARK    3  A    between atoms: C_2  and  C_12
REMARK    4  A    between atoms: C_3  and  N_4
REMARK    5  A    between atoms: N_4  and  C_5
REMARK    6  A    between atoms: C_5  and  C_6
REMARK                            x       y       z     vdW  Elec       q    Type
REMARK                         _______ _______ _______ _____ _____    ______ ____
ROOT
ATOM      1  C   UNL     1       2.733   2.095  17.543  0.00  0.00    +0.000 C 
ENDROOT
BRANCH   1   2
ATOM      2  N   UNL     1       1.886   1.668  18.671  0.00  0.00    +0.000 NA
ATOM      3  H   UNL     1       2.451   1.655  19.519  0.00  0.00    +0.000 HD
BRANCH   2   4
ATOM      4  C   UNL     1       0.790   2.613  18.892  0.00  0.00    +0.000 C 
BRANCH   4   5
ATOM      5  C   UNL     1       1.345   4.002  19.102  0.00  0.00    +0.000 A 
ATOM      6  C   UNL     1       1.528   4.874  18.020  0.00  0.00    +0.000 A 
ATOM      7  C   UNL     1       2.088   6.138  18.217  0.00  0.00    +0.000 A 
ATOM      8  C   UNL     1       2.470   6.541  19.495  0.00  0.00    +0.000 A 
ATOM      9  C   UNL     1       2.298   5.681  20.578  0.00  0.00    +0.000 A 
ATOM     10  C   UNL     1       1.741   4.416  20.383  0.00  0.00    +0.000 A 
ENDBRANCH   4   5
ENDBRANCH   2   4
ENDBRANCH   1   2
BRANCH   1  11
ATOM     11  C   UNL     1       4.215   2.199  17.979  0.00  0.00    +0.000 C 
BRANCH  11  12
ATOM     12  C   UNL     1       4.809   3.572  17.754  0.00  0.00    +0.000 A 
ATOM     13  C   UNL     1       5.406   4.267  18.817  0.00  0.00    +0.000 A 
ATOM     14  C   UNL     1       5.916   5.553  18.628  0.00  0.00    +0.000 A 
ATOM     15  C   UNL     1       5.845   6.156  17.374  0.00  0.00    +0.000 A 
ATOM     16  C   UNL     1       5.264   5.474  16.306  0.00  0.00    +0.000 A 
ATOM     17  C   UNL     1       4.748   4.192  16.497  0.00  0.00    +0.000 A 
ENDBRANCH  11  12
BRANCH  11  18
ATOM     18  O   UNL     1       4.324   1.893  19.375  0.00  0.00    +0.000 OA
ATOM     19  H   UNL     1       5.036   2.468  19.706  0.00  0.00    +0.000 HD
ENDBRANCH  11  18
ENDBRANCH   1  11
TORSDOF 6
ENDMDL
MODEL 7
REMARK VINA RESULT:      -5.4      1.723      3.312
REMARK  Name = 
REMARK  6 active torsions:
REMARK  status: ('A' for Active; 'I' for Inactive)
REMARK    1  A    between atoms: O_1  and  C_2
REMARK    2  A    between atoms: C_2  and  C_3
REMARK    3  A    between atoms: C_2  and  C_12
REMARK    4  A    between atoms: C_3  and  N_4
REMARK    5  A    between atoms: N_4  and  C_5
REMARK    6  A    between atoms: C_5  and  C_6
REMARK                            x       y       z     vdW  Elec       q    Type
REMARK                         _______ _______ _______ _____ _____    ______ ____
ROOT
ATOM      1  C   UNL     1       3.002   7.008  19.233  0.00  0.00    +0.000 C 
ENDROOT
BRANCH   1   2
ATOM      2  N   UNL     1       2.832   6.439  17.884  0.00  0.00    +0.000 NA
ATOM      3  H   UNL     1       2.703   7.203  17.220  0.00  0.00    +0.000 HD
BRANCH   2   4
ATOM      4  C   UNL     1       4.027   5.701  17.471  0.00  0.00    +0.000 C 
BRANCH   4   5
ATOM      5  C   UNL     1       3.865   4.237  17.801  0.00  0.00    +0.000 A 
ATOM      6  C   UNL     1       2.895   3.457  17.153  0.00  0.00    +0.000 A 
ATOM      7  C   UNL     1       2.719   2.116  17.500  0.00  0.00    +0.000 A 
ATOM      8  C   UNL     1       3.508   1.543  18.495  0.00  0.00    +0.000 A 
ATOM      9  C   UNL     1       4.471   2.308  19.149  0.00  0.00    +0.000 A 
ATOM     10  C   UNL     1       4.647   3.650  18.806  0.00  0.00    +0.000 A 
ENDBRANCH   4   5
ENDBRANCH   2   4
ENDBRANCH   1   2
BRANCH   1  11
ATOM     11  C   UNL     1       1.778   6.686  20.123  0.00  0.00    +0.000 C 
BRANCH  11  12
ATOM     12  C   UNL     1       1.679   5.224  20.499  0.00  0.00    +0.000 A 
ATOM     13  C   UNL     1       0.734   4.395  19.876  0.00  0.00    +0.000 A 
ATOM     14  C   UNL     1       0.606   3.056  20.249  0.00  0.00    +0.000 A 
ATOM     15  C   UNL     1       1.426   2.526  21.243  0.00  0.00    +0.000 A 
ATOM     16  C   UNL     1       2.377   3.334  21.864  0.00  0.00    +0.000 A 
ATOM     17  C   UNL     1       2.499   4.674  21.496  0.00  0.00    +0.000 A 
ENDBRANCH  11  12
BRANCH  11  18
ATOM     18  O   UNL     1       1.855   7.449  21.334  0.00  0.00    +0.000 OA
ATOM     19  H   UNL     1       1.406   8.290  21.133  0.00  0.00    +0.000 HD
ENDBRANCH  11  18
ENDBRANCH   1  11
TORSDOF 6
ENDMDL
MODEL 8
REMARK VINA RESULT:      -5.4      3.528      6.018
REMARK  Name = 
REMARK  6 active torsions:
REMARK  status: ('A' for Active; 'I' for Inactive)
REMARK    1  A    between atoms: O_1  and  C_2
REMARK    2  A    between atoms: C_2  and  C_3
REMARK    3  A    between atoms: C_2  and  C_12
REMARK    4  A    between atoms: C_3  and  N_4
REMARK    5  A    between atoms: N_4  and  C_5
REMARK    6  A    between atoms: C_5  and  C_6
REMARK                            x       y       z     vdW  Elec       q    Type
REMARK                         _______ _______ _______ _____ _____    ______ ____
ROOT
ATOM      1  C   UNL     1       5.112   6.048  16.284  0.00  0.00    +0.000 C 
ENDROOT
BRANCH   1   2
ATOM      2  N   UNL     1       4.228   5.143  17.041  0.00  0.00    +0.000 NA
ATOM      3  H   UNL     1       4.774   4.682  17.767  0.00  0.00    +0.000 HD
BRANCH   2   4
ATOM      4  C   UNL     1       3.159   5.890  17.707  0.00  0.00    +0.000 C 
BRANCH   4   5
ATOM      5  C   UNL     1       2.316   4.952  18.536  0.00  0.00    +0.000 A 
ATOM      6  C   UNL     1       2.150   5.161  19.913  0.00  0.00    +0.000 A 
ATOM      7  C   UNL     1       1.409   4.260  20.680  0.00  0.00    +0.000 A 
ATOM      8  C   UNL     1       0.829   3.143  20.081  0.00  0.00    +0.000 A 
ATOM      9  C   UNL     1       0.992   2.922  18.715  0.00  0.00    +0.000 A 
ATOM     10  C   UNL     1       1.735   3.820  17.946  0.00  0.00    +0.000 A 
ENDBRANCH   4   5
ENDBRANCH   2   4
ENDBRANCH   1   2
BRANCH   1  11
ATOM     11  C   UNL     1       6.483   5.379  16.018  0.00  0.00    +0.000 C 
BRANCH  11  12
ATOM     12  C   UNL     1       6.636   4.872  14.602  0.00  0.00    +0.000 A 
ATOM     13  C   UNL     1       7.601   5.430  13.750  0.00  0.00    +0.000 A 
ATOM     14  C   UNL     1       7.718   4.999  12.427  0.00  0.00    +0.000 A 
ATOM     15  C   UNL     1       6.878   4.000  11.942  0.00  0.00    +0.000 A 
ATOM     16  C   UNL     1       5.921   3.428  12.778  0.00  0.00    +0.000 A 
ATOM     17  C   UNL     1       5.799   3.864  14.097  0.00  0.00    +0.000 A 
ENDBRANCH  11  12
BRANCH  11  18
ATOM     18  O   UNL     1       7.530   6.326  16.264  0.00  0.00    +0.000 OA
ATOM     19  H   UNL     1       8.055   6.343  15.445  0.00  0.00    +0.000 HD
ENDBRANCH  11  18
ENDBRANCH   1  11
TORSDOF 6
ENDMDL
MODEL 9
REMARK VINA RESULT:      -5.4      1.504      2.073
REMARK  Name = 
REMARK  6 active torsions:
REMARK  status: ('A' for Active; 'I' for Inactive)
REMARK    1  A    between atoms: O_1  and  C_2
REMARK    2  A    between atoms: C_2  and  C_3
REMARK    3  A    between atoms: C_2  and  C_12
REMARK    4  A    between atoms: C_3  and  N_4
REMARK    5  A    between atoms: N_4  and  C_5
REMARK    6  A    between atoms: C_5  and  C_6
REMARK                            x       y       z     vdW  Elec       q    Type
REMARK                         _______ _______ _______ _____ _____    ______ ____
ROOT
ATOM      1  C   UNL     1       2.645   6.686  19.452  0.00  0.00    +0.000 C 
ENDROOT
BRANCH   1   2
ATOM      2  N   UNL     1       2.706   6.643  17.980  0.00  0.00    +0.000 NA
ATOM      3  H   UNL     1       1.919   7.169  17.603  0.00  0.00    +0.000 HD
BRANCH   2   4
ATOM      4  C   UNL     1       3.930   7.277  17.487  0.00  0.00    +0.000 C 
BRANCH   4   5
ATOM      5  C   UNL     1       4.979   6.226  17.213  0.00  0.00    +0.000 A 
ATOM      6  C   UNL     1       6.263   6.331  17.767  0.00  0.00    +0.000 A 
ATOM      7  C   UNL     1       7.242   5.381  17.468  0.00  0.00    +0.000 A 
ATOM      8  C   UNL     1       6.947   4.319  16.615  0.00  0.00    +0.000 A 
ATOM      9  C   UNL     1       5.677   4.207  16.055  0.00  0.00    +0.000 A 
ATOM     10  C   UNL     1       4.697   5.157  16.349  0.00  0.00    +0.000 A 
ENDBRANCH   4   5
ENDBRANCH   2   4
ENDBRANCH   1   2
BRANCH   1  11
ATOM     11  C   UNL     1       2.026   5.384  20.014  0.00  0.00    +0.000 C 
BRANCH  11  12
ATOM     12  C   UNL     1       2.550   4.133  19.343  0.00  0.00    +0.000 A 
ATOM     13  C   UNL     1       3.811   3.622  19.686  0.00  0.00    +0.000 A 
ATOM     14  C   UNL     1       4.322   2.495  19.039  0.00  0.00    +0.000 A 
ATOM     15  C   UNL     1       3.576   1.861  18.048  0.00  0.00    +0.000 A 
ATOM     16  C   UNL     1       2.318   2.351  17.704  0.00  0.00    +0.000 A 
ATOM     17  C   UNL     1       1.811   3.481  18.345  0.00  0.00    +0.000 A 
ENDBRANCH  11  12
BRANCH  11  18
ATOM     18  O   UNL     1       2.312   5.287  21.415  0.00  0.00    +0.000 OA
ATOM     19  H   UNL     1       2.021   6.135  21.794  0.00  0.00    +0.000 HD
ENDBRANCH  11  18
ENDBRANCH   1  11
TORSDOF 6
ENDMDL
