MODEL 1
REMARK VINA RESULT:      -8.4      0.000      0.000
REMARK  Name = 
REMARK  8 active torsions:
REMARK  status: ('A' for Active; 'I' for Inactive)
REMARK    1  A    between atoms: C_1  and  O_2
REMARK    2  A    between atoms: O_2  and  N_3
REMARK    3  A    between atoms: C_4  and  C_5
REMARK    4  A    between atoms: C_4  and  C_10
REMARK    5  A    between atoms: C_15  and  C_16
REMARK    6  A    between atoms: C_16  and  O_17
REMARK    7  A    between atoms: O_17  and  C_18
REMARK    8  A    between atoms: C_21  and  C_22
REMARK                            x       y       z     vdW  Elec       q    Type
REMARK                         _______ _______ _______ _____ _____    ______ ____
ROOT
ATOM      1  C   UNL     1       3.772   3.750  18.352  0.00  0.00    +0.000 A 
ATOM      2  C   UNL     1       3.326   2.462  17.993  0.00  0.00    +0.000 A 
ATOM      3  C   UNL     1       2.020   2.017  18.198  0.00  0.00    +0.000 A 
ATOM      4  C   UNL     1       1.117   2.836  18.836  0.00  0.00    +0.000 A 
ATOM      5  C   UNL     1       1.535   4.088  19.283  0.00  0.00    +0.000 A 
ATOM      6  C   UNL     1       2.860   4.560  19.077  0.00  0.00    +0.000 A 
ENDROOT
BRANCH   1   8
ATOM      7  N   UNL     1       6.072   4.184  18.967  0.00  0.00    +0.000 NA
ATOM      8  C   UNL     1       5.194   4.177  17.996  0.00  0.00    +0.000 C 
BRANCH   8   9
ATOM      9  C   UNL     1       5.548   4.577  16.598  0.00  0.00    +0.000 A 
ATOM     10  C   UNL     1       6.070   3.830  15.496  0.00  0.00    +0.000 A 
ATOM     11  C   UNL     1       6.244   4.731  14.480  0.00  0.00    +0.000 A 
ATOM     12  O   UNL     1       5.858   5.950  14.905  0.00  0.00    +0.000 OA
ATOM     13  N   UNL     1       5.396   5.859  16.197  0.00  0.00    +0.000 NA
ENDBRANCH   8   9
BRANCH   7  15
ATOM     14  C   UNL     1       7.723   5.771  19.244  0.00  0.00    +0.000 C 
ATOM     15  O   UNL     1       7.360   4.574  18.570  0.00  0.00    +0.000 OA
ENDBRANCH   7  15
ENDBRANCH   1   8
BRANCH   6  16
ATOM     16  C   UNL     1       3.143   5.924  19.684  0.00  0.00    +0.000 C 
BRANCH  16  17
ATOM     17  O   UNL     1       2.934   6.929  18.692  0.00  0.00    +0.000 OA
BRANCH  17  18
ATOM     18  C   UNL     1       2.110   7.974  19.015  0.00  0.00    +0.000 A 
ATOM     19  C   UNL     1       1.703   8.767  17.939  0.00  0.00    +0.000 A 
ATOM     20  C   UNL     1       0.780   9.799  18.122  0.00  0.00    +0.000 A 
ATOM     21  C   UNL     1       0.235  10.050  19.386  0.00  0.00    +0.000 A 
ATOM     22  C   UNL     1      -0.817  11.103  19.584  0.00  0.00    +0.000 C 
ATOM     23  C   UNL     1       0.655   9.267  20.463  0.00  0.00    +0.000 A 
ATOM     24  C   UNL     1       1.584   8.236  20.282  0.00  0.00    +0.000 A 
ENDBRANCH  17  18
ENDBRANCH  16  17
ENDBRANCH   6  16
TORSDOF 6
ENDMDL
MODEL 2
REMARK VINA RESULT:      -8.3      0.687      1.194
REMARK  Name = 
REMARK  8 active torsions:
REMARK  status: ('A' for Active; 'I' for Inactive)
REMARK    1  A    between atoms: C_1  and  O_2
REMARK    2  A    between atoms: O_2  and  N_3
REMARK    3  A    between atoms: C_4  and  C_5
REMARK    4  A    between atoms: C_4  and  C_10
REMARK    5  A    between atoms: C_15  and  C_16
REMARK    6  A    between atoms: C_16  and  O_17
REMARK    7  A    between atoms: O_17  and  C_18
REMARK    8  A    between atoms: C_21  and  C_22
REMARK                            x       y       z     vdW  Elec       q    Type
REMARK                         _______ _______ _______ _____ _____    ______ ____
ROOT
ATOM      1  C   UNL     1       3.916   3.852  18.006  0.00  0.00    +0.000 A 
ATOM      2  C   UNL     1       3.587   2.494  18.189  0.00  0.00    +0.000 A 
ATOM      3  C   UNL     1       2.279   2.035  18.342  0.00  0.00    +0.000 A 
ATOM      4  C   UNL     1       1.242   2.939  18.378  0.00  0.00    +0.000 A 
ATOM      5  C   UNL     1       1.527   4.300  18.283  0.00  0.00    +0.000 A 
ATOM      6  C   UNL     1       2.854   4.785  18.121  0.00  0.00    +0.000 A 
ENDROOT
BRANCH   1   8
ATOM      7  N   UNL     1       6.162   4.296  18.790  0.00  0.00    +0.000 NA
ATOM      8  C   UNL     1       5.370   4.243  17.749  0.00  0.00    +0.000 C 
BRANCH   8   9
ATOM      9  C   UNL     1       5.846   4.559  16.366  0.00  0.00    +0.000 A 
ATOM     10  C   UNL     1       6.265   3.719  15.286  0.00  0.00    +0.000 A 
ATOM     11  C   UNL     1       6.643   4.564  14.278  0.00  0.00    +0.000 A 
ATOM     12  O   UNL     1       6.473   5.836  14.686  0.00  0.00    +0.000 OA
ATOM     13  N   UNL     1       5.951   5.843  15.959  0.00  0.00    +0.000 NA
ENDBRANCH   8   9
BRANCH   7  15
ATOM     14  C   UNL     1       7.835   5.834  19.184  0.00  0.00    +0.000 C 
ATOM     15  O   UNL     1       7.485   4.649  18.482  0.00  0.00    +0.000 OA
ENDBRANCH   7  15
ENDBRANCH   1   8
BRANCH   6  16
ATOM     16  C   UNL     1       2.970   6.300  18.092  0.00  0.00    +0.000 C 
BRANCH  16  17
ATOM     17  O   UNL     1       2.773   6.808  19.412  0.00  0.00    +0.000 OA
BRANCH  17  18
ATOM     18  C   UNL     1       1.943   7.888  19.556  0.00  0.00    +0.000 A 
ATOM     19  C   UNL     1       1.389   8.048  20.828  0.00  0.00    +0.000 A 
ATOM     20  C   UNL     1       0.611   9.167  21.132  0.00  0.00    +0.000 A 
ATOM     21  C   UNL     1       0.382  10.157  20.170  0.00  0.00    +0.000 A 
ATOM     22  C   UNL     1      -0.386  11.403  20.504  0.00  0.00    +0.000 C 
ATOM     23  C   UNL     1       0.923   9.987  18.893  0.00  0.00    +0.000 A 
ATOM     24  C   UNL     1       1.699   8.863  18.586  0.00  0.00    +0.000 A 
ENDBRANCH  17  18
ENDBRANCH  16  17
ENDBRANCH   6  16
TORSDOF 6
ENDMDL
MODEL 3
REMARK VINA RESULT:      -8.2      1.089      1.211
REMARK  Name = 
REMARK  8 active torsions:
REMARK  status: ('A' for Active; 'I' for Inactive)
REMARK    1  A    between atoms: C_1  and  O_2
REMARK    2  A    between atoms: O_2  and  N_3
REMARK    3  A    between atoms: C_4  and  C_5
REMARK    4  A    between atoms: C_4  and  C_10
REMARK    5  A    between atoms: C_15  and  C_16
REMARK    6  A    between atoms: C_16  and  O_17
REMARK    7  A    between atoms: O_17  and  C_18
REMARK    8  A    between atoms: C_21  and  C_22
REMARK                            x       y       z     vdW  Elec       q    Type
REMARK                         _______ _______ _______ _____ _____    ______ ____
ROOT
ATOM      1  C   UNL     1       4.181   4.155  17.698  0.00  0.00    +0.000 A 
ATOM      2  C   UNL     1       3.699   2.832  17.657  0.00  0.00    +0.000 A 
ATOM      3  C   UNL     1       2.342   2.509  17.697  0.00  0.00    +0.000 A 
ATOM      4  C   UNL     1       1.410   3.511  17.845  0.00  0.00    +0.000 A 
ATOM      5  C   UNL     1       1.845   4.828  17.972  0.00  0.00    +0.000 A 
ATOM      6  C   UNL     1       3.224   5.176  17.926  0.00  0.00    +0.000 A 
ENDROOT
BRANCH   1   8
ATOM      7  N   UNL     1       6.392   4.423  18.646  0.00  0.00    +0.000 NA
ATOM      8  C   UNL     1       5.680   4.411  17.548  0.00  0.00    +0.000 C 
BRANCH   8   9
ATOM      9  C   UNL     1       6.287   4.646  16.200  0.00  0.00    +0.000 A 
ATOM     10  C   UNL     1       6.205   3.911  14.976  0.00  0.00    +0.000 A 
ATOM     11  C   UNL     1       7.009   4.571  14.086  0.00  0.00    +0.000 A 
ATOM     12  O   UNL     1       7.553   5.640  14.699  0.00  0.00    +0.000 OA
ATOM     13  N   UNL     1       7.088   5.714  15.991  0.00  0.00    +0.000 NA
ENDBRANCH   8   9
BRANCH   7  15
ATOM     14  C   UNL     1       8.196   5.721  19.264  0.00  0.00    +0.000 C 
ATOM     15  O   UNL     1       7.760   4.651  18.437  0.00  0.00    +0.000 OA
ENDBRANCH   7  15
ENDBRANCH   1   8
BRANCH   6  16
ATOM     16  C   UNL     1       3.505   6.654  18.138  0.00  0.00    +0.000 C 
BRANCH  16  17
ATOM     17  O   UNL     1       2.298   7.391  17.949  0.00  0.00    +0.000 OA
BRANCH  17  18
ATOM     18  C   UNL     1       1.847   8.146  19.000  0.00  0.00    +0.000 A 
ATOM     19  C   UNL     1       1.330   9.397  18.656  0.00  0.00    +0.000 A 
ATOM     20  C   UNL     1       0.743  10.217  19.623  0.00  0.00    +0.000 A 
ATOM     21  C   UNL     1       0.651   9.793  20.953  0.00  0.00    +0.000 A 
ATOM     22  C   UNL     1      -0.047  10.627  21.989  0.00  0.00    +0.000 C 
ATOM     23  C   UNL     1       1.183   8.549  21.298  0.00  0.00    +0.000 A 
ATOM     24  C   UNL     1       1.776   7.729  20.331  0.00  0.00    +0.000 A 
ENDBRANCH  17  18
ENDBRANCH  16  17
ENDBRANCH   6  16
TORSDOF 6
ENDMDL
MODEL 4
REMARK VINA RESULT:      -8.1      1.035      2.358
REMARK  Name = 
REMARK  8 active torsions:
REMARK  status: ('A' for Active; 'I' for Inactive)
REMARK    1  A    between atoms: C_1  and  O_2
REMARK    2  A    between atoms: O_2  and  N_3
REMARK    3  A    between atoms: C_4  and  C_5
REMARK    4  A    between atoms: C_4  and  C_10
REMARK    5  A    between atoms: C_15  and  C_16
REMARK    6  A    between atoms: C_16  and  O_17
REMARK    7  A    between atoms: O_17  and  C_18
REMARK    8  A    between atoms: C_21  and  C_22
REMARK                            x       y       z     vdW  Elec       q    Type
REMARK                         _______ _______ _______ _____ _____    ______ ____
ROOT
ATOM      1  C   UNL     1       3.889   3.836  17.498  0.00  0.00    +0.000 A 
ATOM      2  C   UNL     1       3.580   2.479  17.715  0.00  0.00    +0.000 A 
ATOM      3  C   UNL     1       2.319   2.035  18.117  0.00  0.00    +0.000 A 
ATOM      4  C   UNL     1       1.328   2.953  18.378  0.00  0.00    +0.000 A 
ATOM      5  C   UNL     1       1.612   4.311  18.255  0.00  0.00    +0.000 A 
ATOM      6  C   UNL     1       2.889   4.781  17.841  0.00  0.00    +0.000 A 
ENDROOT
BRANCH   1   8
ATOM      7  N   UNL     1       5.555   3.839  15.742  0.00  0.00    +0.000 NA
ATOM      8  C   UNL     1       5.270   4.213  16.964  0.00  0.00    +0.000 C 
BRANCH   8   9
ATOM      9  C   UNL     1       6.244   4.965  17.816  0.00  0.00    +0.000 A 
ATOM     10  C   UNL     1       6.974   6.174  17.591  0.00  0.00    +0.000 A 
ATOM     11  C   UNL     1       7.753   6.355  18.701  0.00  0.00    +0.000 A 
ATOM     12  O   UNL     1       7.530   5.344  19.562  0.00  0.00    +0.000 OA
ATOM     13  N   UNL     1       6.577   4.500  19.040  0.00  0.00    +0.000 NA
ENDBRANCH   8   9
BRANCH   7  15
ATOM     14  C   UNL     1       6.772   4.635  13.951  0.00  0.00    +0.000 C 
ATOM     15  O   UNL     1       6.833   4.227  15.310  0.00  0.00    +0.000 OA
ENDBRANCH   7  15
ENDBRANCH   1   8
BRANCH   6  16
ATOM     16  C   UNL     1       3.025   6.295  17.820  0.00  0.00    +0.000 C 
BRANCH  16  17
ATOM     17  O   UNL     1       2.968   6.787  19.159  0.00  0.00    +0.000 OA
BRANCH  17  18
ATOM     18  C   UNL     1       2.132   7.842  19.410  0.00  0.00    +0.000 A 
ATOM     19  C   UNL     1       1.859   8.661  18.312  0.00  0.00    +0.000 A 
ATOM     20  C   UNL     1       0.939   9.708  18.413  0.00  0.00    +0.000 A 
ATOM     21  C   UNL     1       0.265   9.948  19.615  0.00  0.00    +0.000 A 
ATOM     22  C   UNL     1      -0.784  11.017  19.718  0.00  0.00    +0.000 C 
ATOM     23  C   UNL     1       0.551   9.138  20.716  0.00  0.00    +0.000 A 
ATOM     24  C   UNL     1       1.476   8.092  20.617  0.00  0.00    +0.000 A 
ENDBRANCH  17  18
ENDBRANCH  16  17
ENDBRANCH   6  16
TORSDOF 6
ENDMDL
MODEL 5
REMARK VINA RESULT:      -8.1      0.748      1.264
REMARK  Name = 
REMARK  8 active torsions:
REMARK  status: ('A' for Active; 'I' for Inactive)
REMARK    1  A    between atoms: C_1  and  O_2
REMARK    2  A    between atoms: O_2  and  N_3
REMARK    3  A    between atoms: C_4  and  C_5
REMARK    4  A    between atoms: C_4  and  C_10
REMARK    5  A    between atoms: C_15  and  C_16
REMARK    6  A    between atoms: C_16  and  O_17
REMARK    7  A    between atoms: O_17  and  C_18
REMARK    8  A    between atoms: C_21  and  C_22
REMARK                            x       y       z     vdW  Elec       q    Type
REMARK                         _______ _______ _______ _____ _____    ______ ____
ROOT
ATOM      1  C   UNL     1       3.722   3.705  18.412  0.00  0.00    +0.000 A 
ATOM      2  C   UNL     1       3.250   2.420  18.079  0.00  0.00    +0.000 A 
ATOM      3  C   UNL     1       1.944   1.995  18.325  0.00  0.00    +0.000 A 
ATOM      4  C   UNL     1       1.069   2.832  18.978  0.00  0.00    +0.000 A 
ATOM      5  C   UNL     1       1.515   4.083  19.399  0.00  0.00    +0.000 A 
ATOM      6  C   UNL     1       2.841   4.535  19.152  0.00  0.00    +0.000 A 
ENDROOT
BRANCH   1   8
ATOM      7  N   UNL     1       6.028   4.178  18.971  0.00  0.00    +0.000 NA
ATOM      8  C   UNL     1       5.139   4.110  18.013  0.00  0.00    +0.000 C 
BRANCH   8   9
ATOM      9  C   UNL     1       5.475   4.422  16.588  0.00  0.00    +0.000 A 
ATOM     10  C   UNL     1       5.393   5.633  15.832  0.00  0.00    +0.000 A 
ATOM     11  C   UNL     1       5.786   5.311  14.561  0.00  0.00    +0.000 A 
ATOM     12  O   UNL     1       6.095   4.001  14.518  0.00  0.00    +0.000 OA
ATOM     13  N   UNL     1       5.939   3.452  15.770  0.00  0.00    +0.000 NA
ENDBRANCH   8   9
BRANCH   7  15
ATOM     14  C   UNL     1       7.687   5.772  19.138  0.00  0.00    +0.000 C 
ATOM     15  O   UNL     1       7.311   4.543  18.534  0.00  0.00    +0.000 OA
ENDBRANCH   7  15
ENDBRANCH   1   8
BRANCH   6  16
ATOM     16  C   UNL     1       3.158   5.902  19.736  0.00  0.00    +0.000 C 
BRANCH  16  17
ATOM     17  O   UNL     1       3.061   6.884  18.705  0.00  0.00    +0.000 OA
BRANCH  17  18
ATOM     18  C   UNL     1       2.153   7.895  18.878  0.00  0.00    +0.000 A 
ATOM     19  C   UNL     1       1.685   8.059  20.183  0.00  0.00    +0.000 A 
ATOM     20  C   UNL     1       0.837   9.121  20.510  0.00  0.00    +0.000 A 
ATOM     21  C   UNL     1       0.450  10.047  19.535  0.00  0.00    +0.000 A 
ATOM     22  C   UNL     1      -0.396  11.237  19.886  0.00  0.00    +0.000 C 
ATOM     23  C   UNL     1       0.905   9.871  18.226  0.00  0.00    +0.000 A 
ATOM     24  C   UNL     1       1.751   8.806  17.897  0.00  0.00    +0.000 A 
ENDBRANCH  17  18
ENDBRANCH  16  17
ENDBRANCH   6  16
TORSDOF 6
ENDMDL
MODEL 6
REMARK VINA RESULT:      -7.9      1.105      2.698
REMARK  Name = 
REMARK  8 active torsions:
REMARK  status: ('A' for Active; 'I' for Inactive)
REMARK    1  A    between atoms: C_1  and  O_2
REMARK    2  A    between atoms: O_2  and  N_3
REMARK    3  A    between atoms: C_4  and  C_5
REMARK    4  A    between atoms: C_4  and  C_10
REMARK    5  A    between atoms: C_15  and  C_16
REMARK    6  A    between atoms: C_16  and  O_17
REMARK    7  A    between atoms: O_17  and  C_18
REMARK    8  A    between atoms: C_21  and  C_22
REMARK                            x       y       z     vdW  Elec       q    Type
REMARK                         _______ _______ _______ _____ _____    ______ ____
ROOT
ATOM      1  C   UNL     1       3.886   4.416  17.296  0.00  0.00    +0.000 A 
ATOM      2  C   UNL     1       3.660   3.025  17.281  0.00  0.00    +0.000 A 
ATOM      3  C   UNL     1       2.466   2.438  17.702  0.00  0.00    +0.000 A 
ATOM      4  C   UNL     1       1.465   3.229  18.217  0.00  0.00    +0.000 A 
ATOM      5  C   UNL     1       1.675   4.602  18.326  0.00  0.00    +0.000 A 
ATOM      6  C   UNL     1       2.883   5.218  17.897  0.00  0.00    +0.000 A 
ENDROOT
BRANCH   1   8
ATOM      7  N   UNL     1       5.265   5.077  15.420  0.00  0.00    +0.000 NA
ATOM      8  C   UNL     1       5.190   4.968  16.722  0.00  0.00    +0.000 C 
BRANCH   8   9
ATOM      9  C   UNL     1       6.322   5.351  17.622  0.00  0.00    +0.000 A 
ATOM     10  C   UNL     1       6.895   6.620  17.947  0.00  0.00    +0.000 A 
ATOM     11  C   UNL     1       7.944   6.356  18.786  0.00  0.00    +0.000 A 
ATOM     12  O   UNL     1       8.025   5.026  18.979  0.00  0.00    +0.000 OA
ATOM     13  N   UNL     1       7.010   4.400  18.293  0.00  0.00    +0.000 NA
ENDBRANCH   8   9
BRANCH   7  15
ATOM     14  C   UNL     1       7.040   4.729  13.988  0.00  0.00    +0.000 C 
ATOM     15  O   UNL     1       6.483   5.602  14.961  0.00  0.00    +0.000 OA
ENDBRANCH   7  15
ENDBRANCH   1   8
BRANCH   6  16
ATOM     16  C   UNL     1       2.948   6.715  18.148  0.00  0.00    +0.000 C 
BRANCH  16  17
ATOM     17  O   UNL     1       2.623   6.974  19.514  0.00  0.00    +0.000 OA
BRANCH  17  18
ATOM     18  C   UNL     1       1.773   8.016  19.775  0.00  0.00    +0.000 A 
ATOM     19  C   UNL     1       1.293   8.079  21.085  0.00  0.00    +0.000 A 
ATOM     20  C   UNL     1       0.503   9.152  21.505  0.00  0.00    +0.000 A 
ATOM     21  C   UNL     1       0.188  10.191  20.622  0.00  0.00    +0.000 A 
ATOM     22  C   UNL     1      -0.593  11.389  21.079  0.00  0.00    +0.000 C 
ATOM     23  C   UNL     1       0.656  10.118  19.308  0.00  0.00    +0.000 A 
ATOM     24  C   UNL     1       1.443   9.040  18.885  0.00  0.00    +0.000 A 
ENDBRANCH  17  18
ENDBRANCH  16  17
ENDBRANCH   6  16
TORSDOF 6
ENDMDL
MODEL 7
REMARK VINA RESULT:      -7.7      1.296      2.377
REMARK  Name = 
REMARK  8 active torsions:
REMARK  status: ('A' for Active; 'I' for Inactive)
REMARK    1  A    between atoms: C_1  and  O_2
REMARK    2  A    between atoms: O_2  and  N_3
REMARK    3  A    between atoms: C_4  and  C_5
REMARK    4  A    between atoms: C_4  and  C_10
REMARK    5  A    between atoms: C_15  and  C_16
REMARK    6  A    between atoms: C_16  and  O_17
REMARK    7  A    between atoms: O_17  and  C_18
REMARK    8  A    between atoms: C_21  and  C_22
REMARK                            x       y       z     vdW  Elec       q    Type
REMARK                         _______ _______ _______ _____ _____    ______ ____
ROOT
ATOM      1  C   UNL     1       3.935   3.986  18.768  0.00  0.00    +0.000 A 
ATOM      2  C   UNL     1       4.060   3.008  19.775  0.00  0.00    +0.000 A 
ATOM      3  C   UNL     1       3.029   2.676  20.654  0.00  0.00    +0.000 A 
ATOM      4  C   UNL     1       1.840   3.366  20.596  0.00  0.00    +0.000 A 
ATOM      5  C   UNL     1       1.699   4.397  19.671  0.00  0.00    +0.000 A 
ATOM      6  C   UNL     1       2.737   4.745  18.763  0.00  0.00    +0.000 A 
ENDROOT
BRANCH   1   8
ATOM      7  N   UNL     1       5.053   3.532  16.670  0.00  0.00    +0.000 NA
ATOM      8  C   UNL     1       5.088   4.207  17.791  0.00  0.00    +0.000 C 
BRANCH   8   9
ATOM      9  C   UNL     1       6.205   5.147  18.123  0.00  0.00    +0.000 A 
ATOM     10  C   UNL     1       6.548   6.438  17.611  0.00  0.00    +0.000 A 
ATOM     11  C   UNL     1       7.702   6.801  18.250  0.00  0.00    +0.000 A 
ATOM     12  O   UNL     1       8.058   5.820  19.101  0.00  0.00    +0.000 OA
ATOM     13  N   UNL     1       7.124   4.811  19.054  0.00  0.00    +0.000 NA
ENDBRANCH   8   9
BRANCH   7  15
ATOM     14  C   UNL     1       5.649   4.240  14.557  0.00  0.00    +0.000 C 
ATOM     15  O   UNL     1       6.134   3.791  15.814  0.00  0.00    +0.000 OA
ENDBRANCH   7  15
ENDBRANCH   1   8
BRANCH   6  16
ATOM     16  C   UNL     1       2.418   5.932  17.869  0.00  0.00    +0.000 C 
BRANCH  16  17
ATOM     17  O   UNL     1       3.009   7.106  18.424  0.00  0.00    +0.000 OA
BRANCH  17  18
ATOM     18  C   UNL     1       2.165   8.061  18.928  0.00  0.00    +0.000 A 
ATOM     19  C   UNL     1       1.662   8.966  17.992  0.00  0.00    +0.000 A 
ATOM     20  C   UNL     1       0.712   9.921  18.361  0.00  0.00    +0.000 A 
ATOM     21  C   UNL     1       0.237   9.980  19.676  0.00  0.00    +0.000 A 
ATOM     22  C   UNL     1      -0.841  10.948  20.070  0.00  0.00    +0.000 C 
ATOM     23  C   UNL     1       0.754   9.085  20.615  0.00  0.00    +0.000 A 
ATOM     24  C   UNL     1       1.710   8.130  20.246  0.00  0.00    +0.000 A 
ENDBRANCH  17  18
ENDBRANCH  16  17
ENDBRANCH   6  16
TORSDOF 6
ENDMDL
MODEL 8
REMARK VINA RESULT:      -7.7      1.237      1.337
REMARK  Name = 
REMARK  8 active torsions:
REMARK  status: ('A' for Active; 'I' for Inactive)
REMARK    1  A    between atoms: C_1  and  O_2
REMARK    2  A    between atoms: O_2  and  N_3
REMARK    3  A    between atoms: C_4  and  C_5
REMARK    4  A    between atoms: C_4  and  C_10
REMARK    5  A    between atoms: C_15  and  C_16
REMARK    6  A    between atoms: C_16  and  O_17
REMARK    7  A    between atoms: O_17  and  C_18
REMARK    8  A    between atoms: C_21  and  C_22
REMARK                            x       y       z     vdW  Elec       q    Type
REMARK                         _______ _______ _______ _____ _____    ______ ____
ROOT
ATOM      1  C   UNL     1       3.702   4.195  19.293  0.00  0.00    +0.000 A 
ATOM      2  C   UNL     1       3.419   2.916  19.812  0.00  0.00    +0.000 A 
ATOM      3  C   UNL     1       2.175   2.558  20.332  0.00  0.00    +0.000 A 
ATOM      4  C   UNL     1       1.175   3.500  20.409  0.00  0.00    +0.000 A 
ATOM      5  C   UNL     1       1.435   4.800  19.982  0.00  0.00    +0.000 A 
ATOM      6  C   UNL     1       2.695   5.181  19.443  0.00  0.00    +0.000 A 
ENDROOT
BRANCH   1   8
ATOM      7  N   UNL     1       6.105   4.438  19.449  0.00  0.00    +0.000 NA
ATOM      8  C   UNL     1       5.065   4.459  18.655  0.00  0.00    +0.000 C 
BRANCH   8   9
ATOM      9  C   UNL     1       5.185   4.740  17.190  0.00  0.00    +0.000 A 
ATOM     10  C   UNL     1       5.284   5.966  16.459  0.00  0.00    +0.000 A 
ATOM     11  C   UNL     1       5.317   5.614  15.137  0.00  0.00    +0.000 A 
ATOM     12  O   UNL     1       5.248   4.272  15.040  0.00  0.00    +0.000 OA
ATOM     13  N   UNL     1       5.200   3.723  16.301  0.00  0.00    +0.000 NA
ENDBRANCH   8   9
BRANCH   7  15
ATOM     14  C   UNL     1       7.888   5.891  19.274  0.00  0.00    +0.000 C 
ATOM     15  O   UNL     1       7.325   4.676  18.799  0.00  0.00    +0.000 OA
ENDBRANCH   7  15
ENDBRANCH   1   8
BRANCH   6  16
ATOM     16  C   UNL     1       2.805   6.654  19.086  0.00  0.00    +0.000 C 
BRANCH  16  17
ATOM     17  O   UNL     1       2.313   7.437  20.173  0.00  0.00    +0.000 OA
BRANCH  17  18
ATOM     18  C   UNL     1       1.482   8.483  19.874  0.00  0.00    +0.000 A 
ATOM     19  C   UNL     1       1.529   8.921  18.549  0.00  0.00    +0.000 A 
ATOM     20  C   UNL     1       0.655   9.911  18.092  0.00  0.00    +0.000 A 
ATOM     21  C   UNL     1      -0.293  10.474  18.953  0.00  0.00    +0.000 A 
ATOM     22  C   UNL     1      -1.291  11.481  18.459  0.00  0.00    +0.000 C 
ATOM     23  C   UNL     1      -0.328  10.047  20.282  0.00  0.00    +0.000 A 
ATOM     24  C   UNL     1       0.551   9.058  20.742  0.00  0.00    +0.000 A 
ENDBRANCH  17  18
ENDBRANCH  16  17
ENDBRANCH   6  16
TORSDOF 6
ENDMDL
MODEL 9
REMARK VINA RESULT:      -7.6      1.460      2.495
REMARK  Name = 
REMARK  8 active torsions:
REMARK  status: ('A' for Active; 'I' for Inactive)
REMARK    1  A    between atoms: C_1  and  O_2
REMARK    2  A    between atoms: O_2  and  N_3
REMARK    3  A    between atoms: C_4  and  C_5
REMARK    4  A    between atoms: C_4  and  C_10
REMARK    5  A    between atoms: C_15  and  C_16
REMARK    6  A    between atoms: C_16  and  O_17
REMARK    7  A    between atoms: O_17  and  C_18
REMARK    8  A    between atoms: C_21  and  C_22
REMARK                            x       y       z     vdW  Elec       q    Type
REMARK                         _______ _______ _______ _____ _____    ______ ____
ROOT
ATOM      1  C   UNL     1       4.404   4.157  18.362  0.00  0.00    +0.000 A 
ATOM      2  C   UNL     1       4.669   3.140  19.301  0.00  0.00    +0.000 A 
ATOM      3  C   UNL     1       3.737   2.702  20.242  0.00  0.00    +0.000 A 
ATOM      4  C   UNL     1       2.508   3.317  20.316  0.00  0.00    +0.000 A 
ATOM      5  C   UNL     1       2.230   4.382  19.462  0.00  0.00    +0.000 A 
ATOM      6  C   UNL     1       3.166   4.838  18.493  0.00  0.00    +0.000 A 
ENDROOT
BRANCH   1   8
ATOM      7  N   UNL     1       5.549   3.692  16.281  0.00  0.00    +0.000 NA
ATOM      8  C   UNL     1       5.456   4.497  17.309  0.00  0.00    +0.000 C 
BRANCH   8   9
ATOM      9  C   UNL     1       6.341   5.694  17.468  0.00  0.00    +0.000 A 
ATOM     10  C   UNL     1       7.445   5.955  18.338  0.00  0.00    +0.000 A 
ATOM     11  C   UNL     1       7.837   7.240  18.075  0.00  0.00    +0.000 A 
ATOM     12  O   UNL     1       7.045   7.749  17.111  0.00  0.00    +0.000 OA
ATOM     13  N   UNL     1       6.142   6.793  16.707  0.00  0.00    +0.000 NA
ENDBRANCH   8   9
BRANCH   7  15
ATOM     14  C   UNL     1       5.973   4.030  14.039  0.00  0.00    +0.000 C 
ATOM     15  O   UNL     1       6.526   4.069  15.347  0.00  0.00    +0.000 OA
ENDBRANCH   7  15
ENDBRANCH   1   8
BRANCH   6  16
ATOM     16  C   UNL     1       2.705   6.044  17.693  0.00  0.00    +0.000 C 
BRANCH  16  17
ATOM     17  O   UNL     1       3.127   7.235  18.357  0.00  0.00    +0.000 OA
BRANCH  17  18
ATOM     18  C   UNL     1       2.155   8.101  18.782  0.00  0.00    +0.000 A 
ATOM     19  C   UNL     1       1.817   8.001  20.134  0.00  0.00    +0.000 A 
ATOM     20  C   UNL     1       0.916   8.898  20.712  0.00  0.00    +0.000 A 
ATOM     21  C   UNL     1       0.343   9.922  19.950  0.00  0.00    +0.000 A 
ATOM     22  C   UNL     1      -0.566  10.941  20.574  0.00  0.00    +0.000 C 
ATOM     23  C   UNL     1       0.669  10.009  18.594  0.00  0.00    +0.000 A 
ATOM     24  C   UNL     1       1.569   9.108  18.013  0.00  0.00    +0.000 A 
ENDBRANCH  17  18
ENDBRANCH  16  17
ENDBRANCH   6  16
TORSDOF 6
ENDMDL
