MODEL 1
REMARK VINA RESULT:      -8.2      0.000      0.000
REMARK  Name = 
REMARK  7 active torsions:
REMARK  status: ('A' for Active; 'I' for Inactive)
REMARK    1  A    between atoms: C_2  and  C_3
REMARK    2  A    between atoms: C_6  and  C_7
REMARK    3  A    between atoms: C_7  and  O_8
REMARK    4  A    between atoms: O_8  and  C_9
REMARK    5  A    between atoms: C_19  and  C_20
REMARK    6  A    between atoms: C_24  and  O_25
REMARK    7  A    between atoms: C_24  and  C_26
REMARK                            x       y       z     vdW  Elec       q    Type
REMARK                         _______ _______ _______ _____ _____    ______ ____
ROOT
ATOM      1  O   UNL     1       4.914   2.550  19.575  0.00  0.00    +0.000 OA
ATOM      2  C   UNL     1       4.776   3.776  19.484  0.00  0.00    +0.000 C 
ATOM      3  N   UNL     1       3.614   4.380  19.984  0.00  0.00    +0.000 N 
ATOM      4  N   UNL     1       3.369   5.731  19.857  0.00  0.00    +0.000 NA
ATOM      5  C   UNL     1       2.167   5.933  20.297  0.00  0.00    +0.000 C 
ATOM      6  C   UNL     1       1.515   4.761  20.950  0.00  0.00    +0.000 C 
ATOM      7  C   UNL     1       2.422   3.645  20.430  0.00  0.00    +0.000 C 
ENDROOT
BRANCH   2   8
ATOM      8  C   UNL     1       5.814   4.636  18.941  0.00  0.00    +0.000 A 
ATOM      9  C   UNL     1       6.970   5.142  19.508  0.00  0.00    +0.000 A 
ATOM     10  C   UNL     1       7.585   5.970  18.532  0.00  0.00    +0.000 A 
ATOM     11  C   UNL     1       6.788   5.902  17.411  0.00  0.00    +0.000 A 
ATOM     12  O   UNL     1       5.736   5.075  17.646  0.00  0.00    +0.000 OA
BRANCH  11  13
ATOM     13  C   UNL     1       6.809   6.564  16.082  0.00  0.00    +0.000 C 
BRANCH  13  14
ATOM     14  O   UNL     1       7.725   5.847  15.258  0.00  0.00    +0.000 OA
BRANCH  14  15
ATOM     15  C   UNL     1       7.180   5.079  14.265  0.00  0.00    +0.000 A 
ATOM     16  C   UNL     1       7.740   4.842  13.007  0.00  0.00    +0.000 A 
ATOM     17  C   UNL     1       7.084   4.016  12.087  0.00  0.00    +0.000 A 
ATOM     18  C   UNL     1       5.866   3.430  12.423  0.00  0.00    +0.000 A 
ATOM     19 CL   UNL     1       5.068   2.409  11.292  0.00  0.00    +0.000 Cl
ATOM     20  C   UNL     1       5.294   3.668  13.669  0.00  0.00    +0.000 A 
ATOM     21  C   UNL     1       5.951   4.493  14.586  0.00  0.00    +0.000 A 
ENDBRANCH  14  15
ENDBRANCH  13  14
ENDBRANCH  11  13
ENDBRANCH   2   8
BRANCH   5  22
ATOM     22  C   UNL     1       1.468   7.254  20.209  0.00  0.00    +0.000 C 
ATOM     23  F   UNL     1       1.431   7.870  21.421  0.00  0.00    +0.000 F 
ATOM     24  F   UNL     1       2.118   8.104  19.371  0.00  0.00    +0.000 F 
ENDBRANCH   5  22
BRANCH   7  25
ATOM     25  C   UNL     1       1.736   2.869  19.286  0.00  0.00    +0.000 C 
ATOM     26  F   UNL     1       0.383   2.902  19.448  0.00  0.00    +0.000 F 
ATOM     27  F   UNL     1       1.974   3.492  18.097  0.00  0.00    +0.000 F 
ENDBRANCH   7  25
BRANCH   7  28
ATOM     28  O   UNL     1       2.768   2.809  21.532  0.00  0.00    +0.000 OA
ATOM     29  H   UNL     1       3.739   2.823  21.591  0.00  0.00    +0.000 HD
ENDBRANCH   7  28
TORSDOF 7
ENDMDL
MODEL 2
REMARK VINA RESULT:      -8.1      0.459      1.108
REMARK  Name = 
REMARK  7 active torsions:
REMARK  status: ('A' for Active; 'I' for Inactive)
REMARK    1  A    between atoms: C_2  and  C_3
REMARK    2  A    between atoms: C_6  and  C_7
REMARK    3  A    between atoms: C_7  and  O_8
REMARK    4  A    between atoms: O_8  and  C_9
REMARK    5  A    between atoms: C_19  and  C_20
REMARK    6  A    between atoms: C_24  and  O_25
REMARK    7  A    between atoms: C_24  and  C_26
REMARK                            x       y       z     vdW  Elec       q    Type
REMARK                         _______ _______ _______ _____ _____    ______ ____
ROOT
ATOM      1  O   UNL     1       4.919   2.641  19.467  0.00  0.00    +0.000 OA
ATOM      2  C   UNL     1       4.783   3.869  19.416  0.00  0.00    +0.000 C 
ATOM      3  N   UNL     1       3.617   4.458  19.923  0.00  0.00    +0.000 N 
ATOM      4  N   UNL     1       3.374   5.813  19.839  0.00  0.00    +0.000 NA
ATOM      5  C   UNL     1       2.168   6.003  20.272  0.00  0.00    +0.000 C 
ATOM      6  C   UNL     1       1.508   4.810  20.879  0.00  0.00    +0.000 C 
ATOM      7  C   UNL     1       2.419   3.711  20.332  0.00  0.00    +0.000 C 
ENDROOT
BRANCH   2   8
ATOM      8  C   UNL     1       5.828   4.745  18.913  0.00  0.00    +0.000 A 
ATOM      9  C   UNL     1       6.892   5.357  19.551  0.00  0.00    +0.000 A 
ATOM     10  C   UNL     1       7.564   6.145  18.578  0.00  0.00    +0.000 A 
ATOM     11  C   UNL     1       6.891   5.949  17.391  0.00  0.00    +0.000 A 
ATOM     12  O   UNL     1       5.863   5.082  17.586  0.00  0.00    +0.000 OA
BRANCH  11  13
ATOM     13  C   UNL     1       7.018   6.511  16.023  0.00  0.00    +0.000 C 
BRANCH  13  14
ATOM     14  O   UNL     1       7.715   5.556  15.227  0.00  0.00    +0.000 OA
BRANCH  14  15
ATOM     15  C   UNL     1       6.966   4.848  14.327  0.00  0.00    +0.000 A 
ATOM     16  C   UNL     1       5.702   4.301  14.560  0.00  0.00    +0.000 A 
ATOM     17  C   UNL     1       5.033   3.614  13.540  0.00  0.00    +0.000 A 
ATOM     18  C   UNL     1       5.629   3.470  12.290  0.00  0.00    +0.000 A 
ATOM     19 CL   UNL     1       4.798   2.632  11.038  0.00  0.00    +0.000 Cl
ATOM     20  C   UNL     1       6.892   4.003  12.050  0.00  0.00    +0.000 A 
ATOM     21  C   UNL     1       7.558   4.688  13.069  0.00  0.00    +0.000 A 
ENDBRANCH  14  15
ENDBRANCH  13  14
ENDBRANCH  11  13
ENDBRANCH   2   8
BRANCH   5  22
ATOM     22  C   UNL     1       1.473   7.326  20.221  0.00  0.00    +0.000 C 
ATOM     23  F   UNL     1       1.453   7.917  21.446  0.00  0.00    +0.000 F 
ATOM     24  F   UNL     1       2.113   8.192  19.393  0.00  0.00    +0.000 F 
ENDBRANCH   5  22
BRANCH   7  25
ATOM     25  C   UNL     1       1.744   2.974  19.156  0.00  0.00    +0.000 C 
ATOM     26  F   UNL     1       2.144   3.521  17.973  0.00  0.00    +0.000 F 
ATOM     27  F   UNL     1       2.167   1.679  19.118  0.00  0.00    +0.000 F 
ENDBRANCH   7  25
BRANCH   7  28
ATOM     28  O   UNL     1       2.753   2.838  21.409  0.00  0.00    +0.000 OA
ATOM     29  H   UNL     1       3.700   2.639  21.316  0.00  0.00    +0.000 HD
ENDBRANCH   7  28
TORSDOF 7
ENDMDL
MODEL 3
REMARK VINA RESULT:      -8.0      0.558      1.216
REMARK  Name = 
REMARK  7 active torsions:
REMARK  status: ('A' for Active; 'I' for Inactive)
REMARK    1  A    between atoms: C_2  and  C_3
REMARK    2  A    between atoms: C_6  and  C_7
REMARK    3  A    between atoms: C_7  and  O_8
REMARK    4  A    between atoms: O_8  and  C_9
REMARK    5  A    between atoms: C_19  and  C_20
REMARK    6  A    between atoms: C_24  and  O_25
REMARK    7  A    between atoms: C_24  and  C_26
REMARK                            x       y       z     vdW  Elec       q    Type
REMARK                         _______ _______ _______ _____ _____    ______ ____
ROOT
ATOM      1  O   UNL     1       4.712   2.932  19.602  0.00  0.00    +0.000 OA
ATOM      2  C   UNL     1       4.691   4.160  19.458  0.00  0.00    +0.000 C 
ATOM      3  N   UNL     1       3.580   4.890  19.904  0.00  0.00    +0.000 N 
ATOM      4  N   UNL     1       3.464   6.251  19.717  0.00  0.00    +0.000 NA
ATOM      5  C   UNL     1       2.278   6.582  20.118  0.00  0.00    +0.000 C 
ATOM      6  C   UNL     1       1.507   5.504  20.803  0.00  0.00    +0.000 C 
ATOM      7  C   UNL     1       2.316   4.288  20.351  0.00  0.00    +0.000 C 
ENDROOT
BRANCH   2   8
ATOM      8  C   UNL     1       5.816   4.897  18.906  0.00  0.00    +0.000 A 
ATOM      9  C   UNL     1       6.994   5.333  19.485  0.00  0.00    +0.000 A 
ATOM     10  C   UNL     1       7.707   6.050  18.487  0.00  0.00    +0.000 A 
ATOM     11  C   UNL     1       6.941   5.988  17.344  0.00  0.00    +0.000 A 
ATOM     12  O   UNL     1       5.814   5.267  17.587  0.00  0.00    +0.000 OA
BRANCH  11  13
ATOM     13  C   UNL     1       7.059   6.569  15.983  0.00  0.00    +0.000 C 
BRANCH  13  14
ATOM     14  O   UNL     1       7.739   5.620  15.166  0.00  0.00    +0.000 OA
BRANCH  14  15
ATOM     15  C   UNL     1       6.965   4.896  14.299  0.00  0.00    +0.000 A 
ATOM     16  C   UNL     1       5.688   4.393  14.560  0.00  0.00    +0.000 A 
ATOM     17  C   UNL     1       4.995   3.684  13.572  0.00  0.00    +0.000 A 
ATOM     18  C   UNL     1       5.580   3.473  12.326  0.00  0.00    +0.000 A 
ATOM     19 CL   UNL     1       4.720   2.607  11.114  0.00  0.00    +0.000 Cl
ATOM     20  C   UNL     1       6.856   3.961  12.059  0.00  0.00    +0.000 A 
ATOM     21  C   UNL     1       7.546   4.669  13.046  0.00  0.00    +0.000 A 
ENDBRANCH  14  15
ENDBRANCH  13  14
ENDBRANCH  11  13
ENDBRANCH   2   8
BRANCH   5  22
ATOM     22  C   UNL     1       1.707   7.956  19.959  0.00  0.00    +0.000 C 
ATOM     23  F   UNL     1       1.392   8.208  18.660  0.00  0.00    +0.000 F 
ATOM     24  F   UNL     1       0.556   8.100  20.665  0.00  0.00    +0.000 F 
ENDBRANCH   5  22
BRANCH   7  25
ATOM     25  C   UNL     1       1.584   3.530  19.224  0.00  0.00    +0.000 C 
ATOM     26  F   UNL     1       0.374   3.088  19.669  0.00  0.00    +0.000 F 
ATOM     27  F   UNL     1       1.303   4.385  18.199  0.00  0.00    +0.000 F 
ENDBRANCH   7  25
BRANCH   7  28
ATOM     28  O   UNL     1       2.560   3.471  21.494  0.00  0.00    +0.000 OA
ATOM     29  H   UNL     1       2.241   3.974  22.262  0.00  0.00    +0.000 HD
ENDBRANCH   7  28
TORSDOF 7
ENDMDL
MODEL 4
REMARK VINA RESULT:      -8.0      5.068      8.683
REMARK  Name = 
REMARK  7 active torsions:
REMARK  status: ('A' for Active; 'I' for Inactive)
REMARK    1  A    between atoms: C_2  and  C_3
REMARK    2  A    between atoms: C_6  and  C_7
REMARK    3  A    between atoms: C_7  and  O_8
REMARK    4  A    between atoms: O_8  and  C_9
REMARK    5  A    between atoms: C_19  and  C_20
REMARK    6  A    between atoms: C_24  and  O_25
REMARK    7  A    between atoms: C_24  and  C_26
REMARK                            x       y       z     vdW  Elec       q    Type
REMARK                         _______ _______ _______ _____ _____    ______ ____
ROOT
ATOM      1  O   UNL     1       4.175   6.786  17.315  0.00  0.00    +0.000 OA
ATOM      2  C   UNL     1       3.358   6.638  18.231  0.00  0.00    +0.000 C 
ATOM      3  N   UNL     1       3.356   5.446  18.970  0.00  0.00    +0.000 N 
ATOM      4  N   UNL     1       2.431   5.191  19.961  0.00  0.00    +0.000 NA
ATOM      5  C   UNL     1       2.623   3.967  20.341  0.00  0.00    +0.000 C 
ATOM      6  C   UNL     1       3.832   3.300  19.776  0.00  0.00    +0.000 C 
ATOM      7  C   UNL     1       4.119   4.243  18.608  0.00  0.00    +0.000 C 
ENDROOT
BRANCH   2   8
ATOM      8  C   UNL     1       2.438   7.690  18.629  0.00  0.00    +0.000 A 
ATOM      9  C   UNL     1       1.765   8.643  17.885  0.00  0.00    +0.000 A 
ATOM     10  C   UNL     1       1.040   9.451  18.802  0.00  0.00    +0.000 A 
ATOM     11  C   UNL     1       1.286   8.930  20.053  0.00  0.00    +0.000 A 
ATOM     12  O   UNL     1       2.105   7.850  19.947  0.00  0.00    +0.000 OA
BRANCH  11  13
ATOM     13  C   UNL     1       0.906   9.324  21.434  0.00  0.00    +0.000 C 
BRANCH  13  14
ATOM     14  O   UNL     1       0.933  10.748  21.498  0.00  0.00    +0.000 OA
BRANCH  14  15
ATOM     15  C   UNL     1      -0.272  11.373  21.669  0.00  0.00    +0.000 A 
ATOM     16  C   UNL     1      -0.903  12.209  20.745  0.00  0.00    +0.000 A 
ATOM     17  C   UNL     1      -2.151  12.771  21.040  0.00  0.00    +0.000 A 
ATOM     18  C   UNL     1      -2.765  12.502  22.260  0.00  0.00    +0.000 A 
ATOM     19 CL   UNL     1      -4.301  13.189  22.614  0.00  0.00    +0.000 Cl
ATOM     20  C   UNL     1      -2.140  11.679  23.193  0.00  0.00    +0.000 A 
ATOM     21  C   UNL     1      -0.895  11.119  22.897  0.00  0.00    +0.000 A 
ENDBRANCH  14  15
ENDBRANCH  13  14
ENDBRANCH  11  13
ENDBRANCH   2   8
BRANCH   5  22
ATOM     22  C   UNL     1       1.733   3.258  21.314  0.00  0.00    +0.000 C 
ATOM     23  F   UNL     1       0.674   2.685  20.681  0.00  0.00    +0.000 F 
ATOM     24  F   UNL     1       2.390   2.249  21.943  0.00  0.00    +0.000 F 
ENDBRANCH   5  22
BRANCH   7  25
ATOM     25  C   UNL     1       3.656   3.621  17.274  0.00  0.00    +0.000 C 
ATOM     26  F   UNL     1       4.680   3.635  16.375  0.00  0.00    +0.000 F 
ATOM     27  F   UNL     1       3.354   2.304  17.458  0.00  0.00    +0.000 F 
ENDBRANCH   7  25
BRANCH   7  28
ATOM     28  O   UNL     1       5.512   4.547  18.619  0.00  0.00    +0.000 OA
ATOM     29  H   UNL     1       5.583   5.497  18.816  0.00  0.00    +0.000 HD
ENDBRANCH   7  28
TORSDOF 7
ENDMDL
MODEL 5
REMARK VINA RESULT:      -7.9      4.912      8.529
REMARK  Name = 
REMARK  7 active torsions:
REMARK  status: ('A' for Active; 'I' for Inactive)
REMARK    1  A    between atoms: C_2  and  C_3
REMARK    2  A    between atoms: C_6  and  C_7
REMARK    3  A    between atoms: C_7  and  O_8
REMARK    4  A    between atoms: O_8  and  C_9
REMARK    5  A    between atoms: C_19  and  C_20
REMARK    6  A    between atoms: C_24  and  O_25
REMARK    7  A    between atoms: C_24  and  C_26
REMARK                            x       y       z     vdW  Elec       q    Type
REMARK                         _______ _______ _______ _____ _____    ______ ____
ROOT
ATOM      1  O   UNL     1       4.681   6.653  17.522  0.00  0.00    +0.000 OA
ATOM      2  C   UNL     1       3.759   6.416  18.311  0.00  0.00    +0.000 C 
ATOM      3  N   UNL     1       3.699   5.169  18.950  0.00  0.00    +0.000 N 
ATOM      4  N   UNL     1       2.664   4.817  19.791  0.00  0.00    +0.000 NA
ATOM      5  C   UNL     1       2.843   3.571  20.098  0.00  0.00    +0.000 C 
ATOM      6  C   UNL     1       4.134   2.976  19.645  0.00  0.00    +0.000 C 
ATOM      7  C   UNL     1       4.538   4.014  18.599  0.00  0.00    +0.000 C 
ENDROOT
BRANCH   2   8
ATOM      8  C   UNL     1       2.764   7.414  18.666  0.00  0.00    +0.000 A 
ATOM      9  C   UNL     1       2.097   8.351  17.897  0.00  0.00    +0.000 A 
ATOM     10  C   UNL     1       1.274   9.103  18.778  0.00  0.00    +0.000 A 
ATOM     11  C   UNL     1       1.460   8.565  20.033  0.00  0.00    +0.000 A 
ATOM     12  O   UNL     1       2.336   7.528  19.962  0.00  0.00    +0.000 OA
BRANCH  11  13
ATOM     13  C   UNL     1       0.970   8.909  21.391  0.00  0.00    +0.000 C 
BRANCH  13  14
ATOM     14  O   UNL     1       1.041  10.326  21.530  0.00  0.00    +0.000 OA
BRANCH  14  15
ATOM     15  C   UNL     1      -0.141  10.976  21.758  0.00  0.00    +0.000 A 
ATOM     16  C   UNL     1      -0.854  10.989  22.959  0.00  0.00    +0.000 A 
ATOM     17  C   UNL     1      -2.046  11.715  23.065  0.00  0.00    +0.000 A 
ATOM     18  C   UNL     1      -2.527  12.425  21.968  0.00  0.00    +0.000 A 
ATOM     19 CL   UNL     1      -3.989  13.322  22.105  0.00  0.00    +0.000 Cl
ATOM     20  C   UNL     1      -1.831  12.412  20.763  0.00  0.00    +0.000 A 
ATOM     21  C   UNL     1      -0.641  11.686  20.660  0.00  0.00    +0.000 A 
ENDBRANCH  14  15
ENDBRANCH  13  14
ENDBRANCH  11  13
ENDBRANCH   2   8
BRANCH   5  22
ATOM     22  C   UNL     1       1.859   2.769  20.890  0.00  0.00    +0.000 C 
ATOM     23  F   UNL     1       2.248   2.662  22.190  0.00  0.00    +0.000 F 
ATOM     24  F   UNL     1       0.636   3.359  20.907  0.00  0.00    +0.000 F 
ENDBRANCH   5  22
BRANCH   7  25
ATOM     25  C   UNL     1       4.268   3.491  17.173  0.00  0.00    +0.000 C 
ATOM     26  F   UNL     1       5.408   3.560  16.429  0.00  0.00    +0.000 F 
ATOM     27  F   UNL     1       3.945   2.168  17.219  0.00  0.00    +0.000 F 
ENDBRANCH   7  25
BRANCH   7  28
ATOM     28  O   UNL     1       5.909   4.345  18.813  0.00  0.00    +0.000 OA
ATOM     29  H   UNL     1       6.429   3.675  18.339  0.00  0.00    +0.000 HD
ENDBRANCH   7  28
TORSDOF 7
ENDMDL
MODEL 6
REMARK VINA RESULT:      -7.9      4.757      8.303
REMARK  Name = 
REMARK  7 active torsions:
REMARK  status: ('A' for Active; 'I' for Inactive)
REMARK    1  A    between atoms: C_2  and  C_3
REMARK    2  A    between atoms: C_6  and  C_7
REMARK    3  A    between atoms: C_7  and  O_8
REMARK    4  A    between atoms: O_8  and  C_9
REMARK    5  A    between atoms: C_19  and  C_20
REMARK    6  A    between atoms: C_24  and  O_25
REMARK    7  A    between atoms: C_24  and  C_26
REMARK                            x       y       z     vdW  Elec       q    Type
REMARK                         _______ _______ _______ _____ _____    ______ ____
ROOT
ATOM      1  O   UNL     1       4.703   6.183  17.358  0.00  0.00    +0.000 OA
ATOM      2  C   UNL     1       3.820   6.044  18.213  0.00  0.00    +0.000 C 
ATOM      3  N   UNL     1       3.734   4.842  18.929  0.00  0.00    +0.000 N 
ATOM      4  N   UNL     1       2.736   4.597  19.848  0.00  0.00    +0.000 NA
ATOM      5  C   UNL     1       2.867   3.363  20.220  0.00  0.00    +0.000 C 
ATOM      6  C   UNL     1       4.095   2.671  19.729  0.00  0.00    +0.000 C 
ATOM      7  C   UNL     1       4.488   3.624  18.600  0.00  0.00    +0.000 C 
ENDROOT
BRANCH   2   8
ATOM      8  C   UNL     1       2.903   7.116  18.563  0.00  0.00    +0.000 A 
ATOM      9  C   UNL     1       2.315   8.103  17.792  0.00  0.00    +0.000 A 
ATOM     10  C   UNL     1       1.547   8.914  18.669  0.00  0.00    +0.000 A 
ATOM     11  C   UNL     1       1.683   8.361  19.924  0.00  0.00    +0.000 A 
ATOM     12  O   UNL     1       2.476   7.260  19.856  0.00  0.00    +0.000 OA
BRANCH  11  13
ATOM     13  C   UNL     1       1.212   8.740  21.280  0.00  0.00    +0.000 C 
BRANCH  13  14
ATOM     14  O   UNL     1      -0.188   8.998  21.194  0.00  0.00    +0.000 OA
BRANCH  14  15
ATOM     15  C   UNL     1      -0.580  10.298  21.360  0.00  0.00    +0.000 A 
ATOM     16  C   UNL     1      -0.753  11.241  20.344  0.00  0.00    +0.000 A 
ATOM     17  C   UNL     1      -1.179  12.538  20.651  0.00  0.00    +0.000 A 
ATOM     18  C   UNL     1      -1.428  12.894  21.974  0.00  0.00    +0.000 A 
ATOM     19 CL   UNL     1      -1.960  14.488  22.344  0.00  0.00    +0.000 Cl
ATOM     20  C   UNL     1      -1.249  11.967  22.995  0.00  0.00    +0.000 A 
ATOM     21  C   UNL     1      -0.823  10.672  22.687  0.00  0.00    +0.000 A 
ENDBRANCH  14  15
ENDBRANCH  13  14
ENDBRANCH  11  13
ENDBRANCH   2   8
BRANCH   5  22
ATOM     22  C   UNL     1       1.893   2.665  21.116  0.00  0.00    +0.000 C 
ATOM     23  F   UNL     1       1.935   3.174  22.377  0.00  0.00    +0.000 F 
ATOM     24  F   UNL     1       0.616   2.827  20.683  0.00  0.00    +0.000 F 
ENDBRANCH   5  22
BRANCH   7  25
ATOM     25  C   UNL     1       4.104   3.035  17.227  0.00  0.00    +0.000 C 
ATOM     26  F   UNL     1       2.932   3.582  16.798  0.00  0.00    +0.000 F 
ATOM     27  F   UNL     1       5.033   3.392  16.295  0.00  0.00    +0.000 F 
ENDBRANCH   7  25
BRANCH   7  28
ATOM     28  O   UNL     1       5.885   3.889  18.714  0.00  0.00    +0.000 OA
ATOM     29  H   UNL     1       6.082   3.909  19.666  0.00  0.00    +0.000 HD
ENDBRANCH   7  28
TORSDOF 7
ENDMDL
MODEL 7
REMARK VINA RESULT:      -7.9      4.880      8.018
REMARK  Name = 
REMARK  7 active torsions:
REMARK  status: ('A' for Active; 'I' for Inactive)
REMARK    1  A    between atoms: C_2  and  C_3
REMARK    2  A    between atoms: C_6  and  C_7
REMARK    3  A    between atoms: C_7  and  O_8
REMARK    4  A    between atoms: O_8  and  C_9
REMARK    5  A    between atoms: C_19  and  C_20
REMARK    6  A    between atoms: C_24  and  O_25
REMARK    7  A    between atoms: C_24  and  C_26
REMARK                            x       y       z     vdW  Elec       q    Type
REMARK                         _______ _______ _______ _____ _____    ______ ____
ROOT
ATOM      1  O   UNL     1       3.069   7.385  17.823  0.00  0.00    +0.000 OA
ATOM      2  C   UNL     1       2.577   7.057  18.910  0.00  0.00    +0.000 C 
ATOM      3  N   UNL     1       2.790   5.762  19.402  0.00  0.00    +0.000 N 
ATOM      4  N   UNL     1       2.219   5.312  20.574  0.00  0.00    +0.000 NA
ATOM      5  C   UNL     1       2.503   4.052  20.666  0.00  0.00    +0.000 C 
ATOM      6  C   UNL     1       3.466   3.534  19.650  0.00  0.00    +0.000 C 
ATOM      7  C   UNL     1       3.386   4.665  18.626  0.00  0.00    +0.000 C 
ENDROOT
BRANCH   2   8
ATOM      8  C   UNL     1       1.842   7.993  19.743  0.00  0.00    +0.000 A 
ATOM      9  C   UNL     1       1.335   7.872  21.025  0.00  0.00    +0.000 A 
ATOM     10  C   UNL     1       0.658   9.085  21.321  0.00  0.00    +0.000 A 
ATOM     11  C   UNL     1       0.813   9.894  20.217  0.00  0.00    +0.000 A 
ATOM     12  O   UNL     1       1.551   9.248  19.276  0.00  0.00    +0.000 OA
BRANCH  11  13
ATOM     13  C   UNL     1       0.312  11.239  19.838  0.00  0.00    +0.000 C 
BRANCH  13  14
ATOM     14  O   UNL     1      -0.132  11.168  18.485  0.00  0.00    +0.000 OA
BRANCH  14  15
ATOM     15  C   UNL     1      -1.480  11.027  18.291  0.00  0.00    +0.000 A 
ATOM     16  C   UNL     1      -2.101  10.046  17.515  0.00  0.00    +0.000 A 
ATOM     17  C   UNL     1      -3.496  10.003  17.417  0.00  0.00    +0.000 A 
ATOM     18  C   UNL     1      -4.270  10.943  18.093  0.00  0.00    +0.000 A 
ATOM     19 CL   UNL     1      -5.986  10.880  17.976  0.00  0.00    +0.000 Cl
ATOM     20  C   UNL     1      -3.662  11.931  18.861  0.00  0.00    +0.000 A 
ATOM     21  C   UNL     1      -2.269  11.972  18.957  0.00  0.00    +0.000 A 
ENDBRANCH  14  15
ENDBRANCH  13  14
ENDBRANCH  11  13
ENDBRANCH   2   8
BRANCH   5  22
ATOM     22  C   UNL     1       1.953   3.159  21.733  0.00  0.00    +0.000 C 
ATOM     23  F   UNL     1       0.782   2.589  21.340  0.00  0.00    +0.000 F 
ATOM     24  F   UNL     1       2.800   2.133  22.008  0.00  0.00    +0.000 F 
ENDBRANCH   5  22
BRANCH   7  25
ATOM     25  C   UNL     1       2.521   4.251  17.417  0.00  0.00    +0.000 C 
ATOM     26  F   UNL     1       2.594   2.903  17.232  0.00  0.00    +0.000 F 
ATOM     27  F   UNL     1       1.208   4.511  17.677  0.00  0.00    +0.000 F 
ENDBRANCH   7  25
BRANCH   7  28
ATOM     28  O   UNL     1       4.717   5.019  18.254  0.00  0.00    +0.000 OA
ATOM     29  H   UNL     1       5.306   4.533  18.856  0.00  0.00    +0.000 HD
ENDBRANCH   7  28
TORSDOF 7
ENDMDL
MODEL 8
REMARK VINA RESULT:      -7.9      4.854      8.398
REMARK  Name = 
REMARK  7 active torsions:
REMARK  status: ('A' for Active; 'I' for Inactive)
REMARK    1  A    between atoms: C_2  and  C_3
REMARK    2  A    between atoms: C_6  and  C_7
REMARK    3  A    between atoms: C_7  and  O_8
REMARK    4  A    between atoms: O_8  and  C_9
REMARK    5  A    between atoms: C_19  and  C_20
REMARK    6  A    between atoms: C_24  and  O_25
REMARK    7  A    between atoms: C_24  and  C_26
REMARK                            x       y       z     vdW  Elec       q    Type
REMARK                         _______ _______ _______ _____ _____    ______ ____
ROOT
ATOM      1  O   UNL     1       4.879   6.218  17.696  0.00  0.00    +0.000 OA
ATOM      2  C   UNL     1       3.869   6.068  18.395  0.00  0.00    +0.000 C 
ATOM      3  N   UNL     1       3.649   4.842  19.037  0.00  0.00    +0.000 N 
ATOM      4  N   UNL     1       2.513   4.588  19.777  0.00  0.00    +0.000 NA
ATOM      5  C   UNL     1       2.560   3.337  20.112  0.00  0.00    +0.000 C 
ATOM      6  C   UNL     1       3.836   2.633  19.792  0.00  0.00    +0.000 C 
ATOM      7  C   UNL     1       4.421   3.618  18.780  0.00  0.00    +0.000 C 
ENDROOT
BRANCH   2   8
ATOM      8  C   UNL     1       2.929   7.149  18.641  0.00  0.00    +0.000 A 
ATOM      9  C   UNL     1       2.386   8.097  17.793  0.00  0.00    +0.000 A 
ATOM     10  C   UNL     1       1.563   8.941  18.586  0.00  0.00    +0.000 A 
ATOM     11  C   UNL     1       1.625   8.446  19.870  0.00  0.00    +0.000 A 
ATOM     12  O   UNL     1       2.425   7.348  19.899  0.00  0.00    +0.000 OA
BRANCH  11  13
ATOM     13  C   UNL     1       1.072   8.881  21.177  0.00  0.00    +0.000 C 
BRANCH  13  14
ATOM     14  O   UNL     1      -0.191   9.493  20.929  0.00  0.00    +0.000 OA
BRANCH  14  15
ATOM     15  C   UNL     1      -0.381  10.739  21.464  0.00  0.00    +0.000 A 
ATOM     16  C   UNL     1      -1.140  11.040  22.597  0.00  0.00    +0.000 A 
ATOM     17  C   UNL     1      -1.235  12.360  23.052  0.00  0.00    +0.000 A 
ATOM     18  C   UNL     1      -0.575  13.380  22.370  0.00  0.00    +0.000 A 
ATOM     19 CL   UNL     1      -0.690  15.000  22.938  0.00  0.00    +0.000 Cl
ATOM     20  C   UNL     1       0.175  13.093  21.234  0.00  0.00    +0.000 A 
ATOM     21  C   UNL     1       0.269  11.774  20.782  0.00  0.00    +0.000 A 
ENDBRANCH  14  15
ENDBRANCH  13  14
ENDBRANCH  11  13
ENDBRANCH   2   8
BRANCH   5  22
ATOM     22  C   UNL     1       1.444   2.630  20.813  0.00  0.00    +0.000 C 
ATOM     23  F   UNL     1       1.415   2.950  22.136  0.00  0.00    +0.000 F 
ATOM     24  F   UNL     1       0.234   2.988  20.310  0.00  0.00    +0.000 F 
ENDBRANCH   5  22
BRANCH   7  25
ATOM     25  C   UNL     1       4.248   3.093  17.340  0.00  0.00    +0.000 C 
ATOM     26  F   UNL     1       3.986   1.756  17.360  0.00  0.00    +0.000 F 
ATOM     27  F   UNL     1       3.152   3.668  16.767  0.00  0.00    +0.000 F 
ENDBRANCH   7  25
BRANCH   7  28
ATOM     28  O   UNL     1       5.787   3.843  19.123  0.00  0.00    +0.000 OA
ATOM     29  H   UNL     1       5.860   3.675  20.078  0.00  0.00    +0.000 HD
ENDBRANCH   7  28
TORSDOF 7
ENDMDL
MODEL 9
REMARK VINA RESULT:      -7.8      4.691      7.700
REMARK  Name = 
REMARK  7 active torsions:
REMARK  status: ('A' for Active; 'I' for Inactive)
REMARK    1  A    between atoms: C_2  and  C_3
REMARK    2  A    between atoms: C_6  and  C_7
REMARK    3  A    between atoms: C_7  and  O_8
REMARK    4  A    between atoms: O_8  and  C_9
REMARK    5  A    between atoms: C_19  and  C_20
REMARK    6  A    between atoms: C_24  and  O_25
REMARK    7  A    between atoms: C_24  and  C_26
REMARK                            x       y       z     vdW  Elec       q    Type
REMARK                         _______ _______ _______ _____ _____    ______ ____
ROOT
ATOM      1  O   UNL     1       3.118   7.689  17.930  0.00  0.00    +0.000 OA
ATOM      2  C   UNL     1       2.554   7.318  18.966  0.00  0.00    +0.000 C 
ATOM      3  N   UNL     1       2.781   6.022  19.451  0.00  0.00    +0.000 N 
ATOM      4  N   UNL     1       2.135   5.524  20.563  0.00  0.00    +0.000 NA
ATOM      5  C   UNL     1       2.464   4.274  20.655  0.00  0.00    +0.000 C 
ATOM      6  C   UNL     1       3.527   3.818  19.712  0.00  0.00    +0.000 C 
ATOM      7  C   UNL     1       3.483   4.967  18.706  0.00  0.00    +0.000 C 
ENDROOT
BRANCH   2   8
ATOM      8  C   UNL     1       1.714   8.205  19.753  0.00  0.00    +0.000 A 
ATOM      9  C   UNL     1       1.218   8.090  21.040  0.00  0.00    +0.000 A 
ATOM     10  C   UNL     1       0.409   9.233  21.278  0.00  0.00    +0.000 A 
ATOM     11  C   UNL     1       0.477   9.999  20.135  0.00  0.00    +0.000 A 
ATOM     12  O   UNL     1       1.288   9.395  19.226  0.00  0.00    +0.000 OA
BRANCH  11  13
ATOM     13  C   UNL     1      -0.170  11.260  19.691  0.00  0.00    +0.000 C 
BRANCH  13  14
ATOM     14  O   UNL     1      -1.571  11.016  19.601  0.00  0.00    +0.000 OA
BRANCH  14  15
ATOM     15  C   UNL     1      -2.068  10.766  18.350  0.00  0.00    +0.000 A 
ATOM     16  C   UNL     1      -1.515   9.900  17.404  0.00  0.00    +0.000 A 
ATOM     17  C   UNL     1      -2.138   9.720  16.164  0.00  0.00    +0.000 A 
ATOM     18  C   UNL     1      -3.312  10.408  15.869  0.00  0.00    +0.000 A 
ATOM     19 CL   UNL     1      -4.079  10.176  14.346  0.00  0.00    +0.000 Cl
ATOM     20  C   UNL     1      -3.867  11.281  16.800  0.00  0.00    +0.000 A 
ATOM     21  C   UNL     1      -3.243  11.459  18.037  0.00  0.00    +0.000 A 
ENDBRANCH  14  15
ENDBRANCH  13  14
ENDBRANCH  11  13
ENDBRANCH   2   8
BRANCH   5  22
ATOM     22  C   UNL     1       1.868   3.337  21.657  0.00  0.00    +0.000 C 
ATOM     23  F   UNL     1       0.768   2.715  21.152  0.00  0.00    +0.000 F 
ATOM     24  F   UNL     1       2.739   2.351  21.995  0.00  0.00    +0.000 F 
ENDBRANCH   5  22
BRANCH   7  25
ATOM     25  C   UNL     1       2.737   4.545  17.423  0.00  0.00    +0.000 C 
ATOM     26  F   UNL     1       3.444   3.579  16.770  0.00  0.00    +0.000 F 
ATOM     27  F   UNL     1       1.547   3.965  17.749  0.00  0.00    +0.000 F 
ENDBRANCH   7  25
BRANCH   7  28
ATOM     28  O   UNL     1       4.823   5.383  18.451  0.00  0.00    +0.000 OA
ATOM     29  H   UNL     1       4.797   5.901  17.629  0.00  0.00    +0.000 HD
ENDBRANCH   7  28
TORSDOF 7
ENDMDL
