MODEL 1
REMARK VINA RESULT:      -8.4      0.000      0.000
REMARK  Name = 
REMARK  3 active torsions:
REMARK  status: ('A' for Active; 'I' for Inactive)
REMARK    1  A    between atoms: C_10  and  C_11
REMARK    2  A    between atoms: C_15  and  C_16
REMARK    3  A    between atoms: C_16  and  O_18
REMARK                            x       y       z     vdW  Elec       q    Type
REMARK                         _______ _______ _______ _____ _____    ______ ____
ROOT
ATOM      1  N   UNL     1       2.021   1.735  20.130  0.00  0.00    +0.000 N 
ATOM      2  C   UNL     1       1.831   2.841  20.886  0.00  0.00    +0.000 C 
ATOM      3  O   UNL     1       1.229   2.723  21.953  0.00  0.00    +0.000 OA
ATOM      4  N   UNL     1       2.283   4.048  20.379  0.00  0.00    +0.000 N 
ATOM      5  C   UNL     1       2.029   5.244  21.176  0.00  0.00    +0.000 C 
ATOM      6  C   UNL     1       1.703   6.443  20.306  0.00  0.00    +0.000 C 
ATOM      7  C   UNL     1       2.869   6.727  19.376  0.00  0.00    +0.000 C 
ATOM      8  C   UNL     1       3.371   5.474  18.713  0.00  0.00    +0.000 A 
ATOM      9  C   UNL     1       4.178   5.587  17.566  0.00  0.00    +0.000 A 
ATOM     10  C   UNL     1       4.698   4.457  16.924  0.00  0.00    +0.000 A 
ATOM     11  C   UNL     1       4.361   3.243  17.511  0.00  0.00    +0.000 A 
ATOM     12  N   UNL     1       3.582   3.092  18.608  0.00  0.00    +0.000 NA
ATOM     13  C   UNL     1       3.090   4.200  19.211  0.00  0.00    +0.000 A 
ATOM     14  H   UNL     1       1.820   0.849  20.568  0.00  0.00    +0.000 HD
ATOM     15  H   UNL     1       2.788   1.773  19.465  0.00  0.00    +0.000 HD
ENDROOT
BRANCH  10  16
ATOM     16  C   UNL     1       5.552   4.539  15.724  0.00  0.00    +0.000 A 
ATOM     17  C   UNL     1       6.730   5.293  15.705  0.00  0.00    +0.000 A 
ATOM     18  N   UNL     1       7.569   5.399  14.644  0.00  0.00    +0.000 NA
ATOM     19  C   UNL     1       7.238   4.708  13.530  0.00  0.00    +0.000 A 
ATOM     20  C   UNL     1       6.091   3.936  13.423  0.00  0.00    +0.000 A 
ATOM     21  C   UNL     1       5.247   3.850  14.536  0.00  0.00    +0.000 A 
BRANCH  20  22
ATOM     22  C   UNL     1       5.865   3.195  12.166  0.00  0.00    +0.000 C 
ATOM     23  O   UNL     1       4.811   3.255  11.556  0.00  0.00    +0.000 OA
BRANCH  22  24
ATOM     24  O   UNL     1       6.907   2.442  11.760  0.00  0.00    +0.000 OA
ATOM     25  H   UNL     1       6.693   1.623  11.280  0.00  0.00    +0.000 HD
ENDBRANCH  22  24
ENDBRANCH  20  22
ENDBRANCH  10  16
TORSDOF 3
ENDMDL
MODEL 2
REMARK VINA RESULT:      -8.2      4.218      5.613
REMARK  Name = 
REMARK  3 active torsions:
REMARK  status: ('A' for Active; 'I' for Inactive)
REMARK    1  A    between atoms: C_10  and  C_11
REMARK    2  A    between atoms: C_15  and  C_16
REMARK    3  A    between atoms: C_16  and  O_18
REMARK                            x       y       z     vdW  Elec       q    Type
REMARK                         _______ _______ _______ _____ _____    ______ ____
ROOT
ATOM      1  N   UNL     1       1.541  11.812  18.168  0.00  0.00    +0.000 N 
ATOM      2  C   UNL     1       0.710  11.607  19.215  0.00  0.00    +0.000 C 
ATOM      3  O   UNL     1      -0.010  12.536  19.581  0.00  0.00    +0.000 OA
ATOM      4  N   UNL     1       0.764  10.374  19.843  0.00  0.00    +0.000 N 
ATOM      5  C   UNL     1      -0.098  10.177  21.005  0.00  0.00    +0.000 C 
ATOM      6  C   UNL     1       0.578   9.340  22.074  0.00  0.00    +0.000 C 
ATOM      7  C   UNL     1       0.929   7.978  21.504  0.00  0.00    +0.000 C 
ATOM      8  C   UNL     1       1.589   8.091  20.157  0.00  0.00    +0.000 A 
ATOM      9  C   UNL     1       2.305   6.988  19.654  0.00  0.00    +0.000 A 
ATOM     10  C   UNL     1       2.913   7.025  18.395  0.00  0.00    +0.000 A 
ATOM     11  C   UNL     1       2.745   8.216  17.698  0.00  0.00    +0.000 A 
ATOM     12  N   UNL     1       2.072   9.300  18.148  0.00  0.00    +0.000 NA
ATOM     13  C   UNL     1       1.491   9.241  19.371  0.00  0.00    +0.000 A 
ATOM     14  H   UNL     1       1.392  12.654  17.632  0.00  0.00    +0.000 HD
ATOM     15  H   UNL     1       1.849  10.981  17.671  0.00  0.00    +0.000 HD
ENDROOT
BRANCH  10  16
ATOM     16  C   UNL     1       3.666   5.886  17.835  0.00  0.00    +0.000 A 
ATOM     17  C   UNL     1       3.070   4.640  17.621  0.00  0.00    +0.000 A 
ATOM     18  N   UNL     1       3.697   3.557  17.096  0.00  0.00    +0.000 NA
ATOM     19  C   UNL     1       4.994   3.711  16.744  0.00  0.00    +0.000 A 
ATOM     20  C   UNL     1       5.696   4.893  16.918  0.00  0.00    +0.000 A 
ATOM     21  C   UNL     1       5.020   5.990  17.464  0.00  0.00    +0.000 A 
BRANCH  20  22
ATOM     22  C   UNL     1       7.097   4.946  16.453  0.00  0.00    +0.000 C 
ATOM     23  O   UNL     1       7.443   5.631  15.505  0.00  0.00    +0.000 OA
BRANCH  22  24
ATOM     24  O   UNL     1       7.951   4.167  17.147  0.00  0.00    +0.000 OA
ATOM     25  H   UNL     1       8.202   4.479  18.035  0.00  0.00    +0.000 HD
ENDBRANCH  22  24
ENDBRANCH  20  22
ENDBRANCH  10  16
TORSDOF 3
ENDMDL
MODEL 3
REMARK VINA RESULT:      -8.1      1.538      2.414
REMARK  Name = 
REMARK  3 active torsions:
REMARK  status: ('A' for Active; 'I' for Inactive)
REMARK    1  A    between atoms: C_10  and  C_11
REMARK    2  A    between atoms: C_15  and  C_16
REMARK    3  A    between atoms: C_16  and  O_18
REMARK                            x       y       z     vdW  Elec       q    Type
REMARK                         _______ _______ _______ _____ _____    ______ ____
ROOT
ATOM      1  N   UNL     1       2.310   7.788  20.207  0.00  0.00    +0.000 N 
ATOM      2  C   UNL     1       1.579   6.716  20.589  0.00  0.00    +0.000 C 
ATOM      3  O   UNL     1       0.713   6.875  21.449  0.00  0.00    +0.000 OA
ATOM      4  N   UNL     1       1.895   5.492  20.023  0.00  0.00    +0.000 N 
ATOM      5  C   UNL     1       1.138   4.330  20.479  0.00  0.00    +0.000 C 
ATOM      6  C   UNL     1       2.006   3.090  20.569  0.00  0.00    +0.000 C 
ATOM      7  C   UNL     1       2.585   2.776  19.201  0.00  0.00    +0.000 C 
ATOM      8  C   UNL     1       3.152   4.004  18.541  0.00  0.00    +0.000 A 
ATOM      9  C   UNL     1       4.042   3.847  17.462  0.00  0.00    +0.000 A 
ATOM     10  C   UNL     1       4.577   4.952  16.791  0.00  0.00    +0.000 A 
ATOM     11  C   UNL     1       4.155   6.188  17.268  0.00  0.00    +0.000 A 
ATOM     12  N   UNL     1       3.308   6.381  18.306  0.00  0.00    +0.000 NA
ATOM     13  C   UNL     1       2.803   5.296  18.940  0.00  0.00    +0.000 A 
ATOM     14  H   UNL     1       1.980   8.691  20.514  0.00  0.00    +0.000 HD
ATOM     15  H   UNL     1       2.748   7.728  19.293  0.00  0.00    +0.000 HD
ENDROOT
BRANCH  10  16
ATOM     16  C   UNL     1       5.508   4.826  15.653  0.00  0.00    +0.000 A 
ATOM     17  C   UNL     1       6.778   5.411  15.669  0.00  0.00    +0.000 A 
ATOM     18  N   UNL     1       7.689   5.322  14.668  0.00  0.00    +0.000 NA
ATOM     19  C   UNL     1       7.336   4.597  13.582  0.00  0.00    +0.000 A 
ATOM     20  C   UNL     1       6.102   3.980  13.444  0.00  0.00    +0.000 A 
ATOM     21  C   UNL     1       5.185   4.094  14.496  0.00  0.00    +0.000 A 
BRANCH  20  22
ATOM     22  C   UNL     1       5.855   3.181  12.227  0.00  0.00    +0.000 C 
ATOM     23  O   UNL     1       4.781   3.191  11.649  0.00  0.00    +0.000 OA
BRANCH  22  24
ATOM     24  O   UNL     1       6.902   2.435  11.820  0.00  0.00    +0.000 OA
ATOM     25  H   UNL     1       7.780   2.850  11.874  0.00  0.00    +0.000 HD
ENDBRANCH  22  24
ENDBRANCH  20  22
ENDBRANCH  10  16
TORSDOF 3
ENDMDL
MODEL 4
REMARK VINA RESULT:      -7.9      4.302      5.973
REMARK  Name = 
REMARK  3 active torsions:
REMARK  status: ('A' for Active; 'I' for Inactive)
REMARK    1  A    between atoms: C_10  and  C_11
REMARK    2  A    between atoms: C_15  and  C_16
REMARK    3  A    between atoms: C_16  and  O_18
REMARK                            x       y       z     vdW  Elec       q    Type
REMARK                         _______ _______ _______ _____ _____    ______ ____
ROOT
ATOM      1  N   UNL     1      -0.392   9.022  23.117  0.00  0.00    +0.000 N 
ATOM      2  C   UNL     1      -0.482  10.288  22.650  0.00  0.00    +0.000 C 
ATOM      3  O   UNL     1      -1.011  11.139  23.364  0.00  0.00    +0.000 OA
ATOM      4  N   UNL     1      -0.017  10.532  21.368  0.00  0.00    +0.000 N 
ATOM      5  C   UNL     1      -0.165  11.889  20.850  0.00  0.00    +0.000 C 
ATOM      6  C   UNL     1      -0.502  11.897  19.372  0.00  0.00    +0.000 C 
ATOM      7  C   UNL     1       0.606  11.207  18.596  0.00  0.00    +0.000 C 
ATOM      8  C   UNL     1       1.007   9.905  19.235  0.00  0.00    +0.000 A 
ATOM      9  C   UNL     1       1.735   8.971  18.476  0.00  0.00    +0.000 A 
ATOM     10  C   UNL     1       2.162   7.757  19.026  0.00  0.00    +0.000 A 
ATOM     11  C   UNL     1       1.817   7.564  20.359  0.00  0.00    +0.000 A 
ATOM     12  N   UNL     1       1.112   8.434  21.120  0.00  0.00    +0.000 NA
ATOM     13  C   UNL     1       0.710   9.603  20.565  0.00  0.00    +0.000 A 
ATOM     14  H   UNL     1      -0.598   8.886  24.095  0.00  0.00    +0.000 HD
ATOM     15  H   UNL     1       0.327   8.440  22.697  0.00  0.00    +0.000 HD
ENDROOT
BRANCH  10  16
ATOM     16  C   UNL     1       2.931   6.756  18.262  0.00  0.00    +0.000 A 
ATOM     17  C   UNL     1       3.979   7.123  17.411  0.00  0.00    +0.000 A 
ATOM     18  N   UNL     1       4.737   6.257  16.693  0.00  0.00    +0.000 NA
ATOM     19  C   UNL     1       4.458   4.940  16.828  0.00  0.00    +0.000 A 
ATOM     20  C   UNL     1       3.437   4.456  17.631  0.00  0.00    +0.000 A 
ATOM     21  C   UNL     1       2.673   5.377  18.357  0.00  0.00    +0.000 A 
BRANCH  20  22
ATOM     22  C   UNL     1       3.262   2.992  17.727  0.00  0.00    +0.000 C 
ATOM     23  O   UNL     1       2.260   2.429  17.319  0.00  0.00    +0.000 OA
BRANCH  22  24
ATOM     24  O   UNL     1       4.286   2.339  18.312  0.00  0.00    +0.000 OA
ATOM     25  H   UNL     1       4.474   1.441  17.985  0.00  0.00    +0.000 HD
ENDBRANCH  22  24
ENDBRANCH  20  22
ENDBRANCH  10  16
TORSDOF 3
ENDMDL
MODEL 5
REMARK VINA RESULT:      -7.9      4.576      6.194
REMARK  Name = 
REMARK  3 active torsions:
REMARK  status: ('A' for Active; 'I' for Inactive)
REMARK    1  A    between atoms: C_10  and  C_11
REMARK    2  A    between atoms: C_15  and  C_16
REMARK    3  A    between atoms: C_16  and  O_18
REMARK                            x       y       z     vdW  Elec       q    Type
REMARK                         _______ _______ _______ _____ _____    ______ ____
ROOT
ATOM      1  N   UNL     1       0.846  12.353  18.176  0.00  0.00    +0.000 N 
ATOM      2  C   UNL     1       0.102  12.156  19.288  0.00  0.00    +0.000 C 
ATOM      3  O   UNL     1      -0.633  13.068  19.669  0.00  0.00    +0.000 OA
ATOM      4  N   UNL     1       0.258  10.954  19.958  0.00  0.00    +0.000 N 
ATOM      5  C   UNL     1      -0.510  10.769  21.186  0.00  0.00    +0.000 C 
ATOM      6  C   UNL     1       0.278  10.008  22.235  0.00  0.00    +0.000 C 
ATOM      7  C   UNL     1       0.652   8.639  21.694  0.00  0.00    +0.000 C 
ATOM      8  C   UNL     1       1.209   8.725  20.299  0.00  0.00    +0.000 A 
ATOM      9  C   UNL     1       1.938   7.634  19.789  0.00  0.00    +0.000 A 
ATOM     10  C   UNL     1       2.454   7.645  18.488  0.00  0.00    +0.000 A 
ATOM     11  C   UNL     1       2.182   8.797  17.759  0.00  0.00    +0.000 A 
ATOM     12  N   UNL     1       1.491   9.869  18.215  0.00  0.00    +0.000 NA
ATOM     13  C   UNL     1       1.002   9.835  19.478  0.00  0.00    +0.000 A 
ATOM     14  H   UNL     1       0.621  13.165  17.620  0.00  0.00    +0.000 HD
ATOM     15  H   UNL     1       1.157  11.517  17.691  0.00  0.00    +0.000 HD
ENDROOT
BRANCH  10  16
ATOM     16  C   UNL     1       3.218   6.518  17.920  0.00  0.00    +0.000 A 
ATOM     17  C   UNL     1       4.405   6.715  17.207  0.00  0.00    +0.000 A 
ATOM     18  N   UNL     1       5.165   5.727  16.673  0.00  0.00    +0.000 NA
ATOM     19  C   UNL     1       4.740   4.457  16.861  0.00  0.00    +0.000 A 
ATOM     20  C   UNL     1       3.574   4.136  17.540  0.00  0.00    +0.000 A 
ATOM     21  C   UNL     1       2.813   5.180  18.077  0.00  0.00    +0.000 A 
BRANCH  20  22
ATOM     22  C   UNL     1       3.243   2.707  17.715  0.00  0.00    +0.000 C 
ATOM     23  O   UNL     1       2.169   2.242  17.372  0.00  0.00    +0.000 OA
BRANCH  22  24
ATOM     24  O   UNL     1       4.211   1.970  18.295  0.00  0.00    +0.000 OA
ATOM     25  H   UNL     1       5.116   2.328  18.253  0.00  0.00    +0.000 HD
ENDBRANCH  22  24
ENDBRANCH  20  22
ENDBRANCH  10  16
TORSDOF 3
ENDMDL
MODEL 6
REMARK VINA RESULT:      -7.8      3.959      8.438
REMARK  Name = 
REMARK  3 active torsions:
REMARK  status: ('A' for Active; 'I' for Inactive)
REMARK    1  A    between atoms: C_10  and  C_11
REMARK    2  A    between atoms: C_15  and  C_16
REMARK    3  A    between atoms: C_16  and  O_18
REMARK                            x       y       z     vdW  Elec       q    Type
REMARK                         _______ _______ _______ _____ _____    ______ ____
ROOT
ATOM      1  N   UNL     1       5.366   6.339  15.482  0.00  0.00    +0.000 N 
ATOM      2  C   UNL     1       5.726   5.326  16.303  0.00  0.00    +0.000 C 
ATOM      3  O   UNL     1       6.626   4.570  15.939  0.00  0.00    +0.000 OA
ATOM      4  N   UNL     1       5.016   5.175  17.482  0.00  0.00    +0.000 N 
ATOM      5  C   UNL     1       5.375   4.049  18.339  0.00  0.00    +0.000 C 
ATOM      6  C   UNL     1       4.158   3.434  19.004  0.00  0.00    +0.000 C 
ATOM      7  C   UNL     1       3.463   4.481  19.856  0.00  0.00    +0.000 C 
ATOM      8  C   UNL     1       3.299   5.781  19.118  0.00  0.00    +0.000 A 
ATOM      9  C   UNL     1       2.370   6.724  19.597  0.00  0.00    +0.000 A 
ATOM     10  C   UNL     1       2.195   7.962  18.970  0.00  0.00    +0.000 A 
ATOM     11  C   UNL     1       3.007   8.177  17.862  0.00  0.00    +0.000 A 
ATOM     12  N   UNL     1       3.906   7.294  17.365  0.00  0.00    +0.000 NA
ATOM     13  C   UNL     1       4.057   6.102  17.990  0.00  0.00    +0.000 A 
ATOM     14  H   UNL     1       5.978   6.527  14.702  0.00  0.00    +0.000 HD
ATOM     15  H   UNL     1       4.901   7.128  15.921  0.00  0.00    +0.000 HD
ENDROOT
BRANCH  10  16
ATOM     16  C   UNL     1       1.236   8.975  19.448  0.00  0.00    +0.000 A 
ATOM     17  C   UNL     1       0.593   9.855  18.572  0.00  0.00    +0.000 A 
ATOM     18  N   UNL     1      -0.311  10.798  18.939  0.00  0.00    +0.000 NA
ATOM     19  C   UNL     1      -0.616  10.874  20.255  0.00  0.00    +0.000 A 
ATOM     20  C   UNL     1      -0.037  10.065  21.220  0.00  0.00    +0.000 A 
ATOM     21  C   UNL     1       0.893   9.104  20.806  0.00  0.00    +0.000 A 
BRANCH  20  22
ATOM     22  C   UNL     1      -0.487  10.218  22.618  0.00  0.00    +0.000 C 
ATOM     23  O   UNL     1      -0.538  11.304  23.170  0.00  0.00    +0.000 OA
BRANCH  22  24
ATOM     24  O   UNL     1      -0.819   9.065  23.233  0.00  0.00    +0.000 OA
ATOM     25  H   UNL     1      -1.400   8.459  22.740  0.00  0.00    +0.000 HD
ENDBRANCH  22  24
ENDBRANCH  20  22
ENDBRANCH  10  16
TORSDOF 3
ENDMDL
MODEL 7
REMARK VINA RESULT:      -7.8      4.166      5.766
REMARK  Name = 
REMARK  3 active torsions:
REMARK  status: ('A' for Active; 'I' for Inactive)
REMARK    1  A    between atoms: C_10  and  C_11
REMARK    2  A    between atoms: C_15  and  C_16
REMARK    3  A    between atoms: C_16  and  O_18
REMARK                            x       y       z     vdW  Elec       q    Type
REMARK                         _______ _______ _______ _____ _____    ______ ____
ROOT
ATOM      1  N   UNL     1      -0.274   8.998  23.013  0.00  0.00    +0.000 N 
ATOM      2  C   UNL     1      -0.156  10.233  22.476  0.00  0.00    +0.000 C 
ATOM      3  O   UNL     1      -0.582  11.193  23.117  0.00  0.00    +0.000 OA
ATOM      4  N   UNL     1       0.393  10.330  21.208  0.00  0.00    +0.000 N 
ATOM      5  C   UNL     1       0.470  11.661  20.612  0.00  0.00    +0.000 C 
ATOM      6  C   UNL     1       0.199  11.629  19.120  0.00  0.00    +0.000 C 
ATOM      7  C   UNL     1       1.224  10.741  18.438  0.00  0.00    +0.000 C 
ATOM      8  C   UNL     1       1.400   9.435  19.164  0.00  0.00    +0.000 A 
ATOM      9  C   UNL     1       2.013   8.360  18.493  0.00  0.00    +0.000 A 
ATOM     10  C   UNL     1       2.231   7.132  19.127  0.00  0.00    +0.000 A 
ATOM     11  C   UNL     1       1.806   7.072  20.450  0.00  0.00    +0.000 A 
ATOM     12  N   UNL     1       1.207   8.079  21.128  0.00  0.00    +0.000 NA
ATOM     13  C   UNL     1       1.007   9.259  20.492  0.00  0.00    +0.000 A 
ATOM     14  H   UNL     1      -0.538   8.952  23.986  0.00  0.00    +0.000 HD
ATOM     15  H   UNL     1       0.368   8.293  22.661  0.00  0.00    +0.000 HD
ENDROOT
BRANCH  10  16
ATOM     16  C   UNL     1       2.874   5.986  18.456  0.00  0.00    +0.000 A 
ATOM     17  C   UNL     1       2.138   4.887  18.003  0.00  0.00    +0.000 A 
ATOM     18  N   UNL     1       2.661   3.810  17.365  0.00  0.00    +0.000 NA
ATOM     19  C   UNL     1       3.996   3.817  17.145  0.00  0.00    +0.000 A 
ATOM     20  C   UNL     1       4.832   4.843  17.557  0.00  0.00    +0.000 A 
ATOM     21  C   UNL     1       4.259   5.939  18.213  0.00  0.00    +0.000 A 
BRANCH  20  22
ATOM     22  C   UNL     1       6.266   4.752  17.216  0.00  0.00    +0.000 C 
ATOM     23  O   UNL     1       6.713   5.174  16.163  0.00  0.00    +0.000 OA
BRANCH  22  24
ATOM     24  O   UNL     1       7.031   4.154  18.152  0.00  0.00    +0.000 OA
ATOM     25  H   UNL     1       6.578   3.861  18.963  0.00  0.00    +0.000 HD
ENDBRANCH  22  24
ENDBRANCH  20  22
ENDBRANCH  10  16
TORSDOF 3
ENDMDL
MODEL 8
REMARK VINA RESULT:      -7.8      4.285      5.853
REMARK  Name = 
REMARK  3 active torsions:
REMARK  status: ('A' for Active; 'I' for Inactive)
REMARK    1  A    between atoms: C_10  and  C_11
REMARK    2  A    between atoms: C_15  and  C_16
REMARK    3  A    between atoms: C_16  and  O_18
REMARK                            x       y       z     vdW  Elec       q    Type
REMARK                         _______ _______ _______ _____ _____    ______ ____
ROOT
ATOM      1  N   UNL     1      -0.377   9.048  23.100  0.00  0.00    +0.000 N 
ATOM      2  C   UNL     1      -0.412  10.312  22.622  0.00  0.00    +0.000 C 
ATOM      3  O   UNL     1      -0.919  11.189  23.322  0.00  0.00    +0.000 OA
ATOM      4  N   UNL     1       0.080  10.528  21.345  0.00  0.00    +0.000 N 
ATOM      5  C   UNL     1      -0.008  11.885  20.815  0.00  0.00    +0.000 C 
ATOM      6  C   UNL     1      -0.323  11.893  19.332  0.00  0.00    +0.000 C 
ATOM      7  C   UNL     1       0.770  11.156  18.578  0.00  0.00    +0.000 C 
ATOM      8  C   UNL     1       1.112   9.846  19.233  0.00  0.00    +0.000 A 
ATOM      9  C   UNL     1       1.816   8.878  18.493  0.00  0.00    +0.000 A 
ATOM     10  C   UNL     1       2.188   7.654  19.058  0.00  0.00    +0.000 A 
ATOM     11  C   UNL     1       1.816   7.485  20.388  0.00  0.00    +0.000 A 
ATOM     12  N   UNL     1       1.133   8.388  21.131  0.00  0.00    +0.000 NA
ATOM     13  C   UNL     1       0.784   9.566  20.561  0.00  0.00    +0.000 A 
ATOM     14  H   UNL     1      -0.602   8.928  24.076  0.00  0.00    +0.000 HD
ATOM     15  H   UNL     1       0.326   8.436  22.696  0.00  0.00    +0.000 HD
ENDROOT
BRANCH  10  16
ATOM     16  C   UNL     1       2.930   6.619  18.314  0.00  0.00    +0.000 A 
ATOM     17  C   UNL     1       2.487   5.294  18.249  0.00  0.00    +0.000 A 
ATOM     18  N   UNL     1       3.109   4.297  17.571  0.00  0.00    +0.000 NA
ATOM     19  C   UNL     1       4.236   4.625  16.899  0.00  0.00    +0.000 A 
ATOM     20  C   UNL     1       4.781   5.899  16.898  0.00  0.00    +0.000 A 
ATOM     21  C   UNL     1       4.114   6.904  17.609  0.00  0.00    +0.000 A 
BRANCH  20  22
ATOM     22  C   UNL     1       5.993   6.138  16.089  0.00  0.00    +0.000 C 
ATOM     23  O   UNL     1       6.936   6.789  16.505  0.00  0.00    +0.000 OA
BRANCH  22  24
ATOM     24  O   UNL     1       5.964   5.592  14.856  0.00  0.00    +0.000 OA
ATOM     25  H   UNL     1       5.742   4.646  14.803  0.00  0.00    +0.000 HD
ENDBRANCH  22  24
ENDBRANCH  20  22
ENDBRANCH  10  16
TORSDOF 3
ENDMDL
MODEL 9
REMARK VINA RESULT:      -7.7      3.648      8.049
REMARK  Name = 
REMARK  3 active torsions:
REMARK  status: ('A' for Active; 'I' for Inactive)
REMARK    1  A    between atoms: C_10  and  C_11
REMARK    2  A    between atoms: C_15  and  C_16
REMARK    3  A    between atoms: C_16  and  O_18
REMARK                            x       y       z     vdW  Elec       q    Type
REMARK                         _______ _______ _______ _____ _____    ______ ____
ROOT
ATOM      1  N   UNL     1       3.078   2.500  20.407  0.00  0.00    +0.000 N 
ATOM      2  C   UNL     1       3.615   2.439  19.167  0.00  0.00    +0.000 C 
ATOM      3  O   UNL     1       4.014   1.349  18.755  0.00  0.00    +0.000 OA
ATOM      4  N   UNL     1       3.731   3.624  18.460  0.00  0.00    +0.000 N 
ATOM      5  C   UNL     1       4.360   3.559  17.144  0.00  0.00    +0.000 C 
ATOM      6  C   UNL     1       5.218   4.778  16.867  0.00  0.00    +0.000 C 
ATOM      7  C   UNL     1       4.358   6.028  16.924  0.00  0.00    +0.000 C 
ATOM      8  C   UNL     1       3.468   6.036  18.138  0.00  0.00    +0.000 A 
ATOM      9  C   UNL     1       2.888   7.251  18.548  0.00  0.00    +0.000 A 
ATOM     10  C   UNL     1       2.028   7.315  19.650  0.00  0.00    +0.000 A 
ATOM     11  C   UNL     1       1.798   6.099  20.284  0.00  0.00    +0.000 A 
ATOM     12  N   UNL     1       2.341   4.912  19.925  0.00  0.00    +0.000 NA
ATOM     13  C   UNL     1       3.170   4.876  18.855  0.00  0.00    +0.000 A 
ATOM     14  H   UNL     1       2.867   1.619  20.851  0.00  0.00    +0.000 HD
ATOM     15  H   UNL     1       2.458   3.284  20.588  0.00  0.00    +0.000 HD
ENDROOT
BRANCH  10  16
ATOM     16  C   UNL     1       1.399   8.569  20.105  0.00  0.00    +0.000 A 
ATOM     17  C   UNL     1       1.323   9.698  19.283  0.00  0.00    +0.000 A 
ATOM     18  N   UNL     1       0.745  10.875  19.629  0.00  0.00    +0.000 NA
ATOM     19  C   UNL     1       0.193  10.947  20.862  0.00  0.00    +0.000 A 
ATOM     20  C   UNL     1       0.216   9.901  21.770  0.00  0.00    +0.000 A 
ATOM     21  C   UNL     1       0.821   8.701  21.381  0.00  0.00    +0.000 A 
BRANCH  20  22
ATOM     22  C   UNL     1      -0.461  10.092  23.069  0.00  0.00    +0.000 C 
ATOM     23  O   UNL     1      -1.412  10.843  23.203  0.00  0.00    +0.000 OA
BRANCH  22  24
ATOM     24  O   UNL     1       0.066   9.384  24.089  0.00  0.00    +0.000 OA
ATOM     25  H   UNL     1      -0.195   8.448  24.150  0.00  0.00    +0.000 HD
ENDBRANCH  22  24
ENDBRANCH  20  22
ENDBRANCH  10  16
TORSDOF 3
ENDMDL
