MODEL 1
REMARK VINA RESULT:      -8.5      0.000      0.000
REMARK  Name = 
REMARK  13 active torsions:
REMARK  status: ('A' for Active; 'I' for Inactive)
REMARK    1  A    between atoms: C_1  and  C_2
REMARK    2  A    between atoms: C_2  and  C_3
REMARK    3  A    between atoms: C_2  and  C_4
REMARK    4  A    between atoms: C_2  and  O_13
REMARK    5  A    between atoms: C_4  and  O_5
REMARK    6  A    between atoms: O_5  and  C_6
REMARK    7  A    between atoms: C_6  and  C_8
REMARK    8  A    between atoms: C_8  and  C_9
REMARK    9  A    between atoms: C_9  and  C_10
REMARK   10  A    between atoms: C_10  and  O_12
REMARK   11  A    between atoms: O_13  and  C_14
REMARK   12  A    between atoms: C_30  and  C_31
REMARK   13  A    between atoms: C_30  and  C_32
REMARK                            x       y       z     vdW  Elec       q    Type
REMARK                         _______ _______ _______ _____ _____    ______ ____
ROOT
ATOM      1  C   UNL     1       0.621  10.802  20.256  0.00  0.00    +0.000 A 
ATOM      2  C   UNL     1       0.246   9.832  21.175  0.00  0.00    +0.000 A 
ATOM      3  C   UNL     1       0.707   8.519  21.071  0.00  0.00    +0.000 A 
ATOM      4  C   UNL     1       1.557   8.116  20.034  0.00  0.00    +0.000 A 
ATOM      5  C   UNL     1       1.857   9.083  19.054  0.00  0.00    +0.000 A 
ATOM      6  C   UNL     1       1.406  10.410  19.181  0.00  0.00    +0.000 A 
ATOM      7  C   UNL     1       2.679   8.758  17.842  0.00  0.00    +0.000 C 
ATOM      8  C   UNL     1       2.967   7.288  17.611  0.00  0.00    +0.000 C 
ATOM      9  C   UNL     1       2.777   6.351  18.771  0.00  0.00    +0.000 A 
ATOM     10  C   UNL     1       2.065   6.734  19.922  0.00  0.00    +0.000 A 
ATOM     11  C   UNL     1       1.769   5.725  20.883  0.00  0.00    +0.000 A 
ATOM     12  C   UNL     1       1.985   4.364  20.625  0.00  0.00    +0.000 A 
ATOM     13  C   UNL     1       2.526   4.011  19.406  0.00  0.00    +0.000 A 
ATOM     14  C   UNL     1       3.052   5.001  18.560  0.00  0.00    +0.000 A 
ATOM     15  C   UNL     1       3.507   4.378  17.273  0.00  0.00    +0.000 C 
ATOM     16  C   UNL     1       2.366   3.376  17.170  0.00  0.00    +0.000 C 
ATOM     17  C   UNL     1       2.285   2.735  18.594  0.00  0.00    +0.000 C 
ATOM     18  C   UNL     1       0.892   2.121  18.825  0.00  0.00    +0.000 C 
ATOM     19  C   UNL     1       3.378   1.663  18.698  0.00  0.00    +0.000 C 
ENDROOT
BRANCH   1  20
ATOM     20  O   UNL     1       0.312  12.129  20.278  0.00  0.00    +0.000 OA
BRANCH  20  22
ATOM     21  C   UNL     1      -0.234  13.375  18.341  0.00  0.00    +0.000 C 
ATOM     22  C   UNL     1      -0.829  12.660  19.574  0.00  0.00    +0.000 C 
ATOM     23  C   UNL     1      -1.542  13.755  20.382  0.00  0.00    +0.000 C 
BRANCH  22  24
ATOM     24  C   UNL     1      -1.711  11.503  19.058  0.00  0.00    +0.000 C 
BRANCH  24  25
ATOM     25  O   UNL     1      -3.063  11.883  18.784  0.00  0.00    +0.000 OA
BRANCH  25  26
ATOM     26  C   UNL     1      -3.558  11.371  17.631  0.00  0.00    +0.000 C 
ATOM     27  O   UNL     1      -4.742  11.301  17.325  0.00  0.00    +0.000 OA
BRANCH  26  28
ATOM     28  C   UNL     1      -2.439  11.033  16.682  0.00  0.00    +0.000 C 
BRANCH  28  29
ATOM     29  C   UNL     1      -2.753   9.696  15.995  0.00  0.00    +0.000 C 
BRANCH  29  30
ATOM     30  C   UNL     1      -3.241   9.907  14.582  0.00  0.00    +0.000 C 
ATOM     31  O   UNL     1      -2.497   9.906  13.615  0.00  0.00    +0.000 OA
BRANCH  30  32
ATOM     32  O   UNL     1      -4.554  10.171  14.488  0.00  0.00    +0.000 OA
ATOM     33  H   UNL     1      -4.896  10.266  13.568  0.00  0.00    +0.000 HD
ENDBRANCH  30  32
ENDBRANCH  29  30
ENDBRANCH  28  29
ENDBRANCH  26  28
ENDBRANCH  25  26
ENDBRANCH  24  25
ENDBRANCH  22  24
ENDBRANCH  20  22
ENDBRANCH   1  20
TORSDOF 9
ENDMDL
MODEL 2
REMARK VINA RESULT:      -8.3      0.923      1.091
REMARK  Name = 
REMARK  13 active torsions:
REMARK  status: ('A' for Active; 'I' for Inactive)
REMARK    1  A    between atoms: C_1  and  C_2
REMARK    2  A    between atoms: C_2  and  C_3
REMARK    3  A    between atoms: C_2  and  C_4
REMARK    4  A    between atoms: C_2  and  O_13
REMARK    5  A    between atoms: C_4  and  O_5
REMARK    6  A    between atoms: O_5  and  C_6
REMARK    7  A    between atoms: C_6  and  C_8
REMARK    8  A    between atoms: C_8  and  C_9
REMARK    9  A    between atoms: C_9  and  C_10
REMARK   10  A    between atoms: C_10  and  O_12
REMARK   11  A    between atoms: O_13  and  C_14
REMARK   12  A    between atoms: C_30  and  C_31
REMARK   13  A    between atoms: C_30  and  C_32
REMARK                            x       y       z     vdW  Elec       q    Type
REMARK                         _______ _______ _______ _____ _____    ______ ____
ROOT
ATOM      1  C   UNL     1       0.230  10.861  20.671  0.00  0.00    +0.000 A 
ATOM      2  C   UNL     1      -0.121   9.832  21.533  0.00  0.00    +0.000 A 
ATOM      3  C   UNL     1       0.397   8.545  21.373  0.00  0.00    +0.000 A 
ATOM      4  C   UNL     1       1.281   8.230  20.335  0.00  0.00    +0.000 A 
ATOM      5  C   UNL     1       1.559   9.256  19.410  0.00  0.00    +0.000 A 
ATOM      6  C   UNL     1       1.051  10.555  19.594  0.00  0.00    +0.000 A 
ATOM      7  C   UNL     1       2.416   9.026  18.201  0.00  0.00    +0.000 C 
ATOM      8  C   UNL     1       2.768   7.582  17.903  0.00  0.00    +0.000 C 
ATOM      9  C   UNL     1       2.597   6.581  19.011  0.00  0.00    +0.000 A 
ATOM     10  C   UNL     1       1.848   6.877  20.165  0.00  0.00    +0.000 A 
ATOM     11  C   UNL     1       1.577   5.810  21.069  0.00  0.00    +0.000 A 
ATOM     12  C   UNL     1       1.854   4.473  20.749  0.00  0.00    +0.000 A 
ATOM     13  C   UNL     1       2.431   4.204  19.525  0.00  0.00    +0.000 A 
ATOM     14  C   UNL     1       2.931   5.256  18.740  0.00  0.00    +0.000 A 
ATOM     15  C   UNL     1       3.435   4.717  17.433  0.00  0.00    +0.000 C 
ATOM     16  C   UNL     1       2.339   3.676  17.257  0.00  0.00    +0.000 C 
ATOM     17  C   UNL     1       2.259   2.962  18.647  0.00  0.00    +0.000 C 
ATOM     18  C   UNL     1       0.888   2.281  18.819  0.00  0.00    +0.000 C 
ATOM     19  C   UNL     1       3.394   1.931  18.719  0.00  0.00    +0.000 C 
ENDROOT
BRANCH   1  20
ATOM     20  O   UNL     1      -0.135  12.172  20.752  0.00  0.00    +0.000 OA
BRANCH  20  22
ATOM     21  C   UNL     1      -0.965  14.255  19.995  0.00  0.00    +0.000 C 
ATOM     22  C   UNL     1      -1.178  12.727  19.926  0.00  0.00    +0.000 C 
ATOM     23  C   UNL     1      -2.573  12.477  20.522  0.00  0.00    +0.000 C 
BRANCH  22  24
ATOM     24  C   UNL     1      -0.972  12.295  18.459  0.00  0.00    +0.000 C 
BRANCH  24  25
ATOM     25  O   UNL     1      -2.172  11.871  17.806  0.00  0.00    +0.000 OA
BRANCH  25  26
ATOM     26  C   UNL     1      -2.146  10.582  17.386  0.00  0.00    +0.000 C 
ATOM     27  O   UNL     1      -1.159   9.857  17.349  0.00  0.00    +0.000 OA
BRANCH  26  28
ATOM     28  C   UNL     1      -3.542  10.092  17.109  0.00  0.00    +0.000 C 
BRANCH  28  29
ATOM     29  C   UNL     1      -4.109  10.852  15.900  0.00  0.00    +0.000 C 
BRANCH  29  30
ATOM     30  C   UNL     1      -3.688  10.209  14.601  0.00  0.00    +0.000 C 
ATOM     31  O   UNL     1      -2.526  10.150  14.235  0.00  0.00    +0.000 OA
BRANCH  30  32
ATOM     32  O   UNL     1      -4.710   9.774  13.846  0.00  0.00    +0.000 OA
ATOM     33  H   UNL     1      -4.549   8.924  13.373  0.00  0.00    +0.000 HD
ENDBRANCH  30  32
ENDBRANCH  29  30
ENDBRANCH  28  29
ENDBRANCH  26  28
ENDBRANCH  25  26
ENDBRANCH  24  25
ENDBRANCH  22  24
ENDBRANCH  20  22
ENDBRANCH   1  20
TORSDOF 9
ENDMDL
MODEL 3
REMARK VINA RESULT:      -8.2      3.811      9.002
REMARK  Name = 
REMARK  13 active torsions:
REMARK  status: ('A' for Active; 'I' for Inactive)
REMARK    1  A    between atoms: C_1  and  C_2
REMARK    2  A    between atoms: C_2  and  C_3
REMARK    3  A    between atoms: C_2  and  C_4
REMARK    4  A    between atoms: C_2  and  O_13
REMARK    5  A    between atoms: C_4  and  O_5
REMARK    6  A    between atoms: O_5  and  C_6
REMARK    7  A    between atoms: C_6  and  C_8
REMARK    8  A    between atoms: C_8  and  C_9
REMARK    9  A    between atoms: C_9  and  C_10
REMARK   10  A    between atoms: C_10  and  O_12
REMARK   11  A    between atoms: O_13  and  C_14
REMARK   12  A    between atoms: C_30  and  C_31
REMARK   13  A    between atoms: C_30  and  C_32
REMARK                            x       y       z     vdW  Elec       q    Type
REMARK                         _______ _______ _______ _____ _____    ______ ____
ROOT
ATOM      1  C   UNL     1       2.026   7.695  19.832  0.00  0.00    +0.000 A 
ATOM      2  C   UNL     1       1.668   8.584  18.828  0.00  0.00    +0.000 A 
ATOM      3  C   UNL     1       0.906   9.720  19.105  0.00  0.00    +0.000 A 
ATOM      4  C   UNL     1       0.459  10.011  20.399  0.00  0.00    +0.000 A 
ATOM      5  C   UNL     1       0.747   9.057  21.394  0.00  0.00    +0.000 A 
ATOM      6  C   UNL     1       1.536   7.927  21.109  0.00  0.00    +0.000 A 
ATOM      7  C   UNL     1       0.247   9.199  22.801  0.00  0.00    +0.000 C 
ATOM      8  C   UNL     1      -0.774  10.295  23.034  0.00  0.00    +0.000 C 
ATOM      9  C   UNL     1      -0.893  11.369  21.989  0.00  0.00    +0.000 A 
ATOM     10  C   UNL     1      -0.333  11.219  20.707  0.00  0.00    +0.000 A 
ATOM     11  C   UNL     1      -0.660  12.197  19.725  0.00  0.00    +0.000 A 
ATOM     12  C   UNL     1      -1.653  13.164  19.936  0.00  0.00    +0.000 A 
ATOM     13  C   UNL     1      -2.307  13.169  21.151  0.00  0.00    +0.000 A 
ATOM     14  C   UNL     1      -1.825  12.381  22.208  0.00  0.00    +0.000 A 
ATOM     15  C   UNL     1      -2.745  12.500  23.388  0.00  0.00    +0.000 C 
ATOM     16  C   UNL     1      -4.035  12.536  22.580  0.00  0.00    +0.000 C 
ATOM     17  C   UNL     1      -3.752  13.579  21.449  0.00  0.00    +0.000 C 
ATOM     18  C   UNL     1      -4.706  13.350  20.262  0.00  0.00    +0.000 C 
ATOM     19  C   UNL     1      -3.939  14.984  22.037  0.00  0.00    +0.000 C 
ENDROOT
BRANCH   1  20
ATOM     20  O   UNL     1       2.824   6.596  19.721  0.00  0.00    +0.000 OA
BRANCH  20  22
ATOM     21  C   UNL     1       4.580   5.273  18.844  0.00  0.00    +0.000 C 
ATOM     22  C   UNL     1       3.404   6.198  18.462  0.00  0.00    +0.000 C 
ATOM     23  C   UNL     1       4.037   7.387  17.722  0.00  0.00    +0.000 C 
BRANCH  22  24
ATOM     24  C   UNL     1       2.390   5.353  17.662  0.00  0.00    +0.000 C 
BRANCH  24  25
ATOM     25  O   UNL     1       1.611   4.465  18.470  0.00  0.00    +0.000 OA
BRANCH  25  26
ATOM     26  C   UNL     1       1.712   3.162  18.113  0.00  0.00    +0.000 C 
ATOM     27  O   UNL     1       2.304   2.729  17.131  0.00  0.00    +0.000 OA
BRANCH  26  28
ATOM     28  C   UNL     1       1.125   2.277  19.180  0.00  0.00    +0.000 C 
BRANCH  28  29
ATOM     29  C   UNL     1       0.636   3.154  20.343  0.00  0.00    +0.000 C 
BRANCH  29  30
ATOM     30  C   UNL     1       1.661   3.221  21.448  0.00  0.00    +0.000 C 
ATOM     31  O   UNL     1       1.800   2.340  22.281  0.00  0.00    +0.000 OA
BRANCH  30  32
ATOM     32  O   UNL     1       2.358   4.369  21.483  0.00  0.00    +0.000 OA
ATOM     33  H   UNL     1       2.422   4.792  22.371  0.00  0.00    +0.000 HD
ENDBRANCH  30  32
ENDBRANCH  29  30
ENDBRANCH  28  29
ENDBRANCH  26  28
ENDBRANCH  25  26
ENDBRANCH  24  25
ENDBRANCH  22  24
ENDBRANCH  20  22
ENDBRANCH   1  20
TORSDOF 9
ENDMDL
MODEL 4
REMARK VINA RESULT:      -8.1      4.133      9.199
REMARK  Name = 
REMARK  13 active torsions:
REMARK  status: ('A' for Active; 'I' for Inactive)
REMARK    1  A    between atoms: C_1  and  C_2
REMARK    2  A    between atoms: C_2  and  C_3
REMARK    3  A    between atoms: C_2  and  C_4
REMARK    4  A    between atoms: C_2  and  O_13
REMARK    5  A    between atoms: C_4  and  O_5
REMARK    6  A    between atoms: O_5  and  C_6
REMARK    7  A    between atoms: C_6  and  C_8
REMARK    8  A    between atoms: C_8  and  C_9
REMARK    9  A    between atoms: C_9  and  C_10
REMARK   10  A    between atoms: C_10  and  O_12
REMARK   11  A    between atoms: O_13  and  C_14
REMARK   12  A    between atoms: C_30  and  C_31
REMARK   13  A    between atoms: C_30  and  C_32
REMARK                            x       y       z     vdW  Elec       q    Type
REMARK                         _______ _______ _______ _____ _____    ______ ____
ROOT
ATOM      1  C   UNL     1       2.229   7.330  19.389  0.00  0.00    +0.000 A 
ATOM      2  C   UNL     1       1.795   8.169  18.373  0.00  0.00    +0.000 A 
ATOM      3  C   UNL     1       1.082   9.336  18.653  0.00  0.00    +0.000 A 
ATOM      4  C   UNL     1       0.762   9.708  19.963  0.00  0.00    +0.000 A 
ATOM      5  C   UNL     1       1.124   8.804  20.982  0.00  0.00    +0.000 A 
ATOM      6  C   UNL     1       1.864   7.643  20.691  0.00  0.00    +0.000 A 
ATOM      7  C   UNL     1       0.759   9.036  22.418  0.00  0.00    +0.000 C 
ATOM      8  C   UNL     1      -0.217  10.165  22.680  0.00  0.00    +0.000 C 
ATOM      9  C   UNL     1      -0.413  11.182  21.591  0.00  0.00    +0.000 A 
ATOM     10  C   UNL     1       0.022  10.948  20.274  0.00  0.00    +0.000 A 
ATOM     11  C   UNL     1      -0.377  11.878  19.271  0.00  0.00    +0.000 A 
ATOM     12  C   UNL     1      -1.329  12.877  19.517  0.00  0.00    +0.000 A 
ATOM     13  C   UNL     1      -1.868  12.964  20.784  0.00  0.00    +0.000 A 
ATOM     14  C   UNL     1      -1.303  12.226  21.836  0.00  0.00    +0.000 A 
ATOM     15  C   UNL     1      -2.108  12.431  23.087  0.00  0.00    +0.000 C 
ATOM     16  C   UNL     1      -3.466  12.450  22.399  0.00  0.00    +0.000 C 
ATOM     17  C   UNL     1      -3.271  13.422  21.189  0.00  0.00    +0.000 C 
ATOM     18  C   UNL     1      -4.336  13.150  20.109  0.00  0.00    +0.000 C 
ATOM     19  C   UNL     1      -3.379  14.862  21.710  0.00  0.00    +0.000 C 
ENDROOT
BRANCH   1  20
ATOM     20  O   UNL     1       2.995   6.209  19.268  0.00  0.00    +0.000 OA
BRANCH  20  22
ATOM     21  C   UNL     1       1.823   4.573  18.022  0.00  0.00    +0.000 C 
ATOM     22  C   UNL     1       2.438   4.886  19.404  0.00  0.00    +0.000 C 
ATOM     23  C   UNL     1       1.263   4.858  20.394  0.00  0.00    +0.000 C 
BRANCH  22  24
ATOM     24  C   UNL     1       3.568   3.864  19.650  0.00  0.00    +0.000 C 
BRANCH  24  25
ATOM     25  O   UNL     1       4.149   3.342  18.451  0.00  0.00    +0.000 OA
BRANCH  25  26
ATOM     26  C   UNL     1       5.280   3.980  18.062  0.00  0.00    +0.000 C 
ATOM     27  O   UNL     1       6.204   4.314  18.794  0.00  0.00    +0.000 OA
BRANCH  26  28
ATOM     28  C   UNL     1       5.332   4.091  16.562  0.00  0.00    +0.000 C 
BRANCH  28  29
ATOM     29  C   UNL     1       5.515   5.567  16.176  0.00  0.00    +0.000 C 
BRANCH  29  30
ATOM     30  C   UNL     1       6.967   5.891  15.919  0.00  0.00    +0.000 C 
ATOM     31  O   UNL     1       7.610   6.658  16.615  0.00  0.00    +0.000 OA
BRANCH  30  32
ATOM     32  O   UNL     1       7.469   5.320  14.812  0.00  0.00    +0.000 OA
ATOM     33  H   UNL     1       8.240   5.788  14.413  0.00  0.00    +0.000 HD
ENDBRANCH  30  32
ENDBRANCH  29  30
ENDBRANCH  28  29
ENDBRANCH  26  28
ENDBRANCH  25  26
ENDBRANCH  24  25
ENDBRANCH  22  24
ENDBRANCH  20  22
ENDBRANCH   1  20
TORSDOF 9
ENDMDL
MODEL 5
REMARK VINA RESULT:      -8.1      2.121      2.912
REMARK  Name = 
REMARK  13 active torsions:
REMARK  status: ('A' for Active; 'I' for Inactive)
REMARK    1  A    between atoms: C_1  and  C_2
REMARK    2  A    between atoms: C_2  and  C_3
REMARK    3  A    between atoms: C_2  and  C_4
REMARK    4  A    between atoms: C_2  and  O_13
REMARK    5  A    between atoms: C_4  and  O_5
REMARK    6  A    between atoms: O_5  and  C_6
REMARK    7  A    between atoms: C_6  and  C_8
REMARK    8  A    between atoms: C_8  and  C_9
REMARK    9  A    between atoms: C_9  and  C_10
REMARK   10  A    between atoms: C_10  and  O_12
REMARK   11  A    between atoms: O_13  and  C_14
REMARK   12  A    between atoms: C_30  and  C_31
REMARK   13  A    between atoms: C_30  and  C_32
REMARK                            x       y       z     vdW  Elec       q    Type
REMARK                         _______ _______ _______ _____ _____    ______ ____
ROOT
ATOM      1  C   UNL     1       0.413  10.719  20.443  0.00  0.00    +0.000 A 
ATOM      2  C   UNL     1       0.086   9.719  21.348  0.00  0.00    +0.000 A 
ATOM      3  C   UNL     1       0.593   8.426  21.213  0.00  0.00    +0.000 A 
ATOM      4  C   UNL     1       1.443   8.073  20.158  0.00  0.00    +0.000 A 
ATOM      5  C   UNL     1       1.695   9.068  19.192  0.00  0.00    +0.000 A 
ATOM      6  C   UNL     1       1.198  10.375  19.351  0.00  0.00    +0.000 A 
ATOM      7  C   UNL     1       2.511   8.796  17.964  0.00  0.00    +0.000 C 
ATOM      8  C   UNL     1       2.848   7.342  17.701  0.00  0.00    +0.000 C 
ATOM      9  C   UNL     1       2.709   6.377  18.845  0.00  0.00    +0.000 A 
ATOM     10  C   UNL     1       1.999   6.713  20.013  0.00  0.00    +0.000 A 
ATOM     11  C   UNL     1       1.753   5.676  20.958  0.00  0.00    +0.000 A 
ATOM     12  C   UNL     1       2.014   4.328  20.671  0.00  0.00    +0.000 A 
ATOM     13  C   UNL     1       2.550   4.018  19.439  0.00  0.00    +0.000 A 
ATOM     14  C   UNL     1       3.028   5.042  18.606  0.00  0.00    +0.000 A 
ATOM     15  C   UNL     1       3.489   4.460  17.301  0.00  0.00    +0.000 C 
ATOM     16  C   UNL     1       2.383   3.420  17.193  0.00  0.00    +0.000 C 
ATOM     17  C   UNL     1       2.345   2.750  18.606  0.00  0.00    +0.000 C 
ATOM     18  C   UNL     1       0.977   2.081  18.844  0.00  0.00    +0.000 C 
ATOM     19  C   UNL     1       3.477   1.716  18.675  0.00  0.00    +0.000 C 
ENDROOT
BRANCH   1  20
ATOM     20  O   UNL     1       0.057  12.033  20.494  0.00  0.00    +0.000 OA
BRANCH  20  22
ATOM     21  C   UNL     1      -1.697  11.462  19.011  0.00  0.00    +0.000 C 
ATOM     22  C   UNL     1      -1.244  12.489  20.073  0.00  0.00    +0.000 C 
ATOM     23  C   UNL     1      -1.169  13.837  19.338  0.00  0.00    +0.000 C 
BRANCH  22  24
ATOM     24  C   UNL     1      -2.237  12.404  21.252  0.00  0.00    +0.000 C 
BRANCH  24  25
ATOM     25  O   UNL     1      -3.393  13.233  21.096  0.00  0.00    +0.000 OA
BRANCH  25  26
ATOM     26  C   UNL     1      -4.568  12.581  21.275  0.00  0.00    +0.000 C 
ATOM     27  O   UNL     1      -5.112  12.362  22.351  0.00  0.00    +0.000 OA
BRANCH  26  28
ATOM     28  C   UNL     1      -5.215  12.289  19.948  0.00  0.00    +0.000 C 
BRANCH  28  29
ATOM     29  C   UNL     1      -6.728  12.123  20.155  0.00  0.00    +0.000 C 
BRANCH  29  30
ATOM     30  C   UNL     1      -7.145  10.678  20.020  0.00  0.00    +0.000 C 
ATOM     31  O   UNL     1      -7.343   9.951  20.979  0.00  0.00    +0.000 OA
BRANCH  30  32
ATOM     32  O   UNL     1      -7.204  10.240  18.752  0.00  0.00    +0.000 OA
ATOM     33  H   UNL     1      -6.379  10.370  18.226  0.00  0.00    +0.000 HD
ENDBRANCH  30  32
ENDBRANCH  29  30
ENDBRANCH  28  29
ENDBRANCH  26  28
ENDBRANCH  25  26
ENDBRANCH  24  25
ENDBRANCH  22  24
ENDBRANCH  20  22
ENDBRANCH   1  20
TORSDOF 9
ENDMDL
MODEL 6
REMARK VINA RESULT:      -8.0      4.060      9.210
REMARK  Name = 
REMARK  13 active torsions:
REMARK  status: ('A' for Active; 'I' for Inactive)
REMARK    1  A    between atoms: C_1  and  C_2
REMARK    2  A    between atoms: C_2  and  C_3
REMARK    3  A    between atoms: C_2  and  C_4
REMARK    4  A    between atoms: C_2  and  O_13
REMARK    5  A    between atoms: C_4  and  O_5
REMARK    6  A    between atoms: O_5  and  C_6
REMARK    7  A    between atoms: C_6  and  C_8
REMARK    8  A    between atoms: C_8  and  C_9
REMARK    9  A    between atoms: C_9  and  C_10
REMARK   10  A    between atoms: C_10  and  O_12
REMARK   11  A    between atoms: O_13  and  C_14
REMARK   12  A    between atoms: C_30  and  C_31
REMARK   13  A    between atoms: C_30  and  C_32
REMARK                            x       y       z     vdW  Elec       q    Type
REMARK                         _______ _______ _______ _____ _____    ______ ____
ROOT
ATOM      1  C   UNL     1       2.428   7.103  18.655  0.00  0.00    +0.000 A 
ATOM      2  C   UNL     1       1.967   8.040  17.741  0.00  0.00    +0.000 A 
ATOM      3  C   UNL     1       1.323   9.205  18.161  0.00  0.00    +0.000 A 
ATOM      4  C   UNL     1       1.103   9.478  19.516  0.00  0.00    +0.000 A 
ATOM      5  C   UNL     1       1.490   8.480  20.431  0.00  0.00    +0.000 A 
ATOM      6  C   UNL     1       2.160   7.320  19.999  0.00  0.00    +0.000 A 
ATOM      7  C   UNL     1       1.228   8.604  21.903  0.00  0.00    +0.000 C 
ATOM      8  C   UNL     1       0.319   9.743  22.319  0.00  0.00    +0.000 C 
ATOM      9  C   UNL     1       0.098  10.854  21.332  0.00  0.00    +0.000 A 
ATOM     10  C   UNL     1       0.438  10.715  19.974  0.00  0.00    +0.000 A 
ATOM     11  C   UNL     1       0.016  11.739  19.078  0.00  0.00    +0.000 A 
ATOM     12  C   UNL     1      -0.876  12.749  19.467  0.00  0.00    +0.000 A 
ATOM     13  C   UNL     1      -1.328  12.749  20.770  0.00  0.00    +0.000 A 
ATOM     14  C   UNL     1      -0.730  11.906  21.719  0.00  0.00    +0.000 A 
ATOM     15  C   UNL     1      -1.444  12.036  23.033  0.00  0.00    +0.000 C 
ATOM     16  C   UNL     1      -2.841  12.163  22.442  0.00  0.00    +0.000 C 
ATOM     17  C   UNL     1      -2.683  13.224  21.304  0.00  0.00    +0.000 C 
ATOM     18  C   UNL     1      -3.824  13.082  20.279  0.00  0.00    +0.000 C 
ATOM     19  C   UNL     1      -2.696  14.618  21.945  0.00  0.00    +0.000 C 
ENDROOT
BRANCH   1  20
ATOM     20  O   UNL     1       3.137   5.968  18.393  0.00  0.00    +0.000 OA
BRANCH  20  22
ATOM     21  C   UNL     1       1.462   4.491  17.608  0.00  0.00    +0.000 C 
ATOM     22  C   UNL     1       2.595   4.656  18.644  0.00  0.00    +0.000 C 
ATOM     23  C   UNL     1       1.913   4.571  20.019  0.00  0.00    +0.000 C 
BRANCH  22  24
ATOM     24  C   UNL     1       3.662   3.582  18.340  0.00  0.00    +0.000 C 
BRANCH  24  25
ATOM     25  O   UNL     1       4.886   3.762  19.059  0.00  0.00    +0.000 OA
BRANCH  25  26
ATOM     26  C   UNL     1       5.833   4.446  18.372  0.00  0.00    +0.000 C 
ATOM     27  O   UNL     1       6.134   4.275  17.197  0.00  0.00    +0.000 OA
BRANCH  26  28
ATOM     28  C   UNL     1       6.376   5.575  19.208  0.00  0.00    +0.000 C 
BRANCH  28  29
ATOM     29  C   UNL     1       7.784   5.935  18.708  0.00  0.00    +0.000 C 
BRANCH  29  30
ATOM     30  C   UNL     1       7.782   7.249  17.966  0.00  0.00    +0.000 C 
ATOM     31  O   UNL     1       8.376   8.238  18.363  0.00  0.00    +0.000 OA
BRANCH  30  32
ATOM     32  O   UNL     1       7.007   7.260  16.869  0.00  0.00    +0.000 OA
ATOM     33  H   UNL     1       7.452   6.965  16.040  0.00  0.00    +0.000 HD
ENDBRANCH  30  32
ENDBRANCH  29  30
ENDBRANCH  28  29
ENDBRANCH  26  28
ENDBRANCH  25  26
ENDBRANCH  24  25
ENDBRANCH  22  24
ENDBRANCH  20  22
ENDBRANCH   1  20
TORSDOF 9
ENDMDL
MODEL 7
REMARK VINA RESULT:      -8.0      1.240      1.509
REMARK  Name = 
REMARK  13 active torsions:
REMARK  status: ('A' for Active; 'I' for Inactive)
REMARK    1  A    between atoms: C_1  and  C_2
REMARK    2  A    between atoms: C_2  and  C_3
REMARK    3  A    between atoms: C_2  and  C_4
REMARK    4  A    between atoms: C_2  and  O_13
REMARK    5  A    between atoms: C_4  and  O_5
REMARK    6  A    between atoms: O_5  and  C_6
REMARK    7  A    between atoms: C_6  and  C_8
REMARK    8  A    between atoms: C_8  and  C_9
REMARK    9  A    between atoms: C_9  and  C_10
REMARK   10  A    between atoms: C_10  and  O_12
REMARK   11  A    between atoms: O_13  and  C_14
REMARK   12  A    between atoms: C_30  and  C_31
REMARK   13  A    between atoms: C_30  and  C_32
REMARK                            x       y       z     vdW  Elec       q    Type
REMARK                         _______ _______ _______ _____ _____    ______ ____
ROOT
ATOM      1  C   UNL     1       0.092  11.188  20.384  0.00  0.00    +0.000 A 
ATOM      2  C   UNL     1      -0.212  10.209  21.318  0.00  0.00    +0.000 A 
ATOM      3  C   UNL     1       0.328   8.926  21.224  0.00  0.00    +0.000 A 
ATOM      4  C   UNL     1       1.190   8.563  20.183  0.00  0.00    +0.000 A 
ATOM      5  C   UNL     1       1.420   9.533  19.188  0.00  0.00    +0.000 A 
ATOM      6  C   UNL     1       0.889  10.831  19.305  0.00  0.00    +0.000 A 
ATOM      7  C   UNL     1       2.247   9.245  17.971  0.00  0.00    +0.000 C 
ATOM      8  C   UNL     1       2.622   7.792  17.754  0.00  0.00    +0.000 C 
ATOM      9  C   UNL     1       2.503   6.860  18.927  0.00  0.00    +0.000 A 
ATOM     10  C   UNL     1       1.781   7.213  20.082  0.00  0.00    +0.000 A 
ATOM     11  C   UNL     1       1.558   6.200  21.058  0.00  0.00    +0.000 A 
ATOM     12  C   UNL     1       1.854   4.851  20.813  0.00  0.00    +0.000 A 
ATOM     13  C   UNL     1       2.402   4.517  19.592  0.00  0.00    +0.000 A 
ATOM     14  C   UNL     1       2.857   5.527  18.730  0.00  0.00    +0.000 A 
ATOM     15  C   UNL     1       3.337   4.916  17.445  0.00  0.00    +0.000 C 
ATOM     16  C   UNL     1       2.258   3.845  17.366  0.00  0.00    +0.000 C 
ATOM     17  C   UNL     1       2.232   3.218  18.799  0.00  0.00    +0.000 C 
ATOM     18  C   UNL     1       0.882   2.523  19.053  0.00  0.00    +0.000 C 
ATOM     19  C   UNL     1       3.390   2.217  18.903  0.00  0.00    +0.000 C 
ENDROOT
BRANCH   1  20
ATOM     20  O   UNL     1      -0.297  12.494  20.394  0.00  0.00    +0.000 OA
BRANCH  20  22
ATOM     21  C   UNL     1      -1.448  14.483  20.962  0.00  0.00    +0.000 C 
ATOM     22  C   UNL     1      -1.324  12.978  21.283  0.00  0.00    +0.000 C 
ATOM     23  C   UNL     1      -0.888  12.904  22.755  0.00  0.00    +0.000 C 
BRANCH  22  24
ATOM     24  C   UNL     1      -2.674  12.317  20.933  0.00  0.00    +0.000 C 
BRANCH  24  25
ATOM     25  O   UNL     1      -2.983  12.334  19.536  0.00  0.00    +0.000 OA
BRANCH  25  26
ATOM     26  C   UNL     1      -4.291  12.118  19.257  0.00  0.00    +0.000 C 
ATOM     27  O   UNL     1      -5.242  12.478  19.941  0.00  0.00    +0.000 OA
BRANCH  26  28
ATOM     28  C   UNL     1      -4.443  11.503  17.891  0.00  0.00    +0.000 C 
BRANCH  28  29
ATOM     29  C   UNL     1      -3.355  10.435  17.700  0.00  0.00    +0.000 C 
BRANCH  29  30
ATOM     30  C   UNL     1      -2.709  10.548  16.341  0.00  0.00    +0.000 C 
ATOM     31  O   UNL     1      -2.643   9.616  15.556  0.00  0.00    +0.000 OA
BRANCH  30  32
ATOM     32  O   UNL     1      -2.143  11.742  16.099  0.00  0.00    +0.000 OA
ATOM     33  H   UNL     1      -1.465  11.746  15.383  0.00  0.00    +0.000 HD
ENDBRANCH  30  32
ENDBRANCH  29  30
ENDBRANCH  28  29
ENDBRANCH  26  28
ENDBRANCH  25  26
ENDBRANCH  24  25
ENDBRANCH  22  24
ENDBRANCH  20  22
ENDBRANCH   1  20
TORSDOF 9
ENDMDL
MODEL 8
REMARK VINA RESULT:      -7.9      1.364      2.459
REMARK  Name = 
REMARK  13 active torsions:
REMARK  status: ('A' for Active; 'I' for Inactive)
REMARK    1  A    between atoms: C_1  and  C_2
REMARK    2  A    between atoms: C_2  and  C_3
REMARK    3  A    between atoms: C_2  and  C_4
REMARK    4  A    between atoms: C_2  and  O_13
REMARK    5  A    between atoms: C_4  and  O_5
REMARK    6  A    between atoms: O_5  and  C_6
REMARK    7  A    between atoms: C_6  and  C_8
REMARK    8  A    between atoms: C_8  and  C_9
REMARK    9  A    between atoms: C_9  and  C_10
REMARK   10  A    between atoms: C_10  and  O_12
REMARK   11  A    between atoms: O_13  and  C_14
REMARK   12  A    between atoms: C_30  and  C_31
REMARK   13  A    between atoms: C_30  and  C_32
REMARK                            x       y       z     vdW  Elec       q    Type
REMARK                         _______ _______ _______ _____ _____    ______ ____
ROOT
ATOM      1  C   UNL     1       0.481  10.552  20.395  0.00  0.00    +0.000 A 
ATOM      2  C   UNL     1       0.209   9.560  21.326  0.00  0.00    +0.000 A 
ATOM      3  C   UNL     1       0.735   8.275  21.189  0.00  0.00    +0.000 A 
ATOM      4  C   UNL     1       1.550   7.923  20.107  0.00  0.00    +0.000 A 
ATOM      5  C   UNL     1       1.745   8.908  19.119  0.00  0.00    +0.000 A 
ATOM      6  C   UNL     1       1.229  10.208  19.278  0.00  0.00    +0.000 A 
ATOM      7  C   UNL     1       2.519   8.634  17.863  0.00  0.00    +0.000 C 
ATOM      8  C   UNL     1       2.874   7.183  17.608  0.00  0.00    +0.000 C 
ATOM      9  C   UNL     1       2.797   6.232  18.770  0.00  0.00    +0.000 A 
ATOM     10  C   UNL     1       2.127   6.572  19.959  0.00  0.00    +0.000 A 
ATOM     11  C   UNL     1       1.937   5.544  20.928  0.00  0.00    +0.000 A 
ATOM     12  C   UNL     1       2.213   4.197  20.650  0.00  0.00    +0.000 A 
ATOM     13  C   UNL     1       2.708   3.880  19.402  0.00  0.00    +0.000 A 
ATOM     14  C   UNL     1       3.133   4.900  18.537  0.00  0.00    +0.000 A 
ATOM     15  C   UNL     1       3.555   4.308  17.223  0.00  0.00    +0.000 C 
ATOM     16  C   UNL     1       2.466   3.245  17.173  0.00  0.00    +0.000 C 
ATOM     17  C   UNL     1       2.496   2.595  18.596  0.00  0.00    +0.000 C 
ATOM     18  C   UNL     1       1.152   1.905  18.895  0.00  0.00    +0.000 C 
ATOM     19  C   UNL     1       3.649   1.584  18.635  0.00  0.00    +0.000 C 
ENDROOT
BRANCH   1  20
ATOM     20  O   UNL     1       0.101  11.860  20.442  0.00  0.00    +0.000 OA
BRANCH  20  22
ATOM     21  C   UNL     1      -1.085  13.691  19.522  0.00  0.00    +0.000 C 
ATOM     22  C   UNL     1      -1.242  12.278  20.125  0.00  0.00    +0.000 C 
ATOM     23  C   UNL     1      -2.098  12.461  21.388  0.00  0.00    +0.000 C 
BRANCH  22  24
ATOM     24  C   UNL     1      -1.828  11.367  19.025  0.00  0.00    +0.000 C 
BRANCH  24  25
ATOM     25  O   UNL     1      -2.868  11.980  18.258  0.00  0.00    +0.000 OA
BRANCH  25  26
ATOM     26  C   UNL     1      -3.781  11.107  17.768  0.00  0.00    +0.000 C 
ATOM     27  O   UNL     1      -3.575   9.932  17.487  0.00  0.00    +0.000 OA
BRANCH  26  28
ATOM     28  C   UNL     1      -5.152  11.730  17.756  0.00  0.00    +0.000 C 
BRANCH  28  29
ATOM     29  C   UNL     1      -6.025  11.037  18.812  0.00  0.00    +0.000 C 
BRANCH  29  30
ATOM     30  C   UNL     1      -6.065  11.828  20.097  0.00  0.00    +0.000 C 
ATOM     31  O   UNL     1      -5.478  12.887  20.243  0.00  0.00    +0.000 OA
BRANCH  30  32
ATOM     32  O   UNL     1      -6.739  11.228  21.092  0.00  0.00    +0.000 OA
ATOM     33  H   UNL     1      -7.129  10.352  20.863  0.00  0.00    +0.000 HD
ENDBRANCH  30  32
ENDBRANCH  29  30
ENDBRANCH  28  29
ENDBRANCH  26  28
ENDBRANCH  25  26
ENDBRANCH  24  25
ENDBRANCH  22  24
ENDBRANCH  20  22
ENDBRANCH   1  20
TORSDOF 9
ENDMDL
MODEL 9
REMARK VINA RESULT:      -7.9      2.865      4.370
REMARK  Name = 
REMARK  13 active torsions:
REMARK  status: ('A' for Active; 'I' for Inactive)
REMARK    1  A    between atoms: C_1  and  C_2
REMARK    2  A    between atoms: C_2  and  C_3
REMARK    3  A    between atoms: C_2  and  C_4
REMARK    4  A    between atoms: C_2  and  O_13
REMARK    5  A    between atoms: C_4  and  O_5
REMARK    6  A    between atoms: O_5  and  C_6
REMARK    7  A    between atoms: C_6  and  C_8
REMARK    8  A    between atoms: C_8  and  C_9
REMARK    9  A    between atoms: C_9  and  C_10
REMARK   10  A    between atoms: C_10  and  O_12
REMARK   11  A    between atoms: O_13  and  C_14
REMARK   12  A    between atoms: C_30  and  C_31
REMARK   13  A    between atoms: C_30  and  C_32
REMARK                            x       y       z     vdW  Elec       q    Type
REMARK                         _______ _______ _______ _____ _____    ______ ____
ROOT
ATOM      1  C   UNL     1       0.058  11.119  20.150  0.00  0.00    +0.000 A 
ATOM      2  C   UNL     1      -0.212  10.168  21.124  0.00  0.00    +0.000 A 
ATOM      3  C   UNL     1       0.365   8.898  21.076  0.00  0.00    +0.000 A 
ATOM      4  C   UNL     1       1.231   8.520  20.043  0.00  0.00    +0.000 A 
ATOM      5  C   UNL     1       1.426   9.457  19.010  0.00  0.00    +0.000 A 
ATOM      6  C   UNL     1       0.859  10.743  19.080  0.00  0.00    +0.000 A 
ATOM      7  C   UNL     1       2.254   9.146  17.798  0.00  0.00    +0.000 C 
ATOM      8  C   UNL     1       2.670   7.697  17.635  0.00  0.00    +0.000 C 
ATOM      9  C   UNL     1       2.585   6.808  18.844  0.00  0.00    +0.000 A 
ATOM     10  C   UNL     1       1.860   7.185  19.990  0.00  0.00    +0.000 A 
ATOM     11  C   UNL     1       1.673   6.204  21.006  0.00  0.00    +0.000 A 
ATOM     12  C   UNL     1       2.007   4.856  20.811  0.00  0.00    +0.000 A 
ATOM     13  C   UNL     1       2.557   4.491  19.600  0.00  0.00    +0.000 A 
ATOM     14  C   UNL     1       2.977   5.479  18.696  0.00  0.00    +0.000 A 
ATOM     15  C   UNL     1       3.467   4.834  17.432  0.00  0.00    +0.000 C 
ATOM     16  C   UNL     1       2.419   3.730  17.403  0.00  0.00    +0.000 C 
ATOM     17  C   UNL     1       2.421   3.158  18.859  0.00  0.00    +0.000 C 
ATOM     18  C   UNL     1       1.092   2.435  19.150  0.00  0.00    +0.000 C 
ATOM     19  C   UNL     1       3.608   2.195  18.993  0.00  0.00    +0.000 C 
ENDROOT
BRANCH   1  20
ATOM     20  O   UNL     1      -0.369  12.412  20.112  0.00  0.00    +0.000 OA
BRANCH  20  22
ATOM     21  C   UNL     1       0.465  14.478  19.314  0.00  0.00    +0.000 C 
ATOM     22  C   UNL     1       0.477  13.508  20.516  0.00  0.00    +0.000 C 
ATOM     23  C   UNL     1       1.941  13.070  20.679  0.00  0.00    +0.000 C 
BRANCH  22  24
ATOM     24  C   UNL     1      -0.157  14.246  21.714  0.00  0.00    +0.000 C 
BRANCH  24  25
ATOM     25  O   UNL     1      -0.247  13.452  22.901  0.00  0.00    +0.000 OA
BRANCH  25  26
ATOM     26  C   UNL     1      -1.438  13.547  23.540  0.00  0.00    +0.000 C 
ATOM     27  O   UNL     1      -1.860  14.534  24.132  0.00  0.00    +0.000 OA
BRANCH  26  28
ATOM     28  C   UNL     1      -2.267  12.315  23.294  0.00  0.00    +0.000 C 
BRANCH  28  29
ATOM     29  C   UNL     1      -3.629  12.734  22.721  0.00  0.00    +0.000 C 
BRANCH  29  30
ATOM     30  C   UNL     1      -4.670  12.847  23.808  0.00  0.00    +0.000 C 
ATOM     31  O   UNL     1      -5.345  13.848  23.981  0.00  0.00    +0.000 OA
BRANCH  30  32
ATOM     32  O   UNL     1      -4.736  11.778  24.619  0.00  0.00    +0.000 OA
ATOM     33  H   UNL     1      -4.938  10.924  24.168  0.00  0.00    +0.000 HD
ENDBRANCH  30  32
ENDBRANCH  29  30
ENDBRANCH  28  29
ENDBRANCH  26  28
ENDBRANCH  25  26
ENDBRANCH  24  25
ENDBRANCH  22  24
ENDBRANCH  20  22
ENDBRANCH   1  20
TORSDOF 9
ENDMDL
