MODEL 1
REMARK VINA RESULT:      -8.4      0.000      0.000
REMARK  Name = 
REMARK  13 active torsions:
REMARK  status: ('A' for Active; 'I' for Inactive)
REMARK    1  A    between atoms: C_1  and  O_2
REMARK    2  A    between atoms: O_2  and  C_3
REMARK    3  A    between atoms: C_6  and  C_7
REMARK    4  A    between atoms: C_9  and  C_10
REMARK    5  A    between atoms: C_12  and  O_13
REMARK    6  A    between atoms: O_13  and  C_14
REMARK    7  A    between atoms: C_15  and  O_16
REMARK    8  A    between atoms: C_17  and  O_18
REMARK    9  A    between atoms: O_18  and  C_19
REMARK   10  A    between atoms: C_21  and  C_22
REMARK   11  A    between atoms: C_23  and  C_24
REMARK   12  A    between atoms: C_26  and  O_27
REMARK   13  A    between atoms: O_27  and  C_28
REMARK                            x       y       z     vdW  Elec       q    Type
REMARK                         _______ _______ _______ _____ _____    ______ ____
ROOT
ATOM      1  C   UNL     1       4.139   4.644  18.802  0.00  0.00    +0.000 C 
ATOM      2  O   UNL     1       3.804   5.970  19.236  0.00  0.00    +0.000 OA
ATOM      3  C   UNL     1       2.589   5.867  19.981  0.00  0.00    +0.000 C 
ATOM      4  C   UNL     1       1.782   4.719  19.355  0.00  0.00    +0.000 C 
ATOM      5  C   UNL     1       1.058   3.905  20.424  0.00  0.00    +0.000 C 
ATOM      6  C   UNL     1       2.799   3.967  18.480  0.00  0.00    +0.000 C 
ATOM      7  C   UNL     1       2.867   2.452  18.643  0.00  0.00    +0.000 C 
ENDROOT
BRANCH   1  11
ATOM      8  C   UNL     1       6.779   5.077  15.397  0.00  0.00    +0.000 A 
ATOM      9  C   UNL     1       5.826   4.049  15.431  0.00  0.00    +0.000 A 
ATOM     10  C   UNL     1       4.988   3.885  16.535  0.00  0.00    +0.000 A 
ATOM     11  C   UNL     1       5.099   4.731  17.641  0.00  0.00    +0.000 A 
ATOM     12  C   UNL     1       6.119   5.689  17.643  0.00  0.00    +0.000 A 
ATOM     13  C   UNL     1       6.966   5.874  16.536  0.00  0.00    +0.000 A 
BRANCH   8  15
ATOM     14  C   UNL     1       7.143   4.559  13.117  0.00  0.00    +0.000 C 
ATOM     15  O   UNL     1       7.541   5.289  14.278  0.00  0.00    +0.000 OA
ENDBRANCH   8  15
BRANCH  13  16
ATOM     16  O   UNL     1       7.872   6.878  16.747  0.00  0.00    +0.000 OA
ATOM     17  C   UNL     1       7.504   7.971  17.573  0.00  0.00    +0.000 C 
ENDBRANCH  13  16
ENDBRANCH   1  11
BRANCH   3  18
ATOM     18  C   UNL     1       1.873   7.201  19.990  0.00  0.00    +0.000 A 
ATOM     19  C   UNL     1       2.016   8.127  18.946  0.00  0.00    +0.000 A 
ATOM     20  C   UNL     1       1.369   9.368  18.982  0.00  0.00    +0.000 A 
ATOM     21  C   UNL     1       0.542   9.665  20.075  0.00  0.00    +0.000 A 
ATOM     22  C   UNL     1       0.376   8.752  21.123  0.00  0.00    +0.000 A 
ATOM     23  C   UNL     1       1.034   7.524  21.069  0.00  0.00    +0.000 A 
BRANCH  20  24
ATOM     24  O   UNL     1       1.566  10.153  17.878  0.00  0.00    +0.000 OA
ATOM     25  C   UNL     1       2.356  11.323  18.069  0.00  0.00    +0.000 C 
ENDBRANCH  20  24
BRANCH  21  26
ATOM     26  O   UNL     1      -0.179  10.831  20.116  0.00  0.00    +0.000 OA
ATOM     27  H   UNL     1      -1.061  10.577  20.427  0.00  0.00    +0.000 HD
ENDBRANCH  21  26
BRANCH  22  28
ATOM     28  O   UNL     1      -0.467   9.143  22.136  0.00  0.00    +0.000 OA
ATOM     29  C   UNL     1       0.122   9.483  23.381  0.00  0.00    +0.000 C 
ENDBRANCH  22  28
ENDBRANCH   3  18
TORSDOF 7
ENDMDL
MODEL 2
REMARK VINA RESULT:      -8.2      0.149      2.258
REMARK  Name = 
REMARK  13 active torsions:
REMARK  status: ('A' for Active; 'I' for Inactive)
REMARK    1  A    between atoms: C_1  and  O_2
REMARK    2  A    between atoms: O_2  and  C_3
REMARK    3  A    between atoms: C_6  and  C_7
REMARK    4  A    between atoms: C_9  and  C_10
REMARK    5  A    between atoms: C_12  and  O_13
REMARK    6  A    between atoms: O_13  and  C_14
REMARK    7  A    between atoms: C_15  and  O_16
REMARK    8  A    between atoms: C_17  and  O_18
REMARK    9  A    between atoms: O_18  and  C_19
REMARK   10  A    between atoms: C_21  and  C_22
REMARK   11  A    between atoms: C_23  and  C_24
REMARK   12  A    between atoms: C_26  and  O_27
REMARK   13  A    between atoms: O_27  and  C_28
REMARK                            x       y       z     vdW  Elec       q    Type
REMARK                         _______ _______ _______ _____ _____    ______ ____
ROOT
ATOM      1  C   UNL     1       4.195   4.643  18.862  0.00  0.00    +0.000 C 
ATOM      2  O   UNL     1       3.836   5.970  19.273  0.00  0.00    +0.000 OA
ATOM      3  C   UNL     1       2.630   5.856  20.032  0.00  0.00    +0.000 C 
ATOM      4  C   UNL     1       1.842   4.679  19.436  0.00  0.00    +0.000 C 
ATOM      5  C   UNL     1       1.146   3.871  20.527  0.00  0.00    +0.000 C 
ATOM      6  C   UNL     1       2.868   3.931  18.567  0.00  0.00    +0.000 C 
ATOM      7  C   UNL     1       2.969   2.421  18.759  0.00  0.00    +0.000 C 
ENDROOT
BRANCH   1  11
ATOM      8  C   UNL     1       6.786   5.053  15.416  0.00  0.00    +0.000 A 
ATOM      9  C   UNL     1       5.913   3.962  15.523  0.00  0.00    +0.000 A 
ATOM     10  C   UNL     1       5.093   3.806  16.641  0.00  0.00    +0.000 A 
ATOM     11  C   UNL     1       5.143   4.727  17.691  0.00  0.00    +0.000 A 
ATOM     12  C   UNL     1       6.089   5.756  17.624  0.00  0.00    +0.000 A 
ATOM     13  C   UNL     1       6.916   5.932  16.501  0.00  0.00    +0.000 A 
BRANCH   8  15
ATOM     14  C   UNL     1       7.045   4.585  13.111  0.00  0.00    +0.000 C 
ATOM     15  O   UNL     1       7.526   5.250  14.281  0.00  0.00    +0.000 OA
ENDBRANCH   8  15
BRANCH  13  16
ATOM     16  O   UNL     1       7.744   7.013  16.641  0.00  0.00    +0.000 OA
ATOM     17  C   UNL     1       7.745   7.722  17.870  0.00  0.00    +0.000 C 
ENDBRANCH  13  16
ENDBRANCH   1  11
BRANCH   3  18
ATOM     18  C   UNL     1       1.886   7.174  20.021  0.00  0.00    +0.000 A 
ATOM     19  C   UNL     1       1.022   7.547  21.062  0.00  0.00    +0.000 A 
ATOM     20  C   UNL     1       0.319   8.757  21.023  0.00  0.00    +0.000 A 
ATOM     21  C   UNL     1       0.513   9.615  19.932  0.00  0.00    +0.000 A 
ATOM     22  C   UNL     1       1.377   9.268  18.886  0.00  0.00    +0.000 A 
ATOM     23  C   UNL     1       2.063   8.056  18.943  0.00  0.00    +0.000 A 
BRANCH  20  24
ATOM     24  O   UNL     1      -0.454   9.009  22.124  0.00  0.00    +0.000 OA
ATOM     25  C   UNL     1       0.228   9.500  23.275  0.00  0.00    +0.000 C 
ENDBRANCH  20  24
BRANCH  21  26
ATOM     26  O   UNL     1      -0.087  10.847  19.888  0.00  0.00    +0.000 OA
ATOM     27  H   UNL     1      -1.033  10.677  20.012  0.00  0.00    +0.000 HD
ENDBRANCH  21  26
BRANCH  22  28
ATOM     28  O   UNL     1       1.500  10.190  17.874  0.00  0.00    +0.000 OA
ATOM     29  C   UNL     1       2.477  11.207  18.032  0.00  0.00    +0.000 C 
ENDBRANCH  22  28
ENDBRANCH   3  18
TORSDOF 7
ENDMDL
MODEL 3
REMARK VINA RESULT:      -7.9      1.157      7.684
REMARK  Name = 
REMARK  13 active torsions:
REMARK  status: ('A' for Active; 'I' for Inactive)
REMARK    1  A    between atoms: C_1  and  O_2
REMARK    2  A    between atoms: O_2  and  C_3
REMARK    3  A    between atoms: C_6  and  C_7
REMARK    4  A    between atoms: C_9  and  C_10
REMARK    5  A    between atoms: C_12  and  O_13
REMARK    6  A    between atoms: O_13  and  C_14
REMARK    7  A    between atoms: C_15  and  O_16
REMARK    8  A    between atoms: C_17  and  O_18
REMARK    9  A    between atoms: O_18  and  C_19
REMARK   10  A    between atoms: C_21  and  C_22
REMARK   11  A    between atoms: C_23  and  C_24
REMARK   12  A    between atoms: C_26  and  O_27
REMARK   13  A    between atoms: O_27  and  C_28
REMARK                            x       y       z     vdW  Elec       q    Type
REMARK                         _______ _______ _______ _____ _____    ______ ____
ROOT
ATOM      1  C   UNL     1       2.126   6.118  19.057  0.00  0.00    +0.000 C 
ATOM      2  O   UNL     1       2.868   6.104  17.829  0.00  0.00    +0.000 OA
ATOM      3  C   UNL     1       3.544   4.846  17.767  0.00  0.00    +0.000 C 
ATOM      4  C   UNL     1       3.879   4.454  19.215  0.00  0.00    +0.000 C 
ATOM      5  C   UNL     1       3.710   2.953  19.434  0.00  0.00    +0.000 C 
ATOM      6  C   UNL     1       3.007   5.383  20.076  0.00  0.00    +0.000 C 
ATOM      7  C   UNL     1       2.185   4.732  21.184  0.00  0.00    +0.000 C 
ENDROOT
BRANCH   1  11
ATOM      8  C   UNL     1       0.952  10.152  20.106  0.00  0.00    +0.000 A 
ATOM      9  C   UNL     1       1.334   9.842  18.793  0.00  0.00    +0.000 A 
ATOM     10  C   UNL     1       1.739   8.551  18.451  0.00  0.00    +0.000 A 
ATOM     11  C   UNL     1       1.794   7.545  19.419  0.00  0.00    +0.000 A 
ATOM     12  C   UNL     1       1.510   7.886  20.746  0.00  0.00    +0.000 A 
ATOM     13  C   UNL     1       1.092   9.179  21.106  0.00  0.00    +0.000 A 
BRANCH   8  15
ATOM     14  C   UNL     1      -0.881  11.647  20.044  0.00  0.00    +0.000 C 
ATOM     15  O   UNL     1       0.474  11.397  20.421  0.00  0.00    +0.000 OA
ENDBRANCH   8  15
BRANCH  13  16
ATOM     16  O   UNL     1       0.846   9.281  22.449  0.00  0.00    +0.000 OA
ATOM     17  C   UNL     1      -0.498   9.273  22.903  0.00  0.00    +0.000 C 
ENDBRANCH  13  16
ENDBRANCH   1  11
BRANCH   3  18
ATOM     18  C   UNL     1       4.747   4.949  16.855  0.00  0.00    +0.000 A 
ATOM     19  C   UNL     1       4.919   4.095  15.755  0.00  0.00    +0.000 A 
ATOM     20  C   UNL     1       6.052   4.184  14.937  0.00  0.00    +0.000 A 
ATOM     21  C   UNL     1       7.009   5.170  15.216  0.00  0.00    +0.000 A 
ATOM     22  C   UNL     1       6.853   6.041  16.302  0.00  0.00    +0.000 A 
ATOM     23  C   UNL     1       5.720   5.930  17.107  0.00  0.00    +0.000 A 
BRANCH  20  24
ATOM     24  O   UNL     1       6.068   3.317  13.878  0.00  0.00    +0.000 OA
ATOM     25  C   UNL     1       5.408   3.754  12.694  0.00  0.00    +0.000 C 
ENDBRANCH  20  24
BRANCH  21  26
ATOM     26  O   UNL     1       8.092   5.353  14.396  0.00  0.00    +0.000 OA
ATOM     27  H   UNL     1       7.964   6.224  13.990  0.00  0.00    +0.000 HD
ENDBRANCH  21  26
BRANCH  22  28
ATOM     28  O   UNL     1       7.846   6.975  16.474  0.00  0.00    +0.000 OA
ATOM     29  C   UNL     1       7.676   7.923  17.516  0.00  0.00    +0.000 C 
ENDBRANCH  22  28
ENDBRANCH   3  18
TORSDOF 7
ENDMDL
MODEL 4
REMARK VINA RESULT:      -7.8      1.195      7.759
REMARK  Name = 
REMARK  13 active torsions:
REMARK  status: ('A' for Active; 'I' for Inactive)
REMARK    1  A    between atoms: C_1  and  O_2
REMARK    2  A    between atoms: O_2  and  C_3
REMARK    3  A    between atoms: C_6  and  C_7
REMARK    4  A    between atoms: C_9  and  C_10
REMARK    5  A    between atoms: C_12  and  O_13
REMARK    6  A    between atoms: O_13  and  C_14
REMARK    7  A    between atoms: C_15  and  O_16
REMARK    8  A    between atoms: C_17  and  O_18
REMARK    9  A    between atoms: O_18  and  C_19
REMARK   10  A    between atoms: C_21  and  C_22
REMARK   11  A    between atoms: C_23  and  C_24
REMARK   12  A    between atoms: C_26  and  O_27
REMARK   13  A    between atoms: O_27  and  C_28
REMARK                            x       y       z     vdW  Elec       q    Type
REMARK                         _______ _______ _______ _____ _____    ______ ____
ROOT
ATOM      1  C   UNL     1       2.189   6.083  19.101  0.00  0.00    +0.000 C 
ATOM      2  O   UNL     1       2.930   6.128  17.873  0.00  0.00    +0.000 OA
ATOM      3  C   UNL     1       3.610   4.877  17.754  0.00  0.00    +0.000 C 
ATOM      4  C   UNL     1       3.949   4.420  19.182  0.00  0.00    +0.000 C 
ATOM      5  C   UNL     1       3.786   2.910  19.333  0.00  0.00    +0.000 C 
ATOM      6  C   UNL     1       3.074   5.306  20.085  0.00  0.00    +0.000 C 
ATOM      7  C   UNL     1       2.256   4.603  21.163  0.00  0.00    +0.000 C 
ENDROOT
BRANCH   1  11
ATOM      8  C   UNL     1       1.002  10.059  20.339  0.00  0.00    +0.000 A 
ATOM      9  C   UNL     1       1.341   9.803  19.004  0.00  0.00    +0.000 A 
ATOM     10  C   UNL     1       1.751   8.531  18.600  0.00  0.00    +0.000 A 
ATOM     11  C   UNL     1       1.852   7.491  19.527  0.00  0.00    +0.000 A 
ATOM     12  C   UNL     1       1.609   7.779  20.875  0.00  0.00    +0.000 A 
ATOM     13  C   UNL     1       1.188   9.052  21.297  0.00  0.00    +0.000 A 
BRANCH   8  15
ATOM     14  C   UNL     1       1.390  12.390  20.472  0.00  0.00    +0.000 C 
ATOM     15  O   UNL     1       0.519  11.284  20.716  0.00  0.00    +0.000 OA
ENDBRANCH   8  15
BRANCH  13  16
ATOM     16  O   UNL     1       0.988   9.100  22.650  0.00  0.00    +0.000 OA
ATOM     17  C   UNL     1      -0.273   9.524  23.143  0.00  0.00    +0.000 C 
ENDBRANCH  13  16
ENDBRANCH   1  11
BRANCH   3  18
ATOM     18  C   UNL     1       4.812   5.026  16.846  0.00  0.00    +0.000 A 
ATOM     19  C   UNL     1       5.796   6.001  17.071  0.00  0.00    +0.000 A 
ATOM     20  C   UNL     1       6.886   6.145  16.205  0.00  0.00    +0.000 A 
ATOM     21  C   UNL     1       7.001   5.271  15.115  0.00  0.00    +0.000 A 
ATOM     22  C   UNL     1       6.038   4.283  14.876  0.00  0.00    +0.000 A 
ATOM     23  C   UNL     1       4.956   4.162  15.748  0.00  0.00    +0.000 A 
BRANCH  20  24
ATOM     24  O   UNL     1       7.788   7.109  16.569  0.00  0.00    +0.000 OA
ATOM     25  C   UNL     1       7.734   7.542  17.924  0.00  0.00    +0.000 C 
ENDBRANCH  20  24
BRANCH  21  26
ATOM     26  O   UNL     1       8.094   5.316  14.288  0.00  0.00    +0.000 OA
ATOM     27  H   UNL     1       8.717   5.923  14.716  0.00  0.00    +0.000 HD
ENDBRANCH  21  26
BRANCH  22  28
ATOM     28  O   UNL     1       6.258   3.475  13.787  0.00  0.00    +0.000 OA
ATOM     29  C   UNL     1       5.398   3.638  12.670  0.00  0.00    +0.000 C 
ENDBRANCH  22  28
ENDBRANCH   3  18
TORSDOF 7
ENDMDL
MODEL 5
REMARK VINA RESULT:      -7.7      3.417      5.847
REMARK  Name = 
REMARK  13 active torsions:
REMARK  status: ('A' for Active; 'I' for Inactive)
REMARK    1  A    between atoms: C_1  and  O_2
REMARK    2  A    between atoms: O_2  and  C_3
REMARK    3  A    between atoms: C_6  and  C_7
REMARK    4  A    between atoms: C_9  and  C_10
REMARK    5  A    between atoms: C_12  and  O_13
REMARK    6  A    between atoms: O_13  and  C_14
REMARK    7  A    between atoms: C_15  and  O_16
REMARK    8  A    between atoms: C_17  and  O_18
REMARK    9  A    between atoms: O_18  and  C_19
REMARK   10  A    between atoms: C_21  and  C_22
REMARK   11  A    between atoms: C_23  and  C_24
REMARK   12  A    between atoms: C_26  and  O_27
REMARK   13  A    between atoms: O_27  and  C_28
REMARK                            x       y       z     vdW  Elec       q    Type
REMARK                         _______ _______ _______ _____ _____    ______ ____
ROOT
ATOM      1  C   UNL     1       1.465   9.151  19.765  0.00  0.00    +0.000 C 
ATOM      2  O   UNL     1       0.575   9.655  18.759  0.00  0.00    +0.000 OA
ATOM      3  C   UNL     1      -0.310  10.570  19.408  0.00  0.00    +0.000 C 
ATOM      4  C   UNL     1      -0.512  10.049  20.840  0.00  0.00    +0.000 C 
ATOM      5  C   UNL     1      -0.576  11.198  21.843  0.00  0.00    +0.000 C 
ATOM      6  C   UNL     1       0.615   9.019  21.036  0.00  0.00    +0.000 C 
ATOM      7  C   UNL     1       1.453   9.142  22.305  0.00  0.00    +0.000 C 
ENDROOT
BRANCH   1  11
ATOM      8  C   UNL     1       3.412   5.490  18.519  0.00  0.00    +0.000 A 
ATOM      9  C   UNL     1       3.431   6.621  17.692  0.00  0.00    +0.000 A 
ATOM     10  C   UNL     1       2.785   7.798  18.073  0.00  0.00    +0.000 A 
ATOM     11  C   UNL     1       2.083   7.864  19.279  0.00  0.00    +0.000 A 
ATOM     12  C   UNL     1       1.983   6.700  20.051  0.00  0.00    +0.000 A 
ATOM     13  C   UNL     1       2.635   5.509  19.687  0.00  0.00    +0.000 A 
BRANCH   8  15
ATOM     14  C   UNL     1       3.403   3.397  17.414  0.00  0.00    +0.000 C 
ATOM     15  O   UNL     1       4.118   4.365  18.184  0.00  0.00    +0.000 OA
ENDBRANCH   8  15
BRANCH  13  16
ATOM     16  O   UNL     1       2.420   4.510  20.597  0.00  0.00    +0.000 OA
ATOM     17  C   UNL     1       1.165   3.848  20.605  0.00  0.00    +0.000 C 
ENDBRANCH  13  16
ENDBRANCH   1  11
BRANCH   3  18
ATOM     18  C   UNL     1      -1.588  10.709  18.610  0.00  0.00    +0.000 A 
ATOM     19  C   UNL     1      -1.783  10.033  17.396  0.00  0.00    +0.000 A 
ATOM     20  C   UNL     1      -2.959  10.195  16.655  0.00  0.00    +0.000 A 
ATOM     21  C   UNL     1      -3.966  11.028  17.163  0.00  0.00    +0.000 A 
ATOM     22  C   UNL     1      -3.800  11.704  18.378  0.00  0.00    +0.000 A 
ATOM     23  C   UNL     1      -2.616  11.533  19.096  0.00  0.00    +0.000 A 
BRANCH  20  24
ATOM     24  O   UNL     1      -3.029   9.443  15.513  0.00  0.00    +0.000 OA
ATOM     25  C   UNL     1      -3.034  10.163  14.284  0.00  0.00    +0.000 C 
ENDBRANCH  20  24
BRANCH  21  26
ATOM     26  O   UNL     1      -5.170  11.152  16.518  0.00  0.00    +0.000 OA
ATOM     27  H   UNL     1      -5.464  10.245  16.343  0.00  0.00    +0.000 HD
ENDBRANCH  21  26
BRANCH  22  28
ATOM     28  O   UNL     1      -4.855  12.483  18.785  0.00  0.00    +0.000 OA
ATOM     29  C   UNL     1      -5.379  12.247  20.083  0.00  0.00    +0.000 C 
ENDBRANCH  22  28
ENDBRANCH   3  18
TORSDOF 7
ENDMDL
MODEL 6
REMARK VINA RESULT:      -7.6      3.382      6.221
REMARK  Name = 
REMARK  13 active torsions:
REMARK  status: ('A' for Active; 'I' for Inactive)
REMARK    1  A    between atoms: C_1  and  O_2
REMARK    2  A    between atoms: O_2  and  C_3
REMARK    3  A    between atoms: C_6  and  C_7
REMARK    4  A    between atoms: C_9  and  C_10
REMARK    5  A    between atoms: C_12  and  O_13
REMARK    6  A    between atoms: O_13  and  C_14
REMARK    7  A    between atoms: C_15  and  O_16
REMARK    8  A    between atoms: C_17  and  O_18
REMARK    9  A    between atoms: O_18  and  C_19
REMARK   10  A    between atoms: C_21  and  C_22
REMARK   11  A    between atoms: C_23  and  C_24
REMARK   12  A    between atoms: C_26  and  O_27
REMARK   13  A    between atoms: O_27  and  C_28
REMARK                            x       y       z     vdW  Elec       q    Type
REMARK                         _______ _______ _______ _____ _____    ______ ____
ROOT
ATOM      1  C   UNL     1       1.410   9.167  19.879  0.00  0.00    +0.000 C 
ATOM      2  O   UNL     1       0.509   9.657  18.876  0.00  0.00    +0.000 OA
ATOM      3  C   UNL     1      -0.332  10.623  19.512  0.00  0.00    +0.000 C 
ATOM      4  C   UNL     1      -0.511  10.163  20.967  0.00  0.00    +0.000 C 
ATOM      5  C   UNL     1      -0.516  11.351  21.926  0.00  0.00    +0.000 C 
ATOM      6  C   UNL     1       0.590   9.109  21.175  0.00  0.00    +0.000 C 
ATOM      7  C   UNL     1       1.465   9.255  22.416  0.00  0.00    +0.000 C 
ENDROOT
BRANCH   1  11
ATOM      8  C   UNL     1       3.219   5.405  18.727  0.00  0.00    +0.000 A 
ATOM      9  C   UNL     1       3.240   6.500  17.853  0.00  0.00    +0.000 A 
ATOM     10  C   UNL     1       2.637   7.708  18.203  0.00  0.00    +0.000 A 
ATOM     11  C   UNL     1       1.978   7.843  19.429  0.00  0.00    +0.000 A 
ATOM     12  C   UNL     1       1.874   6.716  20.252  0.00  0.00    +0.000 A 
ATOM     13  C   UNL     1       2.483   5.494  19.918  0.00  0.00    +0.000 A 
BRANCH   8  15
ATOM     14  C   UNL     1       5.267   4.220  18.774  0.00  0.00    +0.000 C 
ATOM     15  O   UNL     1       3.884   4.248  18.417  0.00  0.00    +0.000 OA
ENDBRANCH   8  15
BRANCH  13  16
ATOM     16  O   UNL     1       2.272   4.540  20.876  0.00  0.00    +0.000 OA
ATOM     17  C   UNL     1       1.207   3.619  20.705  0.00  0.00    +0.000 C 
ENDBRANCH  13  16
ENDBRANCH   1  11
BRANCH   3  18
ATOM     18  C   UNL     1      -1.626  10.769  18.741  0.00  0.00    +0.000 A 
ATOM     19  C   UNL     1      -2.662  11.608  19.182  0.00  0.00    +0.000 A 
ATOM     20  C   UNL     1      -3.864  11.710  18.473  0.00  0.00    +0.000 A 
ATOM     21  C   UNL     1      -4.011  10.979  17.286  0.00  0.00    +0.000 A 
ATOM     22  C   UNL     1      -2.988  10.144  16.821  0.00  0.00    +0.000 A 
ATOM     23  C   UNL     1      -1.801  10.052  17.546  0.00  0.00    +0.000 A 
BRANCH  20  24
ATOM     24  O   UNL     1      -4.768  12.595  18.996  0.00  0.00    +0.000 OA
ATOM     25  C   UNL     1      -4.708  12.800  20.405  0.00  0.00    +0.000 C 
ENDBRANCH  20  24
BRANCH  21  26
ATOM     26  O   UNL     1      -5.136  11.110  16.512  0.00  0.00    +0.000 OA
ATOM     27  H   UNL     1      -4.963  10.586  15.715  0.00  0.00    +0.000 HD
ENDBRANCH  21  26
BRANCH  22  28
ATOM     28  O   UNL     1      -3.236   9.485  15.641  0.00  0.00    +0.000 OA
ATOM     29  C   UNL     1      -2.933  10.169  14.435  0.00  0.00    +0.000 C 
ENDBRANCH  22  28
ENDBRANCH   3  18
TORSDOF 7
ENDMDL
MODEL 7
REMARK VINA RESULT:      -7.5      1.105      7.583
REMARK  Name = 
REMARK  13 active torsions:
REMARK  status: ('A' for Active; 'I' for Inactive)
REMARK    1  A    between atoms: C_1  and  O_2
REMARK    2  A    between atoms: O_2  and  C_3
REMARK    3  A    between atoms: C_6  and  C_7
REMARK    4  A    between atoms: C_9  and  C_10
REMARK    5  A    between atoms: C_12  and  O_13
REMARK    6  A    between atoms: O_13  and  C_14
REMARK    7  A    between atoms: C_15  and  O_16
REMARK    8  A    between atoms: C_17  and  O_18
REMARK    9  A    between atoms: O_18  and  C_19
REMARK   10  A    between atoms: C_21  and  C_22
REMARK   11  A    between atoms: C_23  and  C_24
REMARK   12  A    between atoms: C_26  and  O_27
REMARK   13  A    between atoms: O_27  and  C_28
REMARK                            x       y       z     vdW  Elec       q    Type
REMARK                         _______ _______ _______ _____ _____    ______ ____
ROOT
ATOM      1  C   UNL     1       2.213   5.558  19.123  0.00  0.00    +0.000 C 
ATOM      2  O   UNL     1       2.930   5.685  17.886  0.00  0.00    +0.000 OA
ATOM      3  C   UNL     1       3.711   4.498  17.736  0.00  0.00    +0.000 C 
ATOM      4  C   UNL     1       4.108   4.049  19.151  0.00  0.00    +0.000 C 
ATOM      5  C   UNL     1       4.074   2.528  19.277  0.00  0.00    +0.000 C 
ATOM      6  C   UNL     1       3.175   4.842  20.082  0.00  0.00    +0.000 C 
ATOM      7  C   UNL     1       2.434   4.054  21.157  0.00  0.00    +0.000 C 
ENDROOT
BRANCH   1  11
ATOM      8  C   UNL     1       1.148   9.545  20.432  0.00  0.00    +0.000 A 
ATOM      9  C   UNL     1       1.084   8.465  21.323  0.00  0.00    +0.000 A 
ATOM     10  C   UNL     1       1.400   7.171  20.904  0.00  0.00    +0.000 A 
ATOM     11  C   UNL     1       1.765   6.925  19.578  0.00  0.00    +0.000 A 
ATOM     12  C   UNL     1       1.728   7.991  18.672  0.00  0.00    +0.000 A 
ATOM     13  C   UNL     1       1.421   9.301  19.079  0.00  0.00    +0.000 A 
BRANCH   8  15
ATOM     14  C   UNL     1      -0.239  11.000  21.683  0.00  0.00    +0.000 C 
ATOM     15  O   UNL     1       0.920  10.825  20.867  0.00  0.00    +0.000 OA
ENDBRANCH   8  15
BRANCH  13  16
ATOM     16  O   UNL     1       1.467  10.185  18.035  0.00  0.00    +0.000 OA
ATOM     17  C   UNL     1       2.305  11.325  18.137  0.00  0.00    +0.000 C 
ENDBRANCH  13  16
ENDBRANCH   1  11
BRANCH   3  18
ATOM     18  C   UNL     1       4.883   4.763  16.815  0.00  0.00    +0.000 A 
ATOM     19  C   UNL     1       5.828   5.765  17.086  0.00  0.00    +0.000 A 
ATOM     20  C   UNL     1       6.890   6.016  16.210  0.00  0.00    +0.000 A 
ATOM     21  C   UNL     1       7.017   5.225  15.060  0.00  0.00    +0.000 A 
ATOM     22  C   UNL     1       6.093   4.213  14.774  0.00  0.00    +0.000 A 
ATOM     23  C   UNL     1       5.039   3.984  15.658  0.00  0.00    +0.000 A 
BRANCH  20  24
ATOM     24  O   UNL     1       7.757   6.993  16.620  0.00  0.00    +0.000 OA
ATOM     25  C   UNL     1       7.754   7.294  18.013  0.00  0.00    +0.000 C 
ENDBRANCH  20  24
BRANCH  21  26
ATOM     26  O   UNL     1       8.087   5.376  14.215  0.00  0.00    +0.000 OA
ATOM     27  H   UNL     1       7.898   4.805  13.455  0.00  0.00    +0.000 HD
ENDBRANCH  21  26
BRANCH  22  28
ATOM     28  O   UNL     1       6.322   3.492  13.627  0.00  0.00    +0.000 OA
ATOM     29  C   UNL     1       5.346   3.573  12.600  0.00  0.00    +0.000 C 
ENDBRANCH  22  28
ENDBRANCH   3  18
TORSDOF 7
ENDMDL
MODEL 8
REMARK VINA RESULT:      -7.5      1.283      7.504
REMARK  Name = 
REMARK  13 active torsions:
REMARK  status: ('A' for Active; 'I' for Inactive)
REMARK    1  A    between atoms: C_1  and  O_2
REMARK    2  A    between atoms: O_2  and  C_3
REMARK    3  A    between atoms: C_6  and  C_7
REMARK    4  A    between atoms: C_9  and  C_10
REMARK    5  A    between atoms: C_12  and  O_13
REMARK    6  A    between atoms: O_13  and  C_14
REMARK    7  A    between atoms: C_15  and  O_16
REMARK    8  A    between atoms: C_17  and  O_18
REMARK    9  A    between atoms: O_18  and  C_19
REMARK   10  A    between atoms: C_21  and  C_22
REMARK   11  A    between atoms: C_23  and  C_24
REMARK   12  A    between atoms: C_26  and  O_27
REMARK   13  A    between atoms: O_27  and  C_28
REMARK                            x       y       z     vdW  Elec       q    Type
REMARK                         _______ _______ _______ _____ _____    ______ ____
ROOT
ATOM      1  C   UNL     1       2.232   4.757  18.611  0.00  0.00    +0.000 C 
ATOM      2  O   UNL     1       2.987   5.119  17.446  0.00  0.00    +0.000 OA
ATOM      3  C   UNL     1       3.690   3.948  17.026  0.00  0.00    +0.000 C 
ATOM      4  C   UNL     1       4.018   3.150  18.299  0.00  0.00    +0.000 C 
ATOM      5  C   UNL     1       3.878   1.649  18.062  0.00  0.00    +0.000 C 
ATOM      6  C   UNL     1       3.117   3.768  19.382  0.00  0.00    +0.000 C 
ATOM      7  C   UNL     1       2.297   2.805  20.234  0.00  0.00    +0.000 C 
ENDROOT
BRANCH   1  11
ATOM      8  C   UNL     1       1.408   8.391  20.816  0.00  0.00    +0.000 A 
ATOM      9  C   UNL     1       1.250   7.139  21.426  0.00  0.00    +0.000 A 
ATOM     10  C   UNL     1       1.488   5.961  20.716  0.00  0.00    +0.000 A 
ATOM     11  C   UNL     1       1.867   6.007  19.372  0.00  0.00    +0.000 A 
ATOM     12  C   UNL     1       1.923   7.256  18.743  0.00  0.00    +0.000 A 
ATOM     13  C   UNL     1       1.695   8.453  19.445  0.00  0.00    +0.000 A 
BRANCH   8  15
ATOM     14  C   UNL     1      -0.031   9.739  22.126  0.00  0.00    +0.000 C 
ATOM     15  O   UNL     1       1.257   9.546  21.538  0.00  0.00    +0.000 OA
ENDBRANCH   8  15
BRANCH  13  16
ATOM     16  O   UNL     1       1.825   9.551  18.638  0.00  0.00    +0.000 OA
ATOM     17  C   UNL     1       0.659  10.261  18.253  0.00  0.00    +0.000 C 
ENDBRANCH  13  16
ENDBRANCH   1  11
BRANCH   3  18
ATOM     18  C   UNL     1       4.901   4.336  16.205  0.00  0.00    +0.000 A 
ATOM     19  C   UNL     1       5.170   3.752  14.958  0.00  0.00    +0.000 A 
ATOM     20  C   UNL     1       6.310   4.101  14.224  0.00  0.00    +0.000 A 
ATOM     21  C   UNL     1       7.173   5.076  14.743  0.00  0.00    +0.000 A 
ATOM     22  C   UNL     1       6.919   5.681  15.980  0.00  0.00    +0.000 A 
ATOM     23  C   UNL     1       5.781   5.313  16.697  0.00  0.00    +0.000 A 
BRANCH  20  24
ATOM     24  O   UNL     1       6.424   3.482  13.008  0.00  0.00    +0.000 OA
ATOM     25  C   UNL     1       5.227   3.365  12.245  0.00  0.00    +0.000 C 
ENDBRANCH  20  24
BRANCH  21  26
ATOM     26  O   UNL     1       8.256   5.513  14.024  0.00  0.00    +0.000 OA
ATOM     27  H   UNL     1       9.020   5.386  14.606  0.00  0.00    +0.000 HD
ENDBRANCH  21  26
BRANCH  22  28
ATOM     28  O   UNL     1       7.825   6.631  16.385  0.00  0.00    +0.000 OA
ATOM     29  C   UNL     1       7.453   7.468  17.469  0.00  0.00    +0.000 C 
ENDBRANCH  22  28
ENDBRANCH   3  18
TORSDOF 7
ENDMDL
MODEL 9
REMARK VINA RESULT:      -7.5      1.093      7.433
REMARK  Name = 
REMARK  13 active torsions:
REMARK  status: ('A' for Active; 'I' for Inactive)
REMARK    1  A    between atoms: C_1  and  O_2
REMARK    2  A    between atoms: O_2  and  C_3
REMARK    3  A    between atoms: C_6  and  C_7
REMARK    4  A    between atoms: C_9  and  C_10
REMARK    5  A    between atoms: C_12  and  O_13
REMARK    6  A    between atoms: O_13  and  C_14
REMARK    7  A    between atoms: C_15  and  O_16
REMARK    8  A    between atoms: C_17  and  O_18
REMARK    9  A    between atoms: O_18  and  C_19
REMARK   10  A    between atoms: C_21  and  C_22
REMARK   11  A    between atoms: C_23  and  C_24
REMARK   12  A    between atoms: C_26  and  O_27
REMARK   13  A    between atoms: O_27  and  C_28
REMARK                            x       y       z     vdW  Elec       q    Type
REMARK                         _______ _______ _______ _____ _____    ______ ____
ROOT
ATOM      1  C   UNL     1       2.178   5.609  19.225  0.00  0.00    +0.000 C 
ATOM      2  O   UNL     1       2.880   5.700  17.976  0.00  0.00    +0.000 OA
ATOM      3  C   UNL     1       3.661   4.510  17.852  0.00  0.00    +0.000 C 
ATOM      4  C   UNL     1       4.074   4.101  19.275  0.00  0.00    +0.000 C 
ATOM      5  C   UNL     1       4.043   2.585  19.445  0.00  0.00    +0.000 C 
ATOM      6  C   UNL     1       3.151   4.921  20.193  0.00  0.00    +0.000 C 
ATOM      7  C   UNL     1       2.424   4.164  21.299  0.00  0.00    +0.000 C 
ENDROOT
BRANCH   1  11
ATOM      8  C   UNL     1       1.126   9.629  20.441  0.00  0.00    +0.000 A 
ATOM      9  C   UNL     1       1.020   8.563  21.345  0.00  0.00    +0.000 A 
ATOM     10  C   UNL     1       1.331   7.259  20.955  0.00  0.00    +0.000 A 
ATOM     11  C   UNL     1       1.735   6.988  19.645  0.00  0.00    +0.000 A 
ATOM     12  C   UNL     1       1.740   8.041  18.723  0.00  0.00    +0.000 A 
ATOM     13  C   UNL     1       1.438   9.361  19.101  0.00  0.00    +0.000 A 
BRANCH   8  15
ATOM     14  C   UNL     1      -0.469  11.278  21.022  0.00  0.00    +0.000 C 
ATOM     15  O   UNL     1       0.902  10.918  20.849  0.00  0.00    +0.000 OA
ENDBRANCH   8  15
BRANCH  13  16
ATOM     16  O   UNL     1       1.529  10.227  18.046  0.00  0.00    +0.000 OA
ATOM     17  C   UNL     1       2.309  11.404  18.189  0.00  0.00    +0.000 C 
ENDBRANCH  13  16
ENDBRANCH   1  11
BRANCH   3  18
ATOM     18  C   UNL     1       4.821   4.748  16.910  0.00  0.00    +0.000 A 
ATOM     19  C   UNL     1       5.031   3.952  15.774  0.00  0.00    +0.000 A 
ATOM     20  C   UNL     1       6.126   4.167  14.928  0.00  0.00    +0.000 A 
ATOM     21  C   UNL     1       7.004   5.221  15.218  0.00  0.00    +0.000 A 
ATOM     22  C   UNL     1       6.809   6.035  16.340  0.00  0.00    +0.000 A 
ATOM     23  C   UNL     1       5.715   5.799  17.172  0.00  0.00    +0.000 A 
BRANCH  20  24
ATOM     24  O   UNL     1       6.182   3.343  13.837  0.00  0.00    +0.000 OA
ATOM     25  C   UNL     1       5.376   3.715  12.723  0.00  0.00    +0.000 C 
ENDBRANCH  20  24
BRANCH  21  26
ATOM     26  O   UNL     1       8.042   5.525  14.375  0.00  0.00    +0.000 OA
ATOM     27  H   UNL     1       8.801   5.695  14.952  0.00  0.00    +0.000 HD
ENDBRANCH  21  26
BRANCH  22  28
ATOM     28  O   UNL     1       7.724   7.044  16.520  0.00  0.00    +0.000 OA
ATOM     29  C   UNL     1       7.731   7.703  17.777  0.00  0.00    +0.000 C 
ENDBRANCH  22  28
ENDBRANCH   3  18
TORSDOF 7
ENDMDL
