MODEL 1
REMARK VINA RESULT:      -7.4      0.000      0.000
REMARK  Name = 
REMARK  7 active torsions:
REMARK  status: ('A' for Active; 'I' for Inactive)
REMARK    1  A    between atoms: C_1  and  O_2
REMARK    2  A    between atoms: O_2  and  C_3
REMARK    3  A    between atoms: C_8  and  C_9
REMARK    4  A    between atoms: C_9  and  N_10
REMARK    5  A    between atoms: C_14  and  C_16
REMARK    6  A    between atoms: N_20  and  S_21
REMARK    7  A    between atoms: S_21  and  C_22
REMARK                            x       y       z     vdW  Elec       q    Type
REMARK                         _______ _______ _______ _____ _____    ______ ____
ROOT
ATOM      1  N   UNL     1       2.532   6.114  19.015  0.00  0.00    +0.000 NA
ATOM      2  C   UNL     1       1.834   6.600  20.227  0.00  0.00    +0.000 C 
ATOM      3  C   UNL     1       1.786   8.126  20.447  0.00  0.00    +0.000 C 
ATOM      4  N   UNL     1       1.383   8.926  19.285  0.00  0.00    +0.000 N 
ATOM      5  C   UNL     1       1.110  10.275  19.573  0.00  0.00    +0.000 C 
ATOM      6  O   UNL     1       1.239  10.684  20.734  0.00  0.00    +0.000 OA
ATOM      7  C   UNL     1       1.957   8.481  18.013  0.00  0.00    +0.000 C 
ATOM      8  C   UNL     1       2.149   6.940  17.857  0.00  0.00    +0.000 C 
ENDROOT
BRANCH   5   9
ATOM      9  C   UNL     1       0.753  11.299  18.453  0.00  0.00    +0.000 C 
ATOM     10  C   UNL     1      -0.622  12.000  18.392  0.00  0.00    +0.000 C 
ATOM     11  C   UNL     1      -1.775  11.523  19.270  0.00  0.00    +0.000 C 
ATOM     12  C   UNL     1      -2.378  12.657  20.113  0.00  0.00    +0.000 C 
ATOM     13  N   UNL     1      -1.434  13.035  21.197  0.00  0.00    +0.000 NA
ATOM     14  C   UNL     1      -1.029  14.455  21.227  0.00  0.00    +0.000 C 
ATOM     15  C   UNL     1       0.363  14.704  21.797  0.00  0.00    +0.000 C 
ATOM     16  C   UNL     1       1.316  15.248  20.757  0.00  0.00    +0.000 C 
ATOM     17  O   UNL     1       1.952  16.286  20.938  0.00  0.00    +0.000 OA
ATOM     18  N   UNL     1       1.434  14.573  19.563  0.00  0.00    +0.000 N 
ATOM     19  C   UNL     1       2.147  13.297  19.556  0.00  0.00    +0.000 C 
ATOM     20  C   UNL     1       1.865  12.406  18.325  0.00  0.00    +0.000 C 
ATOM     21  H   UNL     1       1.886  15.208  18.917  0.00  0.00    +0.000 HD
BRANCH  13  22
ATOM     22  S   UNL     1      -1.403  12.041  22.574  0.00  0.00    +0.000 S 
ATOM     23  C   UNL     1      -3.050  12.223  23.230  0.00  0.00    +0.000 C 
ATOM     24  O   UNL     1      -1.244  10.675  22.159  0.00  0.00    +0.000 OA
ATOM     25  O   UNL     1      -0.501  12.637  23.531  0.00  0.00    +0.000 OA
ENDBRANCH  13  22
ENDBRANCH   5   9
BRANCH   1  26
ATOM     26  C   UNL     1       3.972   5.974  19.281  0.00  0.00    +0.000 C 
BRANCH  26  32
ATOM     27  C   UNL     1       6.185   5.023  18.534  0.00  0.00    +0.000 A 
ATOM     28  C   UNL     1       7.056   4.487  17.580  0.00  0.00    +0.000 A 
ATOM     29  C   UNL     1       6.669   4.414  16.243  0.00  0.00    +0.000 A 
ATOM     30  C   UNL     1       5.402   4.855  15.868  0.00  0.00    +0.000 A 
ATOM     31  C   UNL     1       4.510   5.360  16.829  0.00  0.00    +0.000 A 
ATOM     32  C   UNL     1       4.899   5.486  18.177  0.00  0.00    +0.000 A 
BRANCH  27  34
ATOM     33  C   UNL     1       8.037   5.751  19.774  0.00  0.00    +0.000 C 
ATOM     34  O   UNL     1       6.687   5.287  19.782  0.00  0.00    +0.000 OA
ENDBRANCH  27  34
ENDBRANCH  26  32
ENDBRANCH   1  26
TORSDOF 5
ENDMDL
MODEL 2
REMARK VINA RESULT:      -7.3      1.086      1.479
REMARK  Name = 
REMARK  7 active torsions:
REMARK  status: ('A' for Active; 'I' for Inactive)
REMARK    1  A    between atoms: C_1  and  O_2
REMARK    2  A    between atoms: O_2  and  C_3
REMARK    3  A    between atoms: C_8  and  C_9
REMARK    4  A    between atoms: C_9  and  N_10
REMARK    5  A    between atoms: C_14  and  C_16
REMARK    6  A    between atoms: N_20  and  S_21
REMARK    7  A    between atoms: S_21  and  C_22
REMARK                            x       y       z     vdW  Elec       q    Type
REMARK                         _______ _______ _______ _____ _____    ______ ____
ROOT
ATOM      1  N   UNL     1       2.340   6.037  19.267  0.00  0.00    +0.000 NA
ATOM      2  C   UNL     1       1.621   6.581  20.440  0.00  0.00    +0.000 C 
ATOM      3  C   UNL     1       1.652   8.111  20.639  0.00  0.00    +0.000 C 
ATOM      4  N   UNL     1       1.346   8.914  19.451  0.00  0.00    +0.000 N 
ATOM      5  C   UNL     1       1.140  10.281  19.709  0.00  0.00    +0.000 C 
ATOM      6  O   UNL     1       1.242  10.700  20.869  0.00  0.00    +0.000 OA
ATOM      7  C   UNL     1       1.947   8.417  18.210  0.00  0.00    +0.000 C 
ATOM      8  C   UNL     1       2.055   6.865  18.082  0.00  0.00    +0.000 C 
ENDROOT
BRANCH   5   9
ATOM      9  C   UNL     1       0.892  11.306  18.562  0.00  0.00    +0.000 C 
ATOM     10  C   UNL     1      -0.444  12.070  18.419  0.00  0.00    +0.000 C 
ATOM     11  C   UNL     1      -1.663  11.658  19.239  0.00  0.00    +0.000 C 
ATOM     12  C   UNL     1      -2.257  12.829  20.038  0.00  0.00    +0.000 C 
ATOM     13  N   UNL     1      -1.355  13.175  21.167  0.00  0.00    +0.000 NA
ATOM     14  C   UNL     1      -0.885  14.576  21.205  0.00  0.00    +0.000 C 
ATOM     15  C   UNL     1       0.485  14.767  21.845  0.00  0.00    +0.000 C 
ATOM     16  C   UNL     1       1.516  15.254  20.853  0.00  0.00    +0.000 C 
ATOM     17  O   UNL     1       2.189  16.263  21.058  0.00  0.00    +0.000 OA
ATOM     18  N   UNL     1       1.665  14.560  19.674  0.00  0.00    +0.000 N 
ATOM     19  C   UNL     1       2.316  13.251  19.718  0.00  0.00    +0.000 C 
ATOM     20  C   UNL     1       2.059  12.360  18.483  0.00  0.00    +0.000 C 
ATOM     21  H   UNL     1       2.181  15.165  19.047  0.00  0.00    +0.000 HD
BRANCH  13  22
ATOM     22  S   UNL     1      -1.444  12.199  22.553  0.00  0.00    +0.000 S 
ATOM     23  C   UNL     1      -3.135  12.407  23.076  0.00  0.00    +0.000 C 
ATOM     24  O   UNL     1      -1.269  10.825  22.167  0.00  0.00    +0.000 OA
ATOM     25  O   UNL     1      -0.613  12.796  23.571  0.00  0.00    +0.000 OA
ENDBRANCH  13  22
ENDBRANCH   5   9
BRANCH   1  26
ATOM     26  C   UNL     1       3.756   5.818  19.597  0.00  0.00    +0.000 C 
BRANCH  26  32
ATOM     27  C   UNL     1       4.330   4.246  17.710  0.00  0.00    +0.000 A 
ATOM     28  C   UNL     1       5.130   3.807  16.650  0.00  0.00    +0.000 A 
ATOM     29  C   UNL     1       6.342   4.440  16.380  0.00  0.00    +0.000 A 
ATOM     30  C   UNL     1       6.741   5.525  17.156  0.00  0.00    +0.000 A 
ATOM     31  C   UNL     1       5.924   5.993  18.200  0.00  0.00    +0.000 A 
ATOM     32  C   UNL     1       4.717   5.339  18.519  0.00  0.00    +0.000 A 
BRANCH  27  34
ATOM     33  C   UNL     1       3.627   2.104  18.354  0.00  0.00    +0.000 C 
ATOM     34  O   UNL     1       3.271   3.460  18.082  0.00  0.00    +0.000 OA
ENDBRANCH  27  34
ENDBRANCH  26  32
ENDBRANCH   1  26
TORSDOF 5
ENDMDL
MODEL 3
REMARK VINA RESULT:      -7.2      1.529      1.622
REMARK  Name = 
REMARK  7 active torsions:
REMARK  status: ('A' for Active; 'I' for Inactive)
REMARK    1  A    between atoms: C_1  and  O_2
REMARK    2  A    between atoms: O_2  and  C_3
REMARK    3  A    between atoms: C_8  and  C_9
REMARK    4  A    between atoms: C_9  and  N_10
REMARK    5  A    between atoms: C_14  and  C_16
REMARK    6  A    between atoms: N_20  and  S_21
REMARK    7  A    between atoms: S_21  and  C_22
REMARK                            x       y       z     vdW  Elec       q    Type
REMARK                         _______ _______ _______ _____ _____    ______ ____
ROOT
ATOM      1  N   UNL     1       2.011   7.086  19.028  0.00  0.00    +0.000 NA
ATOM      2  C   UNL     1       1.523   7.620  20.319  0.00  0.00    +0.000 C 
ATOM      3  C   UNL     1       1.657   9.140  20.549  0.00  0.00    +0.000 C 
ATOM      4  N   UNL     1       1.194   9.994  19.450  0.00  0.00    +0.000 N 
ATOM      5  C   UNL     1       1.096  11.358  19.774  0.00  0.00    +0.000 C 
ATOM      6  O   UNL     1       1.409  11.735  20.911  0.00  0.00    +0.000 OA
ATOM      7  C   UNL     1       1.556   9.514  18.114  0.00  0.00    +0.000 C 
ATOM      8  C   UNL     1       1.572   7.964  17.930  0.00  0.00    +0.000 C 
ENDROOT
BRANCH   5   9
ATOM      9  C   UNL     1       0.707  12.430  18.712  0.00  0.00    +0.000 C 
ATOM     10  C   UNL     1      -0.653  13.162  18.745  0.00  0.00    +0.000 C 
ATOM     11  C   UNL     1      -1.771  12.678  19.664  0.00  0.00    +0.000 C 
ATOM     12  C   UNL     1      -2.305  13.792  20.577  0.00  0.00    +0.000 C 
ATOM     13  N   UNL     1      -1.299  14.109  21.624  0.00  0.00    +0.000 NA
ATOM     14  C   UNL     1      -0.860  15.519  21.684  0.00  0.00    +0.000 C 
ATOM     15  C   UNL     1       0.564  15.717  22.190  0.00  0.00    +0.000 C 
ATOM     16  C   UNL     1       1.475  16.279  21.124  0.00  0.00    +0.000 C 
ATOM     17  O   UNL     1       2.143  17.296  21.309  0.00  0.00    +0.000 OA
ATOM     18  N   UNL     1       1.517  15.647  19.901  0.00  0.00    +0.000 N 
ATOM     19  C   UNL     1       2.199  14.357  19.813  0.00  0.00    +0.000 C 
ATOM     20  C   UNL     1       1.835  13.518  18.567  0.00  0.00    +0.000 C 
ATOM     21  H   UNL     1       1.951  16.296  19.257  0.00  0.00    +0.000 HD
BRANCH  13  22
ATOM     22  S   UNL     1      -1.222  13.065  22.961  0.00  0.00    +0.000 S 
ATOM     23  C   UNL     1      -2.863  12.372  23.017  0.00  0.00    +0.000 C 
ATOM     24  O   UNL     1      -0.304  11.999  22.667  0.00  0.00    +0.000 OA
ATOM     25  O   UNL     1      -1.067  13.874  24.147  0.00  0.00    +0.000 OA
ENDBRANCH  13  22
ENDBRANCH   5   9
BRANCH   1  26
ATOM     26  C   UNL     1       3.452   6.799  19.111  0.00  0.00    +0.000 C 
BRANCH  26  32
ATOM     27  C   UNL     1       3.986   4.633  17.935  0.00  0.00    +0.000 A 
ATOM     28  C   UNL     1       4.520   3.882  16.883  0.00  0.00    +0.000 A 
ATOM     29  C   UNL     1       5.227   4.513  15.861  0.00  0.00    +0.000 A 
ATOM     30  C   UNL     1       5.378   5.897  15.882  0.00  0.00    +0.000 A 
ATOM     31  C   UNL     1       4.813   6.660  16.918  0.00  0.00    +0.000 A 
ATOM     32  C   UNL     1       4.135   6.037  17.984  0.00  0.00    +0.000 A 
BRANCH  27  34
ATOM     33  C   UNL     1       4.300   2.833  19.405  0.00  0.00    +0.000 C 
ATOM     34  O   UNL     1       3.504   3.956  19.025  0.00  0.00    +0.000 OA
ENDBRANCH  27  34
ENDBRANCH  26  32
ENDBRANCH   1  26
TORSDOF 5
ENDMDL
MODEL 4
REMARK VINA RESULT:      -7.0      2.758      4.292
REMARK  Name = 
REMARK  7 active torsions:
REMARK  status: ('A' for Active; 'I' for Inactive)
REMARK    1  A    between atoms: C_1  and  O_2
REMARK    2  A    between atoms: O_2  and  C_3
REMARK    3  A    between atoms: C_8  and  C_9
REMARK    4  A    between atoms: C_9  and  N_10
REMARK    5  A    between atoms: C_14  and  C_16
REMARK    6  A    between atoms: N_20  and  S_21
REMARK    7  A    between atoms: S_21  and  C_22
REMARK                            x       y       z     vdW  Elec       q    Type
REMARK                         _______ _______ _______ _____ _____    ______ ____
ROOT
ATOM      1  N   UNL     1       0.418   9.075  19.792  0.00  0.00    +0.000 NA
ATOM      2  C   UNL     1      -0.504   9.154  20.947  0.00  0.00    +0.000 C 
ATOM      3  C   UNL     1      -0.394  10.399  21.852  0.00  0.00    +0.000 C 
ATOM      4  N   UNL     1      -0.353  11.690  21.157  0.00  0.00    +0.000 N 
ATOM      5  C   UNL     1      -0.501  12.808  21.997  0.00  0.00    +0.000 C 
ATOM      6  O   UNL     1      -0.632  12.637  23.216  0.00  0.00    +0.000 OA
ATOM      7  C   UNL     1       0.472  11.703  19.947  0.00  0.00    +0.000 C 
ATOM      8  C   UNL     1       0.480  10.382  19.116  0.00  0.00    +0.000 C 
ENDROOT
BRANCH   5   9
ATOM      9  C   UNL     1      -0.396  14.265  21.453  0.00  0.00    +0.000 C 
ATOM     10  C   UNL     1      -1.588  14.974  20.774  0.00  0.00    +0.000 C 
ATOM     11  C   UNL     1      -2.833  14.188  20.376  0.00  0.00    +0.000 C 
ATOM     12  C   UNL     1      -4.121  14.794  20.955  0.00  0.00    +0.000 C 
ATOM     13  N   UNL     1      -4.179  14.546  22.419  0.00  0.00    +0.000 NA
ATOM     14  C   UNL     1      -4.312  15.748  23.267  0.00  0.00    +0.000 C 
ATOM     15  C   UNL     1      -3.690  15.618  24.653  0.00  0.00    +0.000 C 
ATOM     16  C   UNL     1      -2.517  16.552  24.842  0.00  0.00    +0.000 C 
ATOM     17  O   UNL     1      -2.457  17.336  25.789  0.00  0.00    +0.000 OA
ATOM     18  N   UNL     1      -1.515  16.542  23.898  0.00  0.00    +0.000 N 
ATOM     19  C   UNL     1      -0.606  15.397  23.866  0.00  0.00    +0.000 C 
ATOM     20  C   UNL     1       0.183  15.237  22.547  0.00  0.00    +0.000 C 
ATOM     21  H   UNL     1      -0.978  17.388  24.040  0.00  0.00    +0.000 HD
BRANCH  13  22
ATOM     22  S   UNL     1      -4.690  13.007  22.921  0.00  0.00    +0.000 S 
ATOM     23  C   UNL     1      -5.621  12.421  21.519  0.00  0.00    +0.000 C 
ATOM     24  O   UNL     1      -3.539  12.159  23.070  0.00  0.00    +0.000 OA
ATOM     25  O   UNL     1      -5.628  13.182  24.005  0.00  0.00    +0.000 OA
ENDBRANCH  13  22
ENDBRANCH   5   9
BRANCH   1  26
ATOM     26  C   UNL     1       1.699   8.481  20.205  0.00  0.00    +0.000 C 
BRANCH  26  32
ATOM     27  C   UNL     1       2.282   6.116  19.551  0.00  0.00    +0.000 A 
ATOM     28  C   UNL     1       2.840   5.158  18.698  0.00  0.00    +0.000 A 
ATOM     29  C   UNL     1       3.547   5.556  17.566  0.00  0.00    +0.000 A 
ATOM     30  C   UNL     1       3.675   6.912  17.275  0.00  0.00    +0.000 A 
ATOM     31  C   UNL     1       3.086   7.878  18.109  0.00  0.00    +0.000 A 
ATOM     32  C   UNL     1       2.407   7.498  19.284  0.00  0.00    +0.000 A 
BRANCH  27  34
ATOM     33  C   UNL     1       1.415   4.318  20.780  0.00  0.00    +0.000 C 
ATOM     34  O   UNL     1       1.800   5.693  20.762  0.00  0.00    +0.000 OA
ENDBRANCH  27  34
ENDBRANCH  26  32
ENDBRANCH   1  26
TORSDOF 5
ENDMDL
MODEL 5
REMARK VINA RESULT:      -7.0      2.709      3.537
REMARK  Name = 
REMARK  7 active torsions:
REMARK  status: ('A' for Active; 'I' for Inactive)
REMARK    1  A    between atoms: C_1  and  O_2
REMARK    2  A    between atoms: O_2  and  C_3
REMARK    3  A    between atoms: C_8  and  C_9
REMARK    4  A    between atoms: C_9  and  N_10
REMARK    5  A    between atoms: C_14  and  C_16
REMARK    6  A    between atoms: N_20  and  S_21
REMARK    7  A    between atoms: S_21  and  C_22
REMARK                            x       y       z     vdW  Elec       q    Type
REMARK                         _______ _______ _______ _____ _____    ______ ____
ROOT
ATOM      1  N   UNL     1       1.147   8.688  19.131  0.00  0.00    +0.000 NA
ATOM      2  C   UNL     1       0.401   9.393  20.197  0.00  0.00    +0.000 C 
ATOM      3  C   UNL     1       0.971  10.742  20.682  0.00  0.00    +0.000 C 
ATOM      4  N   UNL     1       1.350  11.690  19.629  0.00  0.00    +0.000 N 
ATOM      5  C   UNL     1       1.632  12.989  20.087  0.00  0.00    +0.000 C 
ATOM      6  O   UNL     1       1.560  13.231  21.299  0.00  0.00    +0.000 OA
ATOM      7  C   UNL     1       2.030  11.083  18.481  0.00  0.00    +0.000 C 
ATOM      8  C   UNL     1       1.554   9.648  18.091  0.00  0.00    +0.000 C 
ENDROOT
BRANCH   5   9
ATOM      9  C   UNL     1       2.137  14.108  19.128  0.00  0.00    +0.000 C 
ATOM     10  C   UNL     1       1.253  15.313  18.737  0.00  0.00    +0.000 C 
ATOM     11  C   UNL     1      -0.237  15.320  19.065  0.00  0.00    +0.000 C 
ATOM     12  C   UNL     1      -0.660  16.570  19.852  0.00  0.00    +0.000 C 
ATOM     13  N   UNL     1      -0.141  16.488  21.242  0.00  0.00    +0.000 NA
ATOM     14  C   UNL     1       0.710  17.616  21.676  0.00  0.00    +0.000 C 
ATOM     15  C   UNL     1       1.759  17.251  22.719  0.00  0.00    +0.000 C 
ATOM     16  C   UNL     1       3.167  17.394  22.187  0.00  0.00    +0.000 C 
ATOM     17  O   UNL     1       4.015  18.073  22.766  0.00  0.00    +0.000 OA
ATOM     18  N   UNL     1       3.481  16.774  20.999  0.00  0.00    +0.000 N 
ATOM     19  C   UNL     1       3.621  15.319  20.994  0.00  0.00    +0.000 C 
ATOM     20  C   UNL     1       3.532  14.667  19.596  0.00  0.00    +0.000 C 
ATOM     21  H   UNL     1       4.346  17.191  20.678  0.00  0.00    +0.000 HD
BRANCH  13  22
ATOM     22  S   UNL     1      -1.010  15.521  22.334  0.00  0.00    +0.000 S 
ATOM     23  C   UNL     1      -1.918  16.720  23.290  0.00  0.00    +0.000 C 
ATOM     24  O   UNL     1      -1.962  14.732  21.601  0.00  0.00    +0.000 OA
ATOM     25  O   UNL     1      -0.062  14.901  23.230  0.00  0.00    +0.000 OA
ENDBRANCH  13  22
ENDBRANCH   5   9
BRANCH   1  26
ATOM     26  C   UNL     1       2.211   7.860  19.720  0.00  0.00    +0.000 C 
BRANCH  26  32
ATOM     27  C   UNL     1       2.292   5.396  19.189  0.00  0.00    +0.000 A 
ATOM     28  C   UNL     1       2.718   4.292  18.443  0.00  0.00    +0.000 A 
ATOM     29  C   UNL     1       3.657   4.456  17.426  0.00  0.00    +0.000 A 
ATOM     30  C   UNL     1       4.150   5.727  17.143  0.00  0.00    +0.000 A 
ATOM     31  C   UNL     1       3.698   6.844  17.867  0.00  0.00    +0.000 A 
ATOM     32  C   UNL     1       2.785   6.694  18.928  0.00  0.00    +0.000 A 
BRANCH  27  34
ATOM     33  C   UNL     1       1.008   3.839  20.383  0.00  0.00    +0.000 C 
ATOM     34  O   UNL     1       1.551   5.158  20.318  0.00  0.00    +0.000 OA
ENDBRANCH  27  34
ENDBRANCH  26  32
ENDBRANCH   1  26
TORSDOF 5
ENDMDL
MODEL 6
REMARK VINA RESULT:      -6.9      2.363      3.159
REMARK  Name = 
REMARK  7 active torsions:
REMARK  status: ('A' for Active; 'I' for Inactive)
REMARK    1  A    between atoms: C_1  and  O_2
REMARK    2  A    between atoms: O_2  and  C_3
REMARK    3  A    between atoms: C_8  and  C_9
REMARK    4  A    between atoms: C_9  and  N_10
REMARK    5  A    between atoms: C_14  and  C_16
REMARK    6  A    between atoms: N_20  and  S_21
REMARK    7  A    between atoms: S_21  and  C_22
REMARK                            x       y       z     vdW  Elec       q    Type
REMARK                         _______ _______ _______ _____ _____    ______ ____
ROOT
ATOM      1  N   UNL     1       0.707   8.081  21.177  0.00  0.00    +0.000 NA
ATOM      2  C   UNL     1       0.932   9.056  22.267  0.00  0.00    +0.000 C 
ATOM      3  C   UNL     1       1.489  10.439  21.872  0.00  0.00    +0.000 C 
ATOM      4  N   UNL     1       0.821  11.097  20.745  0.00  0.00    +0.000 N 
ATOM      5  C   UNL     1       1.177  12.445  20.562  0.00  0.00    +0.000 C 
ATOM      6  O   UNL     1       2.010  12.959  21.321  0.00  0.00    +0.000 OA
ATOM      7  C   UNL     1       0.478  10.204  19.635  0.00  0.00    +0.000 C 
ATOM      8  C   UNL     1       0.064   8.753  20.035  0.00  0.00    +0.000 C 
ENDROOT
BRANCH   5   9
ATOM      9  C   UNL     1       0.638  13.283  19.364  0.00  0.00    +0.000 C 
ATOM     10  C   UNL     1      -0.858  13.642  19.222  0.00  0.00    +0.000 C 
ATOM     11  C   UNL     1      -1.903  12.970  20.107  0.00  0.00    +0.000 C 
ATOM     12  C   UNL     1      -2.782  13.986  20.854  0.00  0.00    +0.000 C 
ATOM     13  N   UNL     1      -1.991  14.641  21.927  0.00  0.00    +0.000 NA
ATOM     14  C   UNL     1      -1.923  16.116  21.864  0.00  0.00    +0.000 C 
ATOM     15  C   UNL     1      -0.648  16.716  22.444  0.00  0.00    +0.000 C 
ATOM     16  C   UNL     1       0.193  17.397  21.389  0.00  0.00    +0.000 C 
ATOM     17  O   UNL     1       0.567  18.563  21.508  0.00  0.00    +0.000 OA
ATOM     18  N   UNL     1       0.507  16.692  20.249  0.00  0.00    +0.000 N 
ATOM     19  C   UNL     1       1.494  15.617  20.350  0.00  0.00    +0.000 C 
ATOM     20  C   UNL     1       1.470  14.607  19.180  0.00  0.00    +0.000 C 
ATOM     21  H   UNL     1       0.826  17.371  19.569  0.00  0.00    +0.000 HD
BRANCH  13  22
ATOM     22  S   UNL     1      -1.785  13.774  23.372  0.00  0.00    +0.000 S 
ATOM     23  C   UNL     1      -3.010  12.486  23.239  0.00  0.00    +0.000 C 
ATOM     24  O   UNL     1      -0.490  13.152  23.362  0.00  0.00    +0.000 OA
ATOM     25  O   UNL     1      -2.190  14.627  24.464  0.00  0.00    +0.000 OA
ENDBRANCH  13  22
ENDBRANCH   5   9
BRANCH   1  26
ATOM     26  C   UNL     1       1.946   7.339  20.897  0.00  0.00    +0.000 C 
BRANCH  26  32
ATOM     27  C   UNL     1       2.593   6.027  18.842  0.00  0.00    +0.000 A 
ATOM     28  C   UNL     1       2.649   4.861  18.071  0.00  0.00    +0.000 A 
ATOM     29  C   UNL     1       1.994   3.708  18.499  0.00  0.00    +0.000 A 
ATOM     30  C   UNL     1       1.303   3.716  19.708  0.00  0.00    +0.000 A 
ATOM     31  C   UNL     1       1.274   4.874  20.503  0.00  0.00    +0.000 A 
ATOM     32  C   UNL     1       1.890   6.064  20.068  0.00  0.00    +0.000 A 
BRANCH  27  34
ATOM     33  C   UNL     1       4.087   6.994  17.316  0.00  0.00    +0.000 C 
ATOM     34  O   UNL     1       3.051   7.189  18.280  0.00  0.00    +0.000 OA
ENDBRANCH  27  34
ENDBRANCH  26  32
ENDBRANCH   1  26
TORSDOF 5
ENDMDL
MODEL 7
REMARK VINA RESULT:      -6.9      2.971      5.264
REMARK  Name = 
REMARK  7 active torsions:
REMARK  status: ('A' for Active; 'I' for Inactive)
REMARK    1  A    between atoms: C_1  and  O_2
REMARK    2  A    between atoms: O_2  and  C_3
REMARK    3  A    between atoms: C_8  and  C_9
REMARK    4  A    between atoms: C_9  and  N_10
REMARK    5  A    between atoms: C_14  and  C_16
REMARK    6  A    between atoms: N_20  and  S_21
REMARK    7  A    between atoms: S_21  and  C_22
REMARK                            x       y       z     vdW  Elec       q    Type
REMARK                         _______ _______ _______ _____ _____    ______ ____
ROOT
ATOM      1  N   UNL     1       1.238   9.208  21.820  0.00  0.00    +0.000 NA
ATOM      2  C   UNL     1       1.211  10.373  20.907  0.00  0.00    +0.000 C 
ATOM      3  C   UNL     1      -0.151  11.063  20.685  0.00  0.00    +0.000 C 
ATOM      4  N   UNL     1      -0.920  11.362  21.897  0.00  0.00    +0.000 N 
ATOM      5  C   UNL     1      -2.029  12.202  21.692  0.00  0.00    +0.000 C 
ATOM      6  O   UNL     1      -2.282  12.601  20.548  0.00  0.00    +0.000 OA
ATOM      7  C   UNL     1      -0.896  10.302  22.909  0.00  0.00    +0.000 C 
ATOM      8  C   UNL     1       0.438   9.501  23.022  0.00  0.00    +0.000 C 
ENDROOT
BRANCH   5   9
ATOM      9  C   UNL     1      -3.015  12.558  22.845  0.00  0.00    +0.000 C 
ATOM     10  C   UNL     1      -2.728  13.700  23.845  0.00  0.00    +0.000 C 
ATOM     11  C   UNL     1      -1.349  14.350  23.904  0.00  0.00    +0.000 C 
ATOM     12  C   UNL     1      -1.412  15.878  23.752  0.00  0.00    +0.000 C 
ATOM     13  N   UNL     1      -1.747  16.229  22.347  0.00  0.00    +0.000 NA
ATOM     14  C   UNL     1      -2.947  17.071  22.166  0.00  0.00    +0.000 C 
ATOM     15  C   UNL     1      -3.677  16.858  20.846  0.00  0.00    +0.000 C 
ATOM     16  C   UNL     1      -5.057  16.274  21.044  0.00  0.00    +0.000 C 
ATOM     17  O   UNL     1      -6.061  16.804  20.570  0.00  0.00    +0.000 OA
ATOM     18  N   UNL     1      -5.181  15.139  21.814  0.00  0.00    +0.000 N 
ATOM     19  C   UNL     1      -4.718  13.870  21.255  0.00  0.00    +0.000 C 
ATOM     20  C   UNL     1      -4.477  12.755  22.297  0.00  0.00    +0.000 C 
ATOM     21  H   UNL     1      -6.162  15.059  22.050  0.00  0.00    +0.000 HD
BRANCH  13  22
ATOM     22  S   UNL     1      -0.481  16.179  21.217  0.00  0.00    +0.000 S 
ATOM     23  C   UNL     1      -0.333  17.882  20.713  0.00  0.00    +0.000 C 
ATOM     24  O   UNL     1       0.733  15.813  21.893  0.00  0.00    +0.000 OA
ATOM     25  O   UNL     1      -0.942  15.439  20.065  0.00  0.00    +0.000 OA
ENDBRANCH  13  22
ENDBRANCH   5   9
BRANCH   1  26
ATOM     26  C   UNL     1       0.901   7.980  21.083  0.00  0.00    +0.000 C 
BRANCH  26  32
ATOM     27  C   UNL     1       2.233   6.151  19.970  0.00  0.00    +0.000 A 
ATOM     28  C   UNL     1       3.003   5.624  18.928  0.00  0.00    +0.000 A 
ATOM     29  C   UNL     1       3.383   6.435  17.860  0.00  0.00    +0.000 A 
ATOM     30  C   UNL     1       2.971   7.764  17.825  0.00  0.00    +0.000 A 
ATOM     31  C   UNL     1       2.166   8.288  18.851  0.00  0.00    +0.000 A 
ATOM     32  C   UNL     1       1.811   7.499  19.962  0.00  0.00    +0.000 A 
BRANCH  27  34
ATOM     33  C   UNL     1       1.542   4.090  20.851  0.00  0.00    +0.000 C 
ATOM     34  O   UNL     1       2.079   5.390  21.100  0.00  0.00    +0.000 OA
ENDBRANCH  27  34
ENDBRANCH  26  32
ENDBRANCH   1  26
TORSDOF 5
ENDMDL
MODEL 8
REMARK VINA RESULT:      -6.9      2.867      4.255
REMARK  Name = 
REMARK  7 active torsions:
REMARK  status: ('A' for Active; 'I' for Inactive)
REMARK    1  A    between atoms: C_1  and  O_2
REMARK    2  A    between atoms: O_2  and  C_3
REMARK    3  A    between atoms: C_8  and  C_9
REMARK    4  A    between atoms: C_9  and  N_10
REMARK    5  A    between atoms: C_14  and  C_16
REMARK    6  A    between atoms: N_20  and  S_21
REMARK    7  A    between atoms: S_21  and  C_22
REMARK                            x       y       z     vdW  Elec       q    Type
REMARK                         _______ _______ _______ _____ _____    ______ ____
ROOT
ATOM      1  N   UNL     1       0.685   8.875  20.293  0.00  0.00    +0.000 NA
ATOM      2  C   UNL     1       0.601   9.796  21.448  0.00  0.00    +0.000 C 
ATOM      3  C   UNL     1       1.302  11.164  21.311  0.00  0.00    +0.000 C 
ATOM      4  N   UNL     1       1.034  11.896  20.068  0.00  0.00    +0.000 N 
ATOM      5  C   UNL     1       1.478  13.230  20.070  0.00  0.00    +0.000 C 
ATOM      6  O   UNL     1       2.056  13.673  21.071  0.00  0.00    +0.000 OA
ATOM      7  C   UNL     1       1.015  11.062  18.864  0.00  0.00    +0.000 C 
ATOM      8  C   UNL     1       0.446   9.619  19.045  0.00  0.00    +0.000 C 
ENDROOT
BRANCH   5   9
ATOM      9  C   UNL     1       1.361  14.137  18.809  0.00  0.00    +0.000 C 
ATOM     10  C   UNL     1       0.615  15.489  18.839  0.00  0.00    +0.000 C 
ATOM     11  C   UNL     1      -0.259  15.866  20.031  0.00  0.00    +0.000 C 
ATOM     12  C   UNL     1       0.123  17.227  20.633  0.00  0.00    +0.000 C 
ATOM     13  N   UNL     1       1.417  17.112  21.353  0.00  0.00    +0.000 NA
ATOM     14  C   UNL     1       2.483  18.033  20.906  0.00  0.00    +0.000 C 
ATOM     15  C   UNL     1       3.899  17.498  21.087  0.00  0.00    +0.000 C 
ATOM     16  C   UNL     1       4.597  17.274  19.765  0.00  0.00    +0.000 C 
ATOM     17  O   UNL     1       5.696  17.769  19.518  0.00  0.00    +0.000 OA
ATOM     18  N   UNL     1       3.953  16.525  18.806  0.00  0.00    +0.000 N 
ATOM     19  C   UNL     1       3.856  15.080  19.007  0.00  0.00    +0.000 C 
ATOM     20  C   UNL     1       2.772  14.381  18.155  0.00  0.00    +0.000 C 
ATOM     21  H   UNL     1       4.431  16.706  17.932  0.00  0.00    +0.000 HD
BRANCH  13  22
ATOM     22  S   UNL     1       1.376  16.446  22.914  0.00  0.00    +0.000 S 
ATOM     23  C   UNL     1       1.051  17.865  23.942  0.00  0.00    +0.000 C 
ATOM     24  O   UNL     1       0.246  15.563  23.014  0.00  0.00    +0.000 OA
ATOM     25  O   UNL     1       2.707  15.988  23.238  0.00  0.00    +0.000 OA
ENDBRANCH  13  22
ENDBRANCH   5   9
BRANCH   1  26
ATOM     26  C   UNL     1       1.923   8.083  20.366  0.00  0.00    +0.000 C 
BRANCH  26  32
ATOM     27  C   UNL     1       2.610   6.265  18.758  0.00  0.00    +0.000 A 
ATOM     28  C   UNL     1       2.707   4.932  18.348  0.00  0.00    +0.000 A 
ATOM     29  C   UNL     1       2.096   3.925  19.094  0.00  0.00    +0.000 A 
ATOM     30  C   UNL     1       1.409   4.252  20.260  0.00  0.00    +0.000 A 
ATOM     31  C   UNL     1       1.340   5.586  20.696  0.00  0.00    +0.000 A 
ATOM     32  C   UNL     1       1.911   6.624  19.933  0.00  0.00    +0.000 A 
BRANCH  27  34
ATOM     33  C   UNL     1       4.274   6.951  17.256  0.00  0.00    +0.000 C 
ATOM     34  O   UNL     1       3.023   7.236  17.883  0.00  0.00    +0.000 OA
ENDBRANCH  27  34
ENDBRANCH  26  32
ENDBRANCH   1  26
TORSDOF 5
ENDMDL
MODEL 9
REMARK VINA RESULT:      -6.9      1.203      1.229
REMARK  Name = 
REMARK  7 active torsions:
REMARK  status: ('A' for Active; 'I' for Inactive)
REMARK    1  A    between atoms: C_1  and  O_2
REMARK    2  A    between atoms: O_2  and  C_3
REMARK    3  A    between atoms: C_8  and  C_9
REMARK    4  A    between atoms: C_9  and  N_10
REMARK    5  A    between atoms: C_14  and  C_16
REMARK    6  A    between atoms: N_20  and  S_21
REMARK    7  A    between atoms: S_21  and  C_22
REMARK                            x       y       z     vdW  Elec       q    Type
REMARK                         _______ _______ _______ _____ _____    ______ ____
ROOT
ATOM      1  N   UNL     1       2.246   6.904  18.818  0.00  0.00    +0.000 NA
ATOM      2  C   UNL     1       1.736   7.420  20.108  0.00  0.00    +0.000 C 
ATOM      3  C   UNL     1       1.783   8.946  20.324  0.00  0.00    +0.000 C 
ATOM      4  N   UNL     1       1.266   9.763  19.221  0.00  0.00    +0.000 N 
ATOM      5  C   UNL     1       1.091  11.123  19.534  0.00  0.00    +0.000 C 
ATOM      6  O   UNL     1       1.389  11.526  20.666  0.00  0.00    +0.000 OA
ATOM      7  C   UNL     1       1.647   9.293  17.887  0.00  0.00    +0.000 C 
ATOM      8  C   UNL     1       1.750   7.745  17.715  0.00  0.00    +0.000 C 
ENDROOT
BRANCH   5   9
ATOM      9  C   UNL     1       0.636  12.161  18.466  0.00  0.00    +0.000 C 
ATOM     10  C   UNL     1      -0.740  12.860  18.537  0.00  0.00    +0.000 C 
ATOM     11  C   UNL     1      -1.809  12.370  19.508  0.00  0.00    +0.000 C 
ATOM     12  C   UNL     1      -2.336  13.490  20.418  0.00  0.00    +0.000 C 
ATOM     13  N   UNL     1      -1.299  13.854  21.418  0.00  0.00    +0.000 NA
ATOM     14  C   UNL     1      -0.894  15.275  21.431  0.00  0.00    +0.000 C 
ATOM     15  C   UNL     1       0.543  15.519  21.877  0.00  0.00    +0.000 C 
ATOM     16  C   UNL     1       1.399  16.079  20.765  0.00  0.00    +0.000 C 
ATOM     17  O   UNL     1       2.048  17.116  20.903  0.00  0.00    +0.000 OA
ATOM     18  N   UNL     1       1.410  15.421  19.555  0.00  0.00    +0.000 N 
ATOM     19  C   UNL     1       2.120  14.147  19.467  0.00  0.00    +0.000 C 
ATOM     20  C   UNL     1       1.730  13.273  18.254  0.00  0.00    +0.000 C 
ATOM     21  H   UNL     1       1.803  16.066  18.881  0.00  0.00    +0.000 HD
BRANCH  13  22
ATOM     22  S   UNL     1      -1.145  12.842  22.772  0.00  0.00    +0.000 S 
ATOM     23  C   UNL     1      -2.793  12.194  22.972  0.00  0.00    +0.000 C 
ATOM     24  O   UNL     1      -0.279  11.745  22.437  0.00  0.00    +0.000 OA
ATOM     25  O   UNL     1      -0.879  13.675  23.921  0.00  0.00    +0.000 OA
ENDBRANCH  13  22
ENDBRANCH   5   9
BRANCH   1  26
ATOM     26  C   UNL     1       3.701   6.701  18.894  0.00  0.00    +0.000 C 
BRANCH  26  32
ATOM     27  C   UNL     1       5.638   6.200  17.358  0.00  0.00    +0.000 A 
ATOM     28  C   UNL     1       6.361   5.379  16.487  0.00  0.00    +0.000 A 
ATOM     29  C   UNL     1       5.849   4.140  16.107  0.00  0.00    +0.000 A 
ATOM     30  C   UNL     1       4.625   3.715  16.617  0.00  0.00    +0.000 A 
ATOM     31  C   UNL     1       3.912   4.521  17.521  0.00  0.00    +0.000 A 
ATOM     32  C   UNL     1       4.390   5.796  17.882  0.00  0.00    +0.000 A 
BRANCH  27  34
ATOM     33  C   UNL     1       7.485   7.631  17.554  0.00  0.00    +0.000 C 
ATOM     34  O   UNL     1       6.064   7.492  17.522  0.00  0.00    +0.000 OA
ENDBRANCH  27  34
ENDBRANCH  26  32
ENDBRANCH   1  26
TORSDOF 5
ENDMDL
