MODEL 1
REMARK VINA RESULT:      -6.3      0.000      0.000
REMARK  Name = 
REMARK  6 active torsions:
REMARK  status: ('A' for Active; 'I' for Inactive)
REMARK    1  A    between atoms: C_1  and  C_2
REMARK    2  A    between atoms: C_2  and  O_3
REMARK    3  A    between atoms: O_3  and  C_4
REMARK    4  A    between atoms: N_6  and  C_7
REMARK    5  A    between atoms: C_10  and  N_11
REMARK    6  A    between atoms: C_12  and  C_14
REMARK                            x       y       z     vdW  Elec       q    Type
REMARK                         _______ _______ _______ _____ _____    ______ ____
ROOT
ATOM      1  C   UNL     1       5.189   4.245  18.439  0.00  0.00    +0.000 C 
ATOM      2  C   UNL     1       5.350   5.702  18.873  0.00  0.00    +0.000 C 
ATOM      3  C   UNL     1       4.354   6.639  18.194  0.00  0.00    +0.000 C 
ATOM      4  C   UNL     1       2.900   6.150  18.247  0.00  0.00    +0.000 C 
ATOM      5  C   UNL     1       2.729   4.647  17.977  0.00  0.00    +0.000 C 
ATOM      6  C   UNL     1       3.758   3.774  18.692  0.00  0.00    +0.000 C 
ENDROOT
BRANCH   1   9
ATOM      7  C   UNL     1       6.860   4.263  16.633  0.00  0.00    +0.000 C 
ATOM      8  O   UNL     1       7.789   4.585  17.360  0.00  0.00    +0.000 OA
ATOM      9  N   UNL     1       5.582   4.049  17.054  0.00  0.00    +0.000 N 
ATOM     10  H   UNL     1       4.919   3.796  16.336  0.00  0.00    +0.000 HD
BRANCH   7  11
ATOM     11  O   UNL     1       6.911   4.165  15.282  0.00  0.00    +0.000 OA
BRANCH  11  13
ATOM     12  C   UNL     1       5.735   3.830  13.227  0.00  0.00    +0.000 C 
ATOM     13  C   UNL     1       5.658   4.415  14.629  0.00  0.00    +0.000 C 
ENDBRANCH  11  13
ENDBRANCH   7  11
ENDBRANCH   1   9
BRANCH   4  14
ATOM     14  N   UNL     1       2.308   6.512  19.526  0.00  0.00    +0.000 N 
ATOM     15  C   UNL     1       1.791   7.776  19.759  0.00  0.00    +0.000 C 
ATOM     16  O   UNL     1       1.816   8.661  18.906  0.00  0.00    +0.000 OA
ATOM     17  H   UNL     1       2.185   5.803  20.232  0.00  0.00    +0.000 HD
BRANCH  15  18
ATOM     18  C   UNL     1       1.212   7.949  21.183  0.00  0.00    +0.000 C 
ATOM     19  C   UNL     1       1.584   9.243  21.956  0.00  0.00    +0.000 C 
ATOM     20  C   UNL     1       0.180   9.184  22.589  0.00  0.00    +0.000 C 
ATOM     21  C   UNL     1      -0.266   8.399  21.342  0.00  0.00    +0.000 C 
ENDBRANCH  15  18
ENDBRANCH   4  14
TORSDOF 5
ENDMDL
MODEL 2
REMARK VINA RESULT:      -6.3      0.896      1.020
REMARK  Name = 
REMARK  6 active torsions:
REMARK  status: ('A' for Active; 'I' for Inactive)
REMARK    1  A    between atoms: C_1  and  C_2
REMARK    2  A    between atoms: C_2  and  O_3
REMARK    3  A    between atoms: O_3  and  C_4
REMARK    4  A    between atoms: N_6  and  C_7
REMARK    5  A    between atoms: C_10  and  N_11
REMARK    6  A    between atoms: C_12  and  C_14
REMARK                            x       y       z     vdW  Elec       q    Type
REMARK                         _______ _______ _______ _____ _____    ______ ____
ROOT
ATOM      1  C   UNL     1       5.243   4.776  18.253  0.00  0.00    +0.000 C 
ATOM      2  C   UNL     1       5.313   6.291  18.055  0.00  0.00    +0.000 C 
ATOM      3  C   UNL     1       4.099   6.851  17.318  0.00  0.00    +0.000 C 
ATOM      4  C   UNL     1       2.753   6.376  17.879  0.00  0.00    +0.000 C 
ATOM      5  C   UNL     1       2.710   4.884  18.243  0.00  0.00    +0.000 C 
ATOM      6  C   UNL     1       3.955   4.397  18.982  0.00  0.00    +0.000 C 
ENDROOT
BRANCH   1   9
ATOM      7  C   UNL     1       6.536   4.087  16.276  0.00  0.00    +0.000 C 
ATOM      8  O   UNL     1       7.562   4.652  16.626  0.00  0.00    +0.000 OA
ATOM      9  N   UNL     1       5.378   4.062  16.995  0.00  0.00    +0.000 N 
ATOM     10  H   UNL     1       4.609   3.561  16.574  0.00  0.00    +0.000 HD
BRANCH   7  11
ATOM     11  O   UNL     1       6.336   3.480  15.081  0.00  0.00    +0.000 OA
BRANCH  11  13
ATOM     12  C   UNL     1       6.146   3.556  12.698  0.00  0.00    +0.000 C 
ATOM     13  C   UNL     1       6.479   4.352  13.950  0.00  0.00    +0.000 C 
ENDBRANCH  11  13
ENDBRANCH   7  11
ENDBRANCH   1   9
BRANCH   4  14
ATOM     14  N   UNL     1       2.383   7.194  19.024  0.00  0.00    +0.000 N 
ATOM     15  C   UNL     1       1.740   8.411  18.874  0.00  0.00    +0.000 C 
ATOM     16  O   UNL     1       1.458   8.872  17.769  0.00  0.00    +0.000 OA
ATOM     17  H   UNL     1       2.514   6.829  19.955  0.00  0.00    +0.000 HD
BRANCH  15  18
ATOM     18  C   UNL     1       1.441   9.117  20.218  0.00  0.00    +0.000 C 
ATOM     19  C   UNL     1       0.015   9.695  20.423  0.00  0.00    +0.000 C 
ATOM     20  C   UNL     1       0.159   9.332  21.913  0.00  0.00    +0.000 C 
ATOM     21  C   UNL     1       1.161   8.249  21.475  0.00  0.00    +0.000 C 
ENDBRANCH  15  18
ENDBRANCH   4  14
TORSDOF 5
ENDMDL
MODEL 3
REMARK VINA RESULT:      -6.3      2.989      7.478
REMARK  Name = 
REMARK  6 active torsions:
REMARK  status: ('A' for Active; 'I' for Inactive)
REMARK    1  A    between atoms: C_1  and  C_2
REMARK    2  A    between atoms: C_2  and  O_3
REMARK    3  A    between atoms: O_3  and  C_4
REMARK    4  A    between atoms: N_6  and  C_7
REMARK    5  A    between atoms: C_10  and  N_11
REMARK    6  A    between atoms: C_12  and  C_14
REMARK                            x       y       z     vdW  Elec       q    Type
REMARK                         _______ _______ _______ _____ _____    ______ ____
ROOT
ATOM      1  C   UNL     1       2.172   4.908  18.046  0.00  0.00    +0.000 C 
ATOM      2  C   UNL     1       3.129   6.047  17.695  0.00  0.00    +0.000 C 
ATOM      3  C   UNL     1       4.598   5.661  17.857  0.00  0.00    +0.000 C 
ATOM      4  C   UNL     1       4.972   4.330  17.193  0.00  0.00    +0.000 C 
ATOM      5  C   UNL     1       3.939   3.210  17.393  0.00  0.00    +0.000 C 
ATOM      6  C   UNL     1       2.494   3.670  17.211  0.00  0.00    +0.000 C 
ENDROOT
BRANCH   1   9
ATOM      7  C   UNL     1       1.258   3.794  20.041  0.00  0.00    +0.000 C 
ATOM      8  O   UNL     1       0.377   3.205  19.431  0.00  0.00    +0.000 OA
ATOM      9  N   UNL     1       2.186   4.613  19.469  0.00  0.00    +0.000 N 
ATOM     10  H   UNL     1       2.847   5.038  20.102  0.00  0.00    +0.000 HD
BRANCH   7  11
ATOM     11  O   UNL     1       1.403   3.822  21.388  0.00  0.00    +0.000 OA
BRANCH  11  13
ATOM     12  C   UNL     1       3.229   2.280  21.330  0.00  0.00    +0.000 C 
ATOM     13  C   UNL     1       1.877   2.590  21.951  0.00  0.00    +0.000 C 
ENDBRANCH  11  13
ENDBRANCH   7  11
ENDBRANCH   1   9
BRANCH   4  14
ATOM     14  N   UNL     1       5.228   4.544  15.775  0.00  0.00    +0.000 N 
ATOM     15  C   UNL     1       6.512   4.695  15.280  0.00  0.00    +0.000 C 
ATOM     16  O   UNL     1       7.502   4.669  16.009  0.00  0.00    +0.000 OA
ATOM     17  H   UNL     1       4.461   4.491  15.123  0.00  0.00    +0.000 HD
BRANCH  15  18
ATOM     18  C   UNL     1       6.557   4.914  13.750  0.00  0.00    +0.000 C 
ATOM     19  C   UNL     1       7.955   5.036  13.084  0.00  0.00    +0.000 C 
ATOM     20  C   UNL     1       7.351   4.334  11.853  0.00  0.00    +0.000 C 
ATOM     21  C   UNL     1       6.328   3.698  12.811  0.00  0.00    +0.000 C 
ENDBRANCH  15  18
ENDBRANCH   4  14
TORSDOF 5
ENDMDL
MODEL 4
REMARK VINA RESULT:      -6.2      3.046      7.339
REMARK  Name = 
REMARK  6 active torsions:
REMARK  status: ('A' for Active; 'I' for Inactive)
REMARK    1  A    between atoms: C_1  and  C_2
REMARK    2  A    between atoms: C_2  and  O_3
REMARK    3  A    between atoms: O_3  and  C_4
REMARK    4  A    between atoms: N_6  and  C_7
REMARK    5  A    between atoms: C_10  and  N_11
REMARK    6  A    between atoms: C_12  and  C_14
REMARK                            x       y       z     vdW  Elec       q    Type
REMARK                         _______ _______ _______ _____ _____    ______ ____
ROOT
ATOM      1  C   UNL     1       4.537   3.211  19.348  0.00  0.00    +0.000 C 
ATOM      2  C   UNL     1       3.959   2.434  18.165  0.00  0.00    +0.000 C 
ATOM      3  C   UNL     1       3.316   3.338  17.116  0.00  0.00    +0.000 C 
ATOM      4  C   UNL     1       4.193   4.523  16.691  0.00  0.00    +0.000 C 
ATOM      5  C   UNL     1       4.919   5.221  17.852  0.00  0.00    +0.000 C 
ATOM      6  C   UNL     1       5.540   4.253  18.857  0.00  0.00    +0.000 C 
ENDROOT
BRANCH   1   9
ATOM      7  C   UNL     1       2.957   3.166  21.234  0.00  0.00    +0.000 C 
ATOM      8  O   UNL     1       3.319   2.073  21.642  0.00  0.00    +0.000 OA
ATOM      9  N   UNL     1       3.492   3.812  20.160  0.00  0.00    +0.000 N 
ATOM     10  H   UNL     1       3.083   4.707  19.936  0.00  0.00    +0.000 HD
BRANCH   7  11
ATOM     11  O   UNL     1       1.902   3.876  21.705  0.00  0.00    +0.000 OA
BRANCH  11  13
ATOM     12  C   UNL     1       0.479   3.232  19.895  0.00  0.00    +0.000 C 
ATOM     13  C   UNL     1       1.046   4.403  20.681  0.00  0.00    +0.000 C 
ENDBRANCH  11  13
ENDBRANCH   7  11
ENDBRANCH   1   9
BRANCH   4  14
ATOM     14  N   UNL     1       5.143   4.091  15.677  0.00  0.00    +0.000 N 
ATOM     15  C   UNL     1       5.818   4.997  14.876  0.00  0.00    +0.000 C 
ATOM     16  O   UNL     1       5.643   6.211  14.969  0.00  0.00    +0.000 OA
ATOM     17  H   UNL     1       5.387   3.115  15.614  0.00  0.00    +0.000 HD
BRANCH  15  18
ATOM     18  C   UNL     1       6.777   4.326  13.864  0.00  0.00    +0.000 C 
ATOM     19  C   UNL     1       6.141   3.542  12.685  0.00  0.00    +0.000 C 
ATOM     20  C   UNL     1       7.334   4.003  11.827  0.00  0.00    +0.000 C 
ATOM     21  C   UNL     1       7.457   5.206  12.780  0.00  0.00    +0.000 C 
ENDBRANCH  15  18
ENDBRANCH   4  14
TORSDOF 5
ENDMDL
MODEL 5
REMARK VINA RESULT:      -6.2      2.323      7.463
REMARK  Name = 
REMARK  6 active torsions:
REMARK  status: ('A' for Active; 'I' for Inactive)
REMARK    1  A    between atoms: C_1  and  C_2
REMARK    2  A    between atoms: C_2  and  O_3
REMARK    3  A    between atoms: O_3  and  C_4
REMARK    4  A    between atoms: N_6  and  C_7
REMARK    5  A    between atoms: C_10  and  N_11
REMARK    6  A    between atoms: C_12  and  C_14
REMARK                            x       y       z     vdW  Elec       q    Type
REMARK                         _______ _______ _______ _____ _____    ______ ____
ROOT
ATOM      1  C   UNL     1       2.205   4.790  18.093  0.00  0.00    +0.000 C 
ATOM      2  C   UNL     1       3.285   5.842  17.840  0.00  0.00    +0.000 C 
ATOM      3  C   UNL     1       4.700   5.276  17.932  0.00  0.00    +0.000 C 
ATOM      4  C   UNL     1       4.911   3.987  17.127  0.00  0.00    +0.000 C 
ATOM      5  C   UNL     1       3.757   2.978  17.234  0.00  0.00    +0.000 C 
ATOM      6  C   UNL     1       2.373   3.617  17.129  0.00  0.00    +0.000 C 
ENDROOT
BRANCH   1   9
ATOM      7  C   UNL     1       2.036   5.226  20.509  0.00  0.00    +0.000 C 
ATOM      8  O   UNL     1       1.840   6.426  20.380  0.00  0.00    +0.000 OA
ATOM      9  N   UNL     1       2.197   4.349  19.478  0.00  0.00    +0.000 N 
ATOM     10  H   UNL     1       2.360   3.388  19.739  0.00  0.00    +0.000 HD
BRANCH   7  11
ATOM     11  O   UNL     1       2.229   4.578  21.684  0.00  0.00    +0.000 OA
BRANCH  11  13
ATOM     12  C   UNL     1       1.305   2.411  22.090  0.00  0.00    +0.000 C 
ATOM     13  C   UNL     1       2.499   3.176  21.543  0.00  0.00    +0.000 C 
ENDBRANCH  11  13
ENDBRANCH   7  11
ENDBRANCH   1   9
BRANCH   4  14
ATOM     14  N   UNL     1       5.178   4.316  15.734  0.00  0.00    +0.000 N 
ATOM     15  C   UNL     1       6.464   4.524  15.267  0.00  0.00    +0.000 C 
ATOM     16  O   UNL     1       7.448   4.455  16.002  0.00  0.00    +0.000 OA
ATOM     17  H   UNL     1       4.418   4.304  15.071  0.00  0.00    +0.000 HD
BRANCH  15  18
ATOM     18  C   UNL     1       6.522   4.865  13.759  0.00  0.00    +0.000 C 
ATOM     19  C   UNL     1       7.920   5.108  13.131  0.00  0.00    +0.000 C 
ATOM     20  C   UNL     1       7.372   4.475  11.838  0.00  0.00    +0.000 C 
ATOM     21  C   UNL     1       6.369   3.716  12.725  0.00  0.00    +0.000 C 
ENDBRANCH  15  18
ENDBRANCH   4  14
TORSDOF 5
ENDMDL
MODEL 6
REMARK VINA RESULT:      -6.2      1.775      7.476
REMARK  Name = 
REMARK  6 active torsions:
REMARK  status: ('A' for Active; 'I' for Inactive)
REMARK    1  A    between atoms: C_1  and  C_2
REMARK    2  A    between atoms: C_2  and  O_3
REMARK    3  A    between atoms: O_3  and  C_4
REMARK    4  A    between atoms: N_6  and  C_7
REMARK    5  A    between atoms: C_10  and  N_11
REMARK    6  A    between atoms: C_12  and  C_14
REMARK                            x       y       z     vdW  Elec       q    Type
REMARK                         _______ _______ _______ _____ _____    ______ ____
ROOT
ATOM      1  C   UNL     1       3.297   4.469  19.215  0.00  0.00    +0.000 C 
ATOM      2  C   UNL     1       2.814   4.893  17.828  0.00  0.00    +0.000 C 
ATOM      3  C   UNL     1       3.600   6.072  17.259  0.00  0.00    +0.000 C 
ATOM      4  C   UNL     1       5.123   5.906  17.344  0.00  0.00    +0.000 C 
ATOM      5  C   UNL     1       5.623   5.322  18.675  0.00  0.00    +0.000 C 
ATOM      6  C   UNL     1       4.790   4.145  19.179  0.00  0.00    +0.000 C 
ENDROOT
BRANCH   1   9
ATOM      7  C   UNL     1       1.738   5.601  20.745  0.00  0.00    +0.000 C 
ATOM      8  O   UNL     1       0.787   4.885  20.467  0.00  0.00    +0.000 OA
ATOM      9  N   UNL     1       2.990   5.470  20.223  0.00  0.00    +0.000 N 
ATOM     10  H   UNL     1       3.673   6.141  20.541  0.00  0.00    +0.000 HD
BRANCH   7  11
ATOM     11  O   UNL     1       1.693   6.704  21.533  0.00  0.00    +0.000 OA
BRANCH  11  13
ATOM     12  C   UNL     1       0.236   8.599  21.474  0.00  0.00    +0.000 C 
ATOM     13  C   UNL     1       1.431   7.922  20.821  0.00  0.00    +0.000 C 
ENDBRANCH  11  13
ENDBRANCH   7  11
ENDBRANCH   1   9
BRANCH   4  14
ATOM     14  N   UNL     1       5.593   5.105  16.223  0.00  0.00    +0.000 N 
ATOM     15  C   UNL     1       6.804   5.358  15.602  0.00  0.00    +0.000 C 
ATOM     16  O   UNL     1       7.541   6.278  15.952  0.00  0.00    +0.000 OA
ATOM     17  H   UNL     1       5.070   4.288  15.948  0.00  0.00    +0.000 HD
BRANCH  15  18
ATOM     18  C   UNL     1       7.108   4.390  14.433  0.00  0.00    +0.000 C 
ATOM     19  C   UNL     1       5.899   3.796  13.661  0.00  0.00    +0.000 C 
ATOM     20  C   UNL     1       6.776   3.840  12.396  0.00  0.00    +0.000 C 
ATOM     21  C   UNL     1       7.560   4.981  13.070  0.00  0.00    +0.000 C 
ENDBRANCH  15  18
ENDBRANCH   4  14
TORSDOF 5
ENDMDL
MODEL 7
REMARK VINA RESULT:      -6.1      2.648      7.456
REMARK  Name = 
REMARK  6 active torsions:
REMARK  status: ('A' for Active; 'I' for Inactive)
REMARK    1  A    between atoms: C_1  and  C_2
REMARK    2  A    between atoms: C_2  and  O_3
REMARK    3  A    between atoms: O_3  and  C_4
REMARK    4  A    between atoms: N_6  and  C_7
REMARK    5  A    between atoms: C_10  and  N_11
REMARK    6  A    between atoms: C_12  and  C_14
REMARK                            x       y       z     vdW  Elec       q    Type
REMARK                         _______ _______ _______ _____ _____    ______ ____
ROOT
ATOM      1  C   UNL     1       3.152   2.233  18.682  0.00  0.00    +0.000 C 
ATOM      2  C   UNL     1       2.661   2.671  17.302  0.00  0.00    +0.000 C 
ATOM      3  C   UNL     1       3.080   4.095  16.946  0.00  0.00    +0.000 C 
ATOM      4  C   UNL     1       4.568   4.386  17.179  0.00  0.00    +0.000 C 
ATOM      5  C   UNL     1       5.128   3.810  18.488  0.00  0.00    +0.000 C 
ATOM      6  C   UNL     1       4.670   2.381  18.775  0.00  0.00    +0.000 C 
ENDROOT
BRANCH   1   9
ATOM      7  C   UNL     1       1.118   3.015  19.822  0.00  0.00    +0.000 C 
ATOM      8  O   UNL     1       0.350   2.451  19.056  0.00  0.00    +0.000 OA
ATOM      9  N   UNL     1       2.477   2.953  19.748  0.00  0.00    +0.000 N 
ATOM     10  H   UNL     1       2.980   3.479  20.446  0.00  0.00    +0.000 HD
BRANCH   7  11
ATOM     11  O   UNL     1       0.760   3.876  20.807  0.00  0.00    +0.000 OA
BRANCH  11  13
ATOM     12  C   UNL     1       1.590   6.105  20.559  0.00  0.00    +0.000 C 
ATOM     13  C   UNL     1       1.813   4.757  21.225  0.00  0.00    +0.000 C 
ENDBRANCH  11  13
ENDBRANCH   7  11
ENDBRANCH   1   9
BRANCH   4  14
ATOM     14  N   UNL     1       5.343   3.917  16.039  0.00  0.00    +0.000 N 
ATOM     15  C   UNL     1       5.857   4.792  15.097  0.00  0.00    +0.000 C 
ATOM     16  O   UNL     1       5.677   6.007  15.163  0.00  0.00    +0.000 OA
ATOM     17  H   UNL     1       5.592   2.942  15.979  0.00  0.00    +0.000 HD
BRANCH  15  18
ATOM     18  C   UNL     1       6.645   4.086  13.969  0.00  0.00    +0.000 C 
ATOM     19  C   UNL     1       5.835   3.526  12.769  0.00  0.00    +0.000 C 
ATOM     20  C   UNL     1       7.040   3.882  11.879  0.00  0.00    +0.000 C 
ATOM     21  C   UNL     1       7.399   4.954  12.924  0.00  0.00    +0.000 C 
ENDBRANCH  15  18
ENDBRANCH   4  14
TORSDOF 5
ENDMDL
MODEL 8
REMARK VINA RESULT:      -6.1      2.648      3.390
REMARK  Name = 
REMARK  6 active torsions:
REMARK  status: ('A' for Active; 'I' for Inactive)
REMARK    1  A    between atoms: C_1  and  C_2
REMARK    2  A    between atoms: C_2  and  O_3
REMARK    3  A    between atoms: O_3  and  C_4
REMARK    4  A    between atoms: N_6  and  C_7
REMARK    5  A    between atoms: C_10  and  N_11
REMARK    6  A    between atoms: C_12  and  C_14
REMARK                            x       y       z     vdW  Elec       q    Type
REMARK                         _______ _______ _______ _____ _____    ______ ____
ROOT
ATOM      1  C   UNL     1       6.545   4.086  16.738  0.00  0.00    +0.000 C 
ATOM      2  C   UNL     1       6.884   4.520  18.164  0.00  0.00    +0.000 C 
ATOM      3  C   UNL     1       6.197   5.821  18.571  0.00  0.00    +0.000 C 
ATOM      4  C   UNL     1       4.692   5.852  18.271  0.00  0.00    +0.000 C 
ATOM      5  C   UNL     1       4.307   5.267  16.904  0.00  0.00    +0.000 C 
ATOM      6  C   UNL     1       5.032   3.965  16.568  0.00  0.00    +0.000 C 
ENDROOT
BRANCH   1   9
ATOM      7  C   UNL     1       7.040   4.727  14.415  0.00  0.00    +0.000 C 
ATOM      8  O   UNL     1       6.447   3.779  13.921  0.00  0.00    +0.000 OA
ATOM      9  N   UNL     1       7.125   4.982  15.751  0.00  0.00    +0.000 N 
ATOM     10  H   UNL     1       7.656   5.799  16.010  0.00  0.00    +0.000 HD
BRANCH   7  11
ATOM     11  O   UNL     1       7.796   5.625  13.737  0.00  0.00    +0.000 OA
BRANCH  11  13
ATOM     12  C   UNL     1       8.257   6.587  11.596  0.00  0.00    +0.000 C 
ATOM     13  C   UNL     1       8.000   5.295  12.355  0.00  0.00    +0.000 C 
ENDBRANCH  11  13
ENDBRANCH   7  11
ENDBRANCH   1   9
BRANCH   4  14
ATOM     14  N   UNL     1       3.965   5.182  19.339  0.00  0.00    +0.000 N 
ATOM     15  C   UNL     1       2.709   5.602  19.742  0.00  0.00    +0.000 C 
ATOM     16  O   UNL     1       2.145   6.568  19.230  0.00  0.00    +0.000 OA
ATOM     17  H   UNL     1       4.342   4.336  19.737  0.00  0.00    +0.000 HD
BRANCH  15  18
ATOM     18  C   UNL     1       2.118   4.754  20.893  0.00  0.00    +0.000 C 
ATOM     19  C   UNL     1       0.870   3.886  20.576  0.00  0.00    +0.000 C 
ATOM     20  C   UNL     1       1.421   2.854  21.578  0.00  0.00    +0.000 C 
ATOM     21  C   UNL     1       2.820   3.423  21.279  0.00  0.00    +0.000 C 
ENDBRANCH  15  18
ENDBRANCH   4  14
TORSDOF 5
ENDMDL
MODEL 9
REMARK VINA RESULT:      -5.9      2.922      4.111
REMARK  Name = 
REMARK  6 active torsions:
REMARK  status: ('A' for Active; 'I' for Inactive)
REMARK    1  A    between atoms: C_1  and  C_2
REMARK    2  A    between atoms: C_2  and  O_3
REMARK    3  A    between atoms: O_3  and  C_4
REMARK    4  A    between atoms: N_6  and  C_7
REMARK    5  A    between atoms: C_10  and  N_11
REMARK    6  A    between atoms: C_12  and  C_14
REMARK                            x       y       z     vdW  Elec       q    Type
REMARK                         _______ _______ _______ _____ _____    ______ ____
ROOT
ATOM      1  C   UNL     1       2.585   5.729  19.202  0.00  0.00    +0.000 C 
ATOM      2  C   UNL     1       1.746   6.366  20.310  0.00  0.00    +0.000 C 
ATOM      3  C   UNL     1       2.015   7.859  20.477  0.00  0.00    +0.000 C 
ATOM      4  C   UNL     1       1.983   8.651  19.163  0.00  0.00    +0.000 C 
ATOM      5  C   UNL     1       2.681   7.952  17.986  0.00  0.00    +0.000 C 
ATOM      6  C   UNL     1       2.361   6.462  17.881  0.00  0.00    +0.000 C 
ENDROOT
BRANCH   1   9
ATOM      7  C   UNL     1       4.787   4.630  19.198  0.00  0.00    +0.000 C 
ATOM      8  O   UNL     1       4.421   3.676  18.526  0.00  0.00    +0.000 OA
ATOM      9  N   UNL     1       3.994   5.680  19.555  0.00  0.00    +0.000 N 
ATOM     10  H   UNL     1       4.434   6.391  20.120  0.00  0.00    +0.000 HD
BRANCH   7  11
ATOM     11  O   UNL     1       6.000   4.762  19.788  0.00  0.00    +0.000 OA
BRANCH  11  13
ATOM     12  C   UNL     1       7.579   4.872  17.996  0.00  0.00    +0.000 C 
ATOM     13  C   UNL     1       6.891   5.654  19.103  0.00  0.00    +0.000 C 
ENDBRANCH  11  13
ENDBRANCH   7  11
ENDBRANCH   1   9
BRANCH   4  14
ATOM     14  N   UNL     1       0.607   8.979  18.822  0.00  0.00    +0.000 N 
ATOM     15  C   UNL     1       0.141  10.283  18.841  0.00  0.00    +0.000 C 
ATOM     16  O   UNL     1       0.858  11.231  19.158  0.00  0.00    +0.000 OA
ATOM     17  H   UNL     1      -0.002   8.254  18.475  0.00  0.00    +0.000 HD
BRANCH  15  18
ATOM     18  C   UNL     1      -1.350  10.408  18.449  0.00  0.00    +0.000 C 
ATOM     19  C   UNL     1      -1.844  11.789  17.939  0.00  0.00    +0.000 C 
ATOM     20  C   UNL     1      -2.806  11.023  17.011  0.00  0.00    +0.000 C 
ATOM     21  C   UNL     1      -1.813   9.849  17.075  0.00  0.00    +0.000 C 
ENDBRANCH  15  18
ENDBRANCH   4  14
TORSDOF 5
ENDMDL
