MODEL 1
REMARK VINA RESULT:      -8.1      0.000      0.000
REMARK  Name = 
REMARK  6 active torsions:
REMARK  status: ('A' for Active; 'I' for Inactive)
REMARK    1  A    between atoms: C_1  and  O_2
REMARK    2  A    between atoms: O_2  and  C_3
REMARK    3  A    between atoms: C_8  and  C_9
REMARK    4  A    between atoms: C_11  and  N_12
REMARK    5  A    between atoms: C_14  and  C_15
REMARK    6  A    between atoms: C_15  and  N_16
REMARK                            x       y       z     vdW  Elec       q    Type
REMARK                         _______ _______ _______ _____ _____    ______ ____
ROOT
ATOM      1  C   UNL     1       6.019   3.538  12.702  0.00  0.00    +0.000 A 
ATOM      2  C   UNL     1       7.128   4.333  12.484  0.00  0.00    +0.000 A 
ATOM      3  C   UNL     1       7.635   5.106  13.532  0.00  0.00    +0.000 A 
ATOM      4  C   UNL     1       7.061   5.117  14.793  0.00  0.00    +0.000 A 
ATOM      5  N   UNL     1       7.584   5.967  15.690  0.00  0.00    +0.000 NA
ATOM      6  C   UNL     1       7.023   6.072  16.911  0.00  0.00    +0.000 A 
ATOM      7  C   UNL     1       7.588   7.105  17.838  0.00  0.00    +0.000 C 
ATOM      8  C   UNL     1       5.942   5.300  17.297  0.00  0.00    +0.000 A 
ATOM      9  C   UNL     1       5.402   4.394  16.376  0.00  0.00    +0.000 A 
ATOM     10  C   UNL     1       5.947   4.295  15.061  0.00  0.00    +0.000 A 
ATOM     11  C   UNL     1       5.439   3.525  13.973  0.00  0.00    +0.000 A 
ENDROOT
BRANCH   9  12
ATOM     12  N   UNL     1       4.240   3.678  16.760  0.00  0.00    +0.000 N 
ATOM     13  C   UNL     1       4.186   2.553  17.557  0.00  0.00    +0.000 A 
ATOM     14  C   UNL     1       2.888   2.548  18.027  0.00  0.00    +0.000 A 
ATOM     15  N   UNL     1       2.150   3.431  17.290  0.00  0.00    +0.000 NA
ATOM     16  N   UNL     1       2.979   4.080  16.487  0.00  0.00    +0.000 NA
BRANCH  14  17
ATOM     17  C   UNL     1       2.292   1.816  19.180  0.00  0.00    +0.000 C 
BRANCH  17  18
ATOM     18  N   UNL     1       2.322   2.566  20.449  0.00  0.00    +0.000 NA
ATOM     19  C   UNL     1       1.026   3.093  20.890  0.00  0.00    +0.000 C 
ATOM     20  C   UNL     1       1.028   4.564  20.513  0.00  0.00    +0.000 C 
ATOM     21  C   UNL     1       2.484   4.966  20.642  0.00  0.00    +0.000 C 
ATOM     22  C   UNL     1       3.281   3.672  20.508  0.00  0.00    +0.000 C 
ENDBRANCH  17  18
ENDBRANCH  14  17
ENDBRANCH   9  12
BRANCH   1  24
ATOM     23  C   UNL     1       4.085   3.216  11.376  0.00  0.00    +0.000 C 
ATOM     24  O   UNL     1       5.380   2.776  11.766  0.00  0.00    +0.000 OA
ENDBRANCH   1  24
TORSDOF 4
ENDMDL
MODEL 2
REMARK VINA RESULT:      -8.0      4.585      6.337
REMARK  Name = 
REMARK  6 active torsions:
REMARK  status: ('A' for Active; 'I' for Inactive)
REMARK    1  A    between atoms: C_1  and  O_2
REMARK    2  A    between atoms: O_2  and  C_3
REMARK    3  A    between atoms: C_8  and  C_9
REMARK    4  A    between atoms: C_11  and  N_12
REMARK    5  A    between atoms: C_14  and  C_15
REMARK    6  A    between atoms: C_15  and  N_16
REMARK                            x       y       z     vdW  Elec       q    Type
REMARK                         _______ _______ _______ _____ _____    ______ ____
ROOT
ATOM      1  C   UNL     1       6.088   5.880  16.603  0.00  0.00    +0.000 A 
ATOM      2  C   UNL     1       6.197   4.551  16.241  0.00  0.00    +0.000 A 
ATOM      3  C   UNL     1       5.150   3.673  16.532  0.00  0.00    +0.000 A 
ATOM      4  C   UNL     1       3.996   4.081  17.182  0.00  0.00    +0.000 A 
ATOM      5  N   UNL     1       3.101   3.128  17.484  0.00  0.00    +0.000 NA
ATOM      6  C   UNL     1       1.992   3.454  18.178  0.00  0.00    +0.000 A 
ATOM      7  C   UNL     1       1.076   2.335  18.570  0.00  0.00    +0.000 C 
ATOM      8  C   UNL     1       1.716   4.754  18.562  0.00  0.00    +0.000 A 
ATOM      9  C   UNL     1       2.634   5.760  18.233  0.00  0.00    +0.000 A 
ATOM     10  C   UNL     1       3.838   5.436  17.538  0.00  0.00    +0.000 A 
ATOM     11  C   UNL     1       4.925   6.311  17.244  0.00  0.00    +0.000 A 
ENDROOT
BRANCH   9  12
ATOM     12  N   UNL     1       2.376   7.070  18.713  0.00  0.00    +0.000 N 
ATOM     13  C   UNL     1       2.206   8.210  17.957  0.00  0.00    +0.000 A 
ATOM     14  C   UNL     1       1.513   9.058  18.796  0.00  0.00    +0.000 A 
ATOM     15  N   UNL     1       1.566   8.558  20.067  0.00  0.00    +0.000 NA
ATOM     16  N   UNL     1       2.137   7.366  20.010  0.00  0.00    +0.000 NA
BRANCH  14  17
ATOM     17  C   UNL     1       0.732  10.289  18.481  0.00  0.00    +0.000 C 
BRANCH  17  18
ATOM     18  N   UNL     1      -0.685  10.220  18.882  0.00  0.00    +0.000 NA
ATOM     19  C   UNL     1      -1.643  10.164  17.773  0.00  0.00    +0.000 C 
ATOM     20  C   UNL     1      -2.193  11.572  17.631  0.00  0.00    +0.000 C 
ATOM     21  C   UNL     1      -2.178  12.109  19.049  0.00  0.00    +0.000 C 
ATOM     22  C   UNL     1      -1.138  11.274  19.792  0.00  0.00    +0.000 C 
ENDBRANCH  17  18
ENDBRANCH  14  17
ENDBRANCH   9  12
BRANCH   1  24
ATOM     23  C   UNL     1       7.570   7.415  17.628  0.00  0.00    +0.000 C 
ATOM     24  O   UNL     1       7.048   6.839  16.438  0.00  0.00    +0.000 OA
ENDBRANCH   1  24
TORSDOF 4
ENDMDL
MODEL 3
REMARK VINA RESULT:      -7.8      4.892      6.504
REMARK  Name = 
REMARK  6 active torsions:
REMARK  status: ('A' for Active; 'I' for Inactive)
REMARK    1  A    between atoms: C_1  and  O_2
REMARK    2  A    between atoms: O_2  and  C_3
REMARK    3  A    between atoms: C_8  and  C_9
REMARK    4  A    between atoms: C_11  and  N_12
REMARK    5  A    between atoms: C_14  and  C_15
REMARK    6  A    between atoms: C_15  and  N_16
REMARK                            x       y       z     vdW  Elec       q    Type
REMARK                         _______ _______ _______ _____ _____    ______ ____
ROOT
ATOM      1  C   UNL     1       6.411   6.291  16.744  0.00  0.00    +0.000 A 
ATOM      2  C   UNL     1       6.638   4.979  16.374  0.00  0.00    +0.000 A 
ATOM      3  C   UNL     1       5.638   4.026  16.581  0.00  0.00    +0.000 A 
ATOM      4  C   UNL     1       4.417   4.341  17.155  0.00  0.00    +0.000 A 
ATOM      5  N   UNL     1       3.574   3.323  17.383  0.00  0.00    +0.000 NA
ATOM      6  C   UNL     1       2.400   3.559  18.004  0.00  0.00    +0.000 A 
ATOM      7  C   UNL     1       1.541   2.372  18.319  0.00  0.00    +0.000 C 
ATOM      8  C   UNL     1       2.006   4.830  18.383  0.00  0.00    +0.000 A 
ATOM      9  C   UNL     1       2.871   5.903  18.131  0.00  0.00    +0.000 A 
ATOM     10  C   UNL     1       4.139   5.676  17.516  0.00  0.00    +0.000 A 
ATOM     11  C   UNL     1       5.179   6.629  17.308  0.00  0.00    +0.000 A 
ENDROOT
BRANCH   9  12
ATOM     12  N   UNL     1       2.489   7.183  18.607  0.00  0.00    +0.000 N 
ATOM     13  C   UNL     1       2.213   8.301  17.848  0.00  0.00    +0.000 A 
ATOM     14  C   UNL     1       1.441   9.081  18.684  0.00  0.00    +0.000 A 
ATOM     15  N   UNL     1       1.538   8.590  19.956  0.00  0.00    +0.000 NA
ATOM     16  N   UNL     1       2.220   7.457  19.903  0.00  0.00    +0.000 NA
BRANCH  14  17
ATOM     17  C   UNL     1       0.547  10.231  18.365  0.00  0.00    +0.000 C 
BRANCH  17  18
ATOM     18  N   UNL     1       0.722  11.393  19.256  0.00  0.00    +0.000 NA
ATOM     19  C   UNL     1      -0.477  12.216  19.446  0.00  0.00    +0.000 C 
ATOM     20  C   UNL     1      -0.299  13.421  18.541  0.00  0.00    +0.000 C 
ATOM     21  C   UNL     1       1.201  13.644  18.528  0.00  0.00    +0.000 C 
ATOM     22  C   UNL     1       1.818  12.300  18.906  0.00  0.00    +0.000 C 
ENDBRANCH  17  18
ENDBRANCH  14  17
ENDBRANCH   9  12
BRANCH   1  24
ATOM     23  C   UNL     1       7.814   7.816  17.888  0.00  0.00    +0.000 C 
ATOM     24  O   UNL     1       7.309   7.318  16.656  0.00  0.00    +0.000 OA
ENDBRANCH   1  24
TORSDOF 4
ENDMDL
MODEL 4
REMARK VINA RESULT:      -7.4      4.685      6.554
REMARK  Name = 
REMARK  6 active torsions:
REMARK  status: ('A' for Active; 'I' for Inactive)
REMARK    1  A    between atoms: C_1  and  O_2
REMARK    2  A    between atoms: O_2  and  C_3
REMARK    3  A    between atoms: C_8  and  C_9
REMARK    4  A    between atoms: C_11  and  N_12
REMARK    5  A    between atoms: C_14  and  C_15
REMARK    6  A    between atoms: C_15  and  N_16
REMARK                            x       y       z     vdW  Elec       q    Type
REMARK                         _______ _______ _______ _____ _____    ______ ____
ROOT
ATOM      1  C   UNL     1       2.009   2.885  19.394  0.00  0.00    +0.000 A 
ATOM      2  C   UNL     1       2.689   1.876  18.739  0.00  0.00    +0.000 A 
ATOM      3  C   UNL     1       3.676   2.208  17.808  0.00  0.00    +0.000 A 
ATOM      4  C   UNL     1       4.002   3.520  17.504  0.00  0.00    +0.000 A 
ATOM      5  N   UNL     1       4.904   3.711  16.530  0.00  0.00    +0.000 NA
ATOM      6  C   UNL     1       5.209   4.966  16.143  0.00  0.00    +0.000 A 
ATOM      7  C   UNL     1       6.149   5.117  14.986  0.00  0.00    +0.000 C 
ATOM      8  C   UNL     1       4.653   6.081  16.745  0.00  0.00    +0.000 A 
ATOM      9  C   UNL     1       3.725   5.893  17.778  0.00  0.00    +0.000 A 
ATOM     10  C   UNL     1       3.351   4.575  18.177  0.00  0.00    +0.000 A 
ATOM     11  C   UNL     1       2.337   4.213  19.113  0.00  0.00    +0.000 A 
ENDROOT
BRANCH   9  12
ATOM     12  N   UNL     1       3.101   7.045  18.320  0.00  0.00    +0.000 N 
ATOM     13  C   UNL     1       2.798   8.214  17.653  0.00  0.00    +0.000 A 
ATOM     14  C   UNL     1       1.804   8.781  18.425  0.00  0.00    +0.000 A 
ATOM     15  N   UNL     1       1.765   8.141  19.632  0.00  0.00    +0.000 NA
ATOM     16  N   UNL     1       2.597   7.112  19.572  0.00  0.00    +0.000 NA
BRANCH  14  17
ATOM     17  C   UNL     1       0.822   9.851  18.086  0.00  0.00    +0.000 C 
BRANCH  17  18
ATOM     18  N   UNL     1       0.086  10.381  19.248  0.00  0.00    +0.000 NA
ATOM     19  C   UNL     1      -1.341  10.631  19.018  0.00  0.00    +0.000 C 
ATOM     20  C   UNL     1      -1.467  12.127  18.794  0.00  0.00    +0.000 C 
ATOM     21  C   UNL     1      -0.370  12.714  19.660  0.00  0.00    +0.000 C 
ATOM     22  C   UNL     1       0.645  11.591  19.854  0.00  0.00    +0.000 C 
ENDBRANCH  17  18
ENDBRANCH  14  17
ENDBRANCH   9  12
BRANCH   1  24
ATOM     23  C   UNL     1       1.339   2.747  21.660  0.00  0.00    +0.000 C 
ATOM     24  O   UNL     1       0.985   2.718  20.284  0.00  0.00    +0.000 OA
ENDBRANCH   1  24
TORSDOF 4
ENDMDL
MODEL 5
REMARK VINA RESULT:      -7.4      4.580      6.524
REMARK  Name = 
REMARK  6 active torsions:
REMARK  status: ('A' for Active; 'I' for Inactive)
REMARK    1  A    between atoms: C_1  and  O_2
REMARK    2  A    between atoms: O_2  and  C_3
REMARK    3  A    between atoms: C_8  and  C_9
REMARK    4  A    between atoms: C_11  and  N_12
REMARK    5  A    between atoms: C_14  and  C_15
REMARK    6  A    between atoms: C_15  and  N_16
REMARK                            x       y       z     vdW  Elec       q    Type
REMARK                         _______ _______ _______ _____ _____    ______ ____
ROOT
ATOM      1  C   UNL     1       5.638   6.374  16.730  0.00  0.00    +0.000 A 
ATOM      2  C   UNL     1       5.750   5.136  16.126  0.00  0.00    +0.000 A 
ATOM      3  C   UNL     1       4.789   4.157  16.386  0.00  0.00    +0.000 A 
ATOM      4  C   UNL     1       3.719   4.372  17.239  0.00  0.00    +0.000 A 
ATOM      5  N   UNL     1       2.913   3.326  17.477  0.00  0.00    +0.000 NA
ATOM      6  C   UNL     1       1.896   3.457  18.354  0.00  0.00    +0.000 A 
ATOM      7  C   UNL     1       1.088   2.231  18.653  0.00  0.00    +0.000 C 
ATOM      8  C   UNL     1       1.622   4.651  18.995  0.00  0.00    +0.000 A 
ATOM      9  C   UNL     1       2.445   5.755  18.738  0.00  0.00    +0.000 A 
ATOM     10  C   UNL     1       3.555   5.633  17.849  0.00  0.00    +0.000 A 
ATOM     11  C   UNL     1       4.556   6.613  17.580  0.00  0.00    +0.000 A 
ENDROOT
BRANCH   9  12
ATOM     12  N   UNL     1       2.201   6.944  19.472  0.00  0.00    +0.000 N 
ATOM     13  C   UNL     1       1.926   8.194  18.957  0.00  0.00    +0.000 A 
ATOM     14  C   UNL     1       1.298   8.845  20.000  0.00  0.00    +0.000 A 
ATOM     15  N   UNL     1       1.492   8.126  21.147  0.00  0.00    +0.000 NA
ATOM     16  N   UNL     1       2.086   6.990  20.817  0.00  0.00    +0.000 NA
BRANCH  14  17
ATOM     17  C   UNL     1       0.457  10.075  19.991  0.00  0.00    +0.000 C 
BRANCH  17  18
ATOM     18  N   UNL     1       0.275  10.669  18.654  0.00  0.00    +0.000 NA
ATOM     19  C   UNL     1       0.490  12.118  18.584  0.00  0.00    +0.000 C 
ATOM     20  C   UNL     1      -0.894  12.742  18.581  0.00  0.00    +0.000 C 
ATOM     21  C   UNL     1      -1.749  11.718  17.861  0.00  0.00    +0.000 C 
ATOM     22  C   UNL     1      -1.009  10.391  18.007  0.00  0.00    +0.000 C 
ENDBRANCH  17  18
ENDBRANCH  14  17
ENDBRANCH   9  12
BRANCH   1  24
ATOM     23  C   UNL     1       7.525   7.486  17.627  0.00  0.00    +0.000 C 
ATOM     24  O   UNL     1       6.526   7.406  16.618  0.00  0.00    +0.000 OA
ENDBRANCH   1  24
TORSDOF 4
ENDMDL
MODEL 6
REMARK VINA RESULT:      -7.3      6.481      8.896
REMARK  Name = 
REMARK  6 active torsions:
REMARK  status: ('A' for Active; 'I' for Inactive)
REMARK    1  A    between atoms: C_1  and  O_2
REMARK    2  A    between atoms: O_2  and  C_3
REMARK    3  A    between atoms: C_8  and  C_9
REMARK    4  A    between atoms: C_11  and  N_12
REMARK    5  A    between atoms: C_14  and  C_15
REMARK    6  A    between atoms: C_15  and  N_16
REMARK                            x       y       z     vdW  Elec       q    Type
REMARK                         _______ _______ _______ _____ _____    ______ ____
ROOT
ATOM      1  C   UNL     1      -2.411  10.325  16.749  0.00  0.00    +0.000 A 
ATOM      2  C   UNL     1      -3.351  11.203  17.253  0.00  0.00    +0.000 A 
ATOM      3  C   UNL     1      -3.138  11.795  18.500  0.00  0.00    +0.000 A 
ATOM      4  C   UNL     1      -2.015  11.530  19.267  0.00  0.00    +0.000 A 
ATOM      5  N   UNL     1      -1.967  12.090  20.486  0.00  0.00    +0.000 NA
ATOM      6  C   UNL     1      -0.932  11.811  21.304  0.00  0.00    +0.000 A 
ATOM      7  C   UNL     1      -0.979  12.388  22.687  0.00  0.00    +0.000 C 
ATOM      8  C   UNL     1       0.115  10.994  20.920  0.00  0.00    +0.000 A 
ATOM      9  C   UNL     1       0.085  10.421  19.642  0.00  0.00    +0.000 A 
ATOM     10  C   UNL     1      -1.020  10.662  18.772  0.00  0.00    +0.000 A 
ATOM     11  C   UNL     1      -1.265  10.059  17.502  0.00  0.00    +0.000 A 
ENDROOT
BRANCH   9  12
ATOM     12  N   UNL     1       1.123   9.516  19.301  0.00  0.00    +0.000 N 
ATOM     13  C   UNL     1       1.546   8.427  20.035  0.00  0.00    +0.000 A 
ATOM     14  C   UNL     1       2.174   7.629  19.100  0.00  0.00    +0.000 A 
ATOM     15  N   UNL     1       2.384   8.362  17.966  0.00  0.00    +0.000 NA
ATOM     16  N   UNL     1       1.778   9.529  18.120  0.00  0.00    +0.000 NA
BRANCH  14  17
ATOM     17  C   UNL     1       2.537   6.184  19.166  0.00  0.00    +0.000 C 
BRANCH  17  18
ATOM     18  N   UNL     1       2.585   5.517  17.852  0.00  0.00    +0.000 NA
ATOM     19  C   UNL     1       1.659   4.391  17.693  0.00  0.00    +0.000 C 
ATOM     20  C   UNL     1       2.495   3.138  17.884  0.00  0.00    +0.000 C 
ATOM     21  C   UNL     1       3.857   3.530  17.347  0.00  0.00    +0.000 C 
ATOM     22  C   UNL     1       3.907   5.053  17.425  0.00  0.00    +0.000 C 
ENDBRANCH  17  18
ENDBRANCH  14  17
ENDBRANCH   9  12
BRANCH   1  24
ATOM     23  C   UNL     1      -3.409  10.153  14.611  0.00  0.00    +0.000 C 
ATOM     24  O   UNL     1      -2.508   9.629  15.577  0.00  0.00    +0.000 OA
ENDBRANCH   1  24
TORSDOF 4
ENDMDL
MODEL 7
REMARK VINA RESULT:      -7.3      1.186      1.347
REMARK  Name = 
REMARK  6 active torsions:
REMARK  status: ('A' for Active; 'I' for Inactive)
REMARK    1  A    between atoms: C_1  and  O_2
REMARK    2  A    between atoms: O_2  and  C_3
REMARK    3  A    between atoms: C_8  and  C_9
REMARK    4  A    between atoms: C_11  and  N_12
REMARK    5  A    between atoms: C_14  and  C_15
REMARK    6  A    between atoms: C_15  and  N_16
REMARK                            x       y       z     vdW  Elec       q    Type
REMARK                         _______ _______ _______ _____ _____    ______ ____
ROOT
ATOM      1  C   UNL     1       5.519   3.910  13.295  0.00  0.00    +0.000 A 
ATOM      2  C   UNL     1       6.839   4.277  13.113  0.00  0.00    +0.000 A 
ATOM      3  C   UNL     1       7.519   4.925  14.147  0.00  0.00    +0.000 A 
ATOM      4  C   UNL     1       6.918   5.227  15.358  0.00  0.00    +0.000 A 
ATOM      5  N   UNL     1       7.647   5.930  16.238  0.00  0.00    +0.000 NA
ATOM      6  C   UNL     1       7.091   6.313  17.406  0.00  0.00    +0.000 A 
ATOM      7  C   UNL     1       7.918   7.177  18.307  0.00  0.00    +0.000 C 
ATOM      8  C   UNL     1       5.796   5.972  17.755  0.00  0.00    +0.000 A 
ATOM      9  C   UNL     1       5.034   5.220  16.852  0.00  0.00    +0.000 A 
ATOM     10  C   UNL     1       5.582   4.840  15.590  0.00  0.00    +0.000 A 
ATOM     11  C   UNL     1       4.903   4.192  14.516  0.00  0.00    +0.000 A 
ENDROOT
BRANCH   9  12
ATOM     12  N   UNL     1       3.681   4.958  17.190  0.00  0.00    +0.000 N 
ATOM     13  C   UNL     1       3.011   3.760  17.054  0.00  0.00    +0.000 A 
ATOM     14  C   UNL     1       1.960   3.872  17.941  0.00  0.00    +0.000 A 
ATOM     15  N   UNL     1       1.846   5.178  18.325  0.00  0.00    +0.000 NA
ATOM     16  N   UNL     1       2.876   5.840  17.821  0.00  0.00    +0.000 NA
BRANCH  14  17
ATOM     17  C   UNL     1       1.081   2.816  18.521  0.00  0.00    +0.000 C 
BRANCH  17  18
ATOM     18  N   UNL     1       1.651   2.140  19.700  0.00  0.00    +0.000 NA
ATOM     19  C   UNL     1       1.205   2.667  20.994  0.00  0.00    +0.000 C 
ATOM     20  C   UNL     1       2.332   3.556  21.489  0.00  0.00    +0.000 C 
ATOM     21  C   UNL     1       3.580   2.895  20.939  0.00  0.00    +0.000 C 
ATOM     22  C   UNL     1       3.113   2.068  19.744  0.00  0.00    +0.000 C 
ENDBRANCH  17  18
ENDBRANCH  14  17
ENDBRANCH   9  12
BRANCH   1  24
ATOM     23  C   UNL     1       5.324   2.346  11.529  0.00  0.00    +0.000 C 
ATOM     24  O   UNL     1       4.712   3.324  12.361  0.00  0.00    +0.000 OA
ENDBRANCH   1  24
TORSDOF 4
ENDMDL
MODEL 8
REMARK VINA RESULT:      -7.3      4.721      6.805
REMARK  Name = 
REMARK  6 active torsions:
REMARK  status: ('A' for Active; 'I' for Inactive)
REMARK    1  A    between atoms: C_1  and  O_2
REMARK    2  A    between atoms: O_2  and  C_3
REMARK    3  A    between atoms: C_8  and  C_9
REMARK    4  A    between atoms: C_11  and  N_12
REMARK    5  A    between atoms: C_14  and  C_15
REMARK    6  A    between atoms: C_15  and  N_16
REMARK                            x       y       z     vdW  Elec       q    Type
REMARK                         _______ _______ _______ _____ _____    ______ ____
ROOT
ATOM      1  C   UNL     1       5.261   5.968  17.145  0.00  0.00    +0.000 A 
ATOM      2  C   UNL     1       5.436   4.598  17.118  0.00  0.00    +0.000 A 
ATOM      3  C   UNL     1       4.595   3.785  17.883  0.00  0.00    +0.000 A 
ATOM      4  C   UNL     1       3.587   4.300  18.682  0.00  0.00    +0.000 A 
ATOM      5  N   UNL     1       2.906   3.424  19.437  0.00  0.00    +0.000 NA
ATOM      6  C   UNL     1       1.961   3.875  20.287  0.00  0.00    +0.000 A 
ATOM      7  C   UNL     1       1.299   2.865  21.173  0.00  0.00    +0.000 C 
ATOM      8  C   UNL     1       1.633   5.216  20.384  0.00  0.00    +0.000 A 
ATOM      9  C   UNL     1       2.324   6.135  19.585  0.00  0.00    +0.000 A 
ATOM     10  C   UNL     1       3.360   5.691  18.710  0.00  0.00    +0.000 A 
ATOM     11  C   UNL     1       4.239   6.503  17.932  0.00  0.00    +0.000 A 
ENDROOT
BRANCH   9  12
ATOM     12  N   UNL     1       2.036   7.512  19.765  0.00  0.00    +0.000 N 
ATOM     13  C   UNL     1       2.067   8.498  18.800  0.00  0.00    +0.000 A 
ATOM     14  C   UNL     1       1.261   9.490  19.321  0.00  0.00    +0.000 A 
ATOM     15  N   UNL     1       1.043   9.229  20.645  0.00  0.00    +0.000 NA
ATOM     16  N   UNL     1       1.562   8.041  20.914  0.00  0.00    +0.000 NA
BRANCH  14  17
ATOM     17  C   UNL     1       0.612  10.649  18.644  0.00  0.00    +0.000 C 
BRANCH  17  18
ATOM     18  N   UNL     1      -0.854  10.685  18.791  0.00  0.00    +0.000 NA
ATOM     19  C   UNL     1      -1.568   9.559  18.179  0.00  0.00    +0.000 C 
ATOM     20  C   UNL     1      -2.114  10.082  16.862  0.00  0.00    +0.000 C 
ATOM     21  C   UNL     1      -2.396  11.545  17.146  0.00  0.00    +0.000 C 
ATOM     22  C   UNL     1      -1.507  11.912  18.330  0.00  0.00    +0.000 C 
ENDBRANCH  17  18
ENDBRANCH  14  17
ENDBRANCH   9  12
BRANCH   1  24
ATOM     23  C   UNL     1       7.141   7.404  17.232  0.00  0.00    +0.000 C 
ATOM     24  O   UNL     1       6.036   6.890  16.499  0.00  0.00    +0.000 OA
ENDBRANCH   1  24
TORSDOF 4
ENDMDL
MODEL 9
REMARK VINA RESULT:      -7.3      6.631      8.917
REMARK  Name = 
REMARK  6 active torsions:
REMARK  status: ('A' for Active; 'I' for Inactive)
REMARK    1  A    between atoms: C_1  and  O_2
REMARK    2  A    between atoms: O_2  and  C_3
REMARK    3  A    between atoms: C_8  and  C_9
REMARK    4  A    between atoms: C_11  and  N_12
REMARK    5  A    between atoms: C_14  and  C_15
REMARK    6  A    between atoms: C_15  and  N_16
REMARK                            x       y       z     vdW  Elec       q    Type
REMARK                         _______ _______ _______ _____ _____    ______ ____
ROOT
ATOM      1  C   UNL     1      -2.756  10.209  16.797  0.00  0.00    +0.000 A 
ATOM      2  C   UNL     1      -3.680  11.050  17.388  0.00  0.00    +0.000 A 
ATOM      3  C   UNL     1      -3.340  11.725  18.563  0.00  0.00    +0.000 A 
ATOM      4  C   UNL     1      -2.104  11.581  19.173  0.00  0.00    +0.000 A 
ATOM      5  N   UNL     1      -1.929  12.212  20.344  0.00  0.00    +0.000 NA
ATOM      6  C   UNL     1      -0.772  12.051  21.018  0.00  0.00    +0.000 A 
ATOM      7  C   UNL     1      -0.669  12.701  22.364  0.00  0.00    +0.000 C 
ATOM      8  C   UNL     1       0.270  11.286  20.526  0.00  0.00    +0.000 A 
ATOM      9  C   UNL     1       0.105  10.640  19.294  0.00  0.00    +0.000 A 
ATOM     10  C   UNL     1      -1.126  10.756  18.581  0.00  0.00    +0.000 A 
ATOM     11  C   UNL     1      -1.500  10.066  17.390  0.00  0.00    +0.000 A 
ENDROOT
BRANCH   9  12
ATOM     12  N   UNL     1       1.150   9.790  18.851  0.00  0.00    +0.000 N 
ATOM     13  C   UNL     1       1.575   8.620  19.447  0.00  0.00    +0.000 A 
ATOM     14  C   UNL     1       2.213   7.947  18.425  0.00  0.00    +0.000 A 
ATOM     15  N   UNL     1       2.426   8.817  17.392  0.00  0.00    +0.000 NA
ATOM     16  N   UNL     1       1.813   9.953  17.686  0.00  0.00    +0.000 NA
BRANCH  14  17
ATOM     17  C   UNL     1       2.584   6.508  18.312  0.00  0.00    +0.000 C 
BRANCH  17  18
ATOM     18  N   UNL     1       3.191   5.947  19.533  0.00  0.00    +0.000 NA
ATOM     19  C   UNL     1       4.477   5.271  19.333  0.00  0.00    +0.000 C 
ATOM     20  C   UNL     1       4.166   3.785  19.317  0.00  0.00    +0.000 C 
ATOM     21  C   UNL     1       2.987   3.655  20.262  0.00  0.00    +0.000 C 
ATOM     22  C   UNL     1       2.340   5.036  20.303  0.00  0.00    +0.000 C 
ENDBRANCH  17  18
ENDBRANCH  14  17
ENDBRANCH   9  12
BRANCH   1  24
ATOM     23  C   UNL     1      -3.057  10.143  14.451  0.00  0.00    +0.000 C 
ATOM     24  O   UNL     1      -2.963   9.443  15.685  0.00  0.00    +0.000 OA
ENDBRANCH   1  24
TORSDOF 4
ENDMDL
