MODEL 1
REMARK VINA RESULT:      -7.7      0.000      0.000
REMARK  Name = 
REMARK  6 active torsions:
REMARK  status: ('A' for Active; 'I' for Inactive)
REMARK    1  A    between atoms: C_1  and  O_2
REMARK    2  A    between atoms: O_2  and  C_3
REMARK    3  A    between atoms: C_8  and  C_9
REMARK    4  A    between atoms: C_9  and  C_10
REMARK    5  A    between atoms: C_16  and  O_17
REMARK    6  A    between atoms: O_17  and  C_18
REMARK                            x       y       z     vdW  Elec       q    Type
REMARK                         _______ _______ _______ _____ _____    ______ ____
ROOT
ATOM      1  C   UNL     1       6.231   5.335  15.645  0.00  0.00    +0.000 A 
ATOM      2  C   UNL     1       5.124   4.499  15.879  0.00  0.00    +0.000 A 
ATOM      3  C   UNL     1       4.394   4.573  17.072  0.00  0.00    +0.000 A 
ATOM      4  C   UNL     1       3.203   3.852  17.238  0.00  0.00    +0.000 A 
ATOM      5  C   UNL     1       2.466   3.953  18.417  0.00  0.00    +0.000 A 
ATOM      6  C   UNL     1       2.931   4.742  19.477  0.00  0.00    +0.000 A 
ATOM      7  C   UNL     1       4.124   5.462  19.309  0.00  0.00    +0.000 A 
ATOM      8  C   UNL     1       4.854   5.400  18.112  0.00  0.00    +0.000 A 
ATOM      9  C   UNL     1       6.030   6.144  17.909  0.00  0.00    +0.000 A 
ATOM     10  C   UNL     1       6.713   6.140  16.681  0.00  0.00    +0.000 A 
ENDROOT
BRANCH   1  12
ATOM     11  C   UNL     1       6.596   4.180  13.609  0.00  0.00    +0.000 C 
ATOM     12  O   UNL     1       6.848   5.332  14.422  0.00  0.00    +0.000 OA
ENDBRANCH   1  12
BRANCH  10  13
ATOM     13  O   UNL     1       7.785   6.990  16.686  0.00  0.00    +0.000 OA
ATOM     14  C   UNL     1       7.778   8.107  17.560  0.00  0.00    +0.000 C 
ENDBRANCH  10  13
BRANCH   6  15
ATOM     15  C   UNL     1       2.185   4.773  20.790  0.00  0.00    +0.000 C 
BRANCH  15  16
ATOM     16  C   UNL     1       1.799   3.451  21.426  0.00  0.00    +0.000 C 
ATOM     17  N   UNL     1       0.667   2.822  21.011  0.00  0.00    +0.000 N 
ATOM     18  O   UNL     1       2.498   2.925  22.292  0.00  0.00    +0.000 OA
ATOM     19  H   UNL     1       0.079   3.168  20.264  0.00  0.00    +0.000 HD
ATOM     20  H   UNL     1       0.439   1.937  21.428  0.00  0.00    +0.000 HD
ENDBRANCH  15  16
ENDBRANCH   6  15
TORSDOF 4
ENDMDL
MODEL 2
REMARK VINA RESULT:      -7.2      1.463      3.040
REMARK  Name = 
REMARK  6 active torsions:
REMARK  status: ('A' for Active; 'I' for Inactive)
REMARK    1  A    between atoms: C_1  and  O_2
REMARK    2  A    between atoms: O_2  and  C_3
REMARK    3  A    between atoms: C_8  and  C_9
REMARK    4  A    between atoms: C_9  and  C_10
REMARK    5  A    between atoms: C_16  and  O_17
REMARK    6  A    between atoms: O_17  and  C_18
REMARK                            x       y       z     vdW  Elec       q    Type
REMARK                         _______ _______ _______ _____ _____    ______ ____
ROOT
ATOM      1  C   UNL     1       6.910   6.330  16.851  0.00  0.00    +0.000 A 
ATOM      2  C   UNL     1       6.046   6.391  17.960  0.00  0.00    +0.000 A 
ATOM      3  C   UNL     1       5.173   5.339  18.263  0.00  0.00    +0.000 A 
ATOM      4  C   UNL     1       4.429   5.335  19.452  0.00  0.00    +0.000 A 
ATOM      5  C   UNL     1       3.583   4.271  19.761  0.00  0.00    +0.000 A 
ATOM      6  C   UNL     1       3.426   3.207  18.862  0.00  0.00    +0.000 A 
ATOM      7  C   UNL     1       4.171   3.214  17.673  0.00  0.00    +0.000 A 
ATOM      8  C   UNL     1       5.056   4.260  17.369  0.00  0.00    +0.000 A 
ATOM      9  C   UNL     1       5.841   4.266  16.203  0.00  0.00    +0.000 A 
ATOM     10  C   UNL     1       6.783   5.275  15.942  0.00  0.00    +0.000 A 
ENDROOT
BRANCH   1  12
ATOM     11  C   UNL     1       7.928   8.299  17.686  0.00  0.00    +0.000 C 
ATOM     12  O   UNL     1       7.842   7.313  16.651  0.00  0.00    +0.000 OA
ENDBRANCH   1  12
BRANCH  10  13
ATOM     13  O   UNL     1       7.483   5.041  14.790  0.00  0.00    +0.000 OA
ATOM     14  C   UNL     1       6.800   4.523  13.660  0.00  0.00    +0.000 C 
ENDBRANCH  10  13
BRANCH   6  15
ATOM     15  C   UNL     1       2.435   2.105  19.151  0.00  0.00    +0.000 C 
BRANCH  15  16
ATOM     16  C   UNL     1       0.967   2.471  19.260  0.00  0.00    +0.000 C 
ATOM     17  N   UNL     1       0.525   3.110  20.376  0.00  0.00    +0.000 N 
ATOM     18  O   UNL     1       0.173   2.222  18.353  0.00  0.00    +0.000 OA
ATOM     19  H   UNL     1       1.133   3.396  21.132  0.00  0.00    +0.000 HD
ATOM     20  H   UNL     1      -0.447   3.364  20.421  0.00  0.00    +0.000 HD
ENDBRANCH  15  16
ENDBRANCH   6  15
TORSDOF 4
ENDMDL
MODEL 3
REMARK VINA RESULT:      -7.1      3.078      6.663
REMARK  Name = 
REMARK  6 active torsions:
REMARK  status: ('A' for Active; 'I' for Inactive)
REMARK    1  A    between atoms: C_1  and  O_2
REMARK    2  A    between atoms: O_2  and  C_3
REMARK    3  A    between atoms: C_8  and  C_9
REMARK    4  A    between atoms: C_9  and  C_10
REMARK    5  A    between atoms: C_16  and  O_17
REMARK    6  A    between atoms: O_17  and  C_18
REMARK                            x       y       z     vdW  Elec       q    Type
REMARK                         _______ _______ _______ _____ _____    ______ ____
ROOT
ATOM      1  C   UNL     1       1.831   6.293  20.257  0.00  0.00    +0.000 A 
ATOM      2  C   UNL     1       2.674   7.028  19.405  0.00  0.00    +0.000 A 
ATOM      3  C   UNL     1       3.391   6.406  18.374  0.00  0.00    +0.000 A 
ATOM      4  C   UNL     1       4.105   7.160  17.432  0.00  0.00    +0.000 A 
ATOM      5  C   UNL     1       4.793   6.536  16.392  0.00  0.00    +0.000 A 
ATOM      6  C   UNL     1       4.821   5.138  16.301  0.00  0.00    +0.000 A 
ATOM      7  C   UNL     1       4.107   4.386  17.245  0.00  0.00    +0.000 A 
ATOM      8  C   UNL     1       3.377   5.004  18.273  0.00  0.00    +0.000 A 
ATOM      9  C   UNL     1       2.623   4.270  19.206  0.00  0.00    +0.000 A 
ATOM     10  C   UNL     1       1.831   4.897  20.183  0.00  0.00    +0.000 A 
ENDROOT
BRANCH   1  12
ATOM     11  C   UNL     1       1.199   8.364  21.218  0.00  0.00    +0.000 C 
ATOM     12  O   UNL     1       1.045   6.941  21.173  0.00  0.00    +0.000 OA
ENDBRANCH   1  12
BRANCH  10  13
ATOM     13  O   UNL     1       1.128   3.993  20.933  0.00  0.00    +0.000 OA
ATOM     14  C   UNL     1       1.560   2.643  20.972  0.00  0.00    +0.000 C 
ENDBRANCH  10  13
BRANCH   6  15
ATOM     15  C   UNL     1       5.648   4.460  15.234  0.00  0.00    +0.000 C 
BRANCH  15  16
ATOM     16  C   UNL     1       7.134   4.756  15.183  0.00  0.00    +0.000 C 
ATOM     17  N   UNL     1       7.657   5.332  14.068  0.00  0.00    +0.000 N 
ATOM     18  O   UNL     1       7.872   4.507  16.136  0.00  0.00    +0.000 OA
ATOM     19  H   UNL     1       7.100   5.616  13.273  0.00  0.00    +0.000 HD
ATOM     20  H   UNL     1       8.641   5.540  14.061  0.00  0.00    +0.000 HD
ENDBRANCH  15  16
ENDBRANCH   6  15
TORSDOF 4
ENDMDL
MODEL 4
REMARK VINA RESULT:      -6.9      1.036      1.081
REMARK  Name = 
REMARK  6 active torsions:
REMARK  status: ('A' for Active; 'I' for Inactive)
REMARK    1  A    between atoms: C_1  and  O_2
REMARK    2  A    between atoms: O_2  and  C_3
REMARK    3  A    between atoms: C_8  and  C_9
REMARK    4  A    between atoms: C_9  and  C_10
REMARK    5  A    between atoms: C_16  and  O_17
REMARK    6  A    between atoms: O_17  and  C_18
REMARK                            x       y       z     vdW  Elec       q    Type
REMARK                         _______ _______ _______ _____ _____    ______ ____
ROOT
ATOM      1  C   UNL     1       6.443   5.361  15.762  0.00  0.00    +0.000 A 
ATOM      2  C   UNL     1       5.595   4.242  15.851  0.00  0.00    +0.000 A 
ATOM      3  C   UNL     1       4.521   4.211  16.750  0.00  0.00    +0.000 A 
ATOM      4  C   UNL     1       3.588   3.164  16.728  0.00  0.00    +0.000 A 
ATOM      5  C   UNL     1       2.506   3.155  17.606  0.00  0.00    +0.000 A 
ATOM      6  C   UNL     1       2.359   4.170  18.560  0.00  0.00    +0.000 A 
ATOM      7  C   UNL     1       3.293   5.216  18.581  0.00  0.00    +0.000 A 
ATOM      8  C   UNL     1       4.366   5.258  17.676  0.00  0.00    +0.000 A 
ATOM      9  C   UNL     1       5.290   6.317  17.654  0.00  0.00    +0.000 A 
ATOM     10  C   UNL     1       6.314   6.394  16.695  0.00  0.00    +0.000 A 
ENDROOT
BRANCH   1  12
ATOM     11  C   UNL     1       7.131   4.655  13.607  0.00  0.00    +0.000 C 
ATOM     12  O   UNL     1       7.405   5.418  14.788  0.00  0.00    +0.000 OA
ENDBRANCH   1  12
BRANCH  10  13
ATOM     13  O   UNL     1       7.048   7.543  16.816  0.00  0.00    +0.000 OA
ATOM     14  C   UNL     1       7.912   7.697  17.930  0.00  0.00    +0.000 C 
ENDBRANCH  10  13
BRANCH   6  15
ATOM     15  C   UNL     1       1.243   4.107  19.576  0.00  0.00    +0.000 C 
BRANCH  15  16
ATOM     16  C   UNL     1       1.582   3.671  20.988  0.00  0.00    +0.000 C 
ATOM     17  N   UNL     1       2.427   4.434  21.731  0.00  0.00    +0.000 N 
ATOM     18  O   UNL     1       1.094   2.656  21.483  0.00  0.00    +0.000 OA
ATOM     19  H   UNL     1       2.818   5.310  21.409  0.00  0.00    +0.000 HD
ATOM     20  H   UNL     1       2.623   4.141  22.673  0.00  0.00    +0.000 HD
ENDBRANCH  15  16
ENDBRANCH   6  15
TORSDOF 4
ENDMDL
MODEL 5
REMARK VINA RESULT:      -6.9      1.383      2.924
REMARK  Name = 
REMARK  6 active torsions:
REMARK  status: ('A' for Active; 'I' for Inactive)
REMARK    1  A    between atoms: C_1  and  O_2
REMARK    2  A    between atoms: O_2  and  C_3
REMARK    3  A    between atoms: C_8  and  C_9
REMARK    4  A    between atoms: C_9  and  C_10
REMARK    5  A    between atoms: C_16  and  O_17
REMARK    6  A    between atoms: O_17  and  C_18
REMARK                            x       y       z     vdW  Elec       q    Type
REMARK                         _______ _______ _______ _____ _____    ______ ____
ROOT
ATOM      1  C   UNL     1       6.772   6.636  16.781  0.00  0.00    +0.000 A 
ATOM      2  C   UNL     1       5.673   7.049  17.555  0.00  0.00    +0.000 A 
ATOM      3  C   UNL     1       4.555   6.223  17.732  0.00  0.00    +0.000 A 
ATOM      4  C   UNL     1       3.533   6.571  18.628  0.00  0.00    +0.000 A 
ATOM      5  C   UNL     1       2.437   5.731  18.820  0.00  0.00    +0.000 A 
ATOM      6  C   UNL     1       2.316   4.545  18.084  0.00  0.00    +0.000 A 
ATOM      7  C   UNL     1       3.339   4.200  17.188  0.00  0.00    +0.000 A 
ATOM      8  C   UNL     1       4.467   5.018  17.015  0.00  0.00    +0.000 A 
ATOM      9  C   UNL     1       5.522   4.671  16.152  0.00  0.00    +0.000 A 
ATOM     10  C   UNL     1       6.684   5.452  16.042  0.00  0.00    +0.000 A 
ENDROOT
BRANCH   1  12
ATOM     11  C   UNL     1       7.977   8.458  17.698  0.00  0.00    +0.000 C 
ATOM     12  O   UNL     1       7.904   7.406  16.729  0.00  0.00    +0.000 OA
ENDBRANCH   1  12
BRANCH  10  13
ATOM     13  O   UNL     1       7.606   4.888  15.203  0.00  0.00    +0.000 OA
ATOM     14  C   UNL     1       7.309   4.785  13.820  0.00  0.00    +0.000 C 
ENDBRANCH  10  13
BRANCH   6  15
ATOM     15  C   UNL     1       1.081   3.686  18.220  0.00  0.00    +0.000 C 
BRANCH  15  16
ATOM     16  C   UNL     1       1.071   2.608  19.287  0.00  0.00    +0.000 C 
ATOM     17  N   UNL     1       1.504   1.359  18.971  0.00  0.00    +0.000 N 
ATOM     18  O   UNL     1       0.701   2.846  20.437  0.00  0.00    +0.000 OA
ATOM     19  H   UNL     1       1.876   1.111  18.063  0.00  0.00    +0.000 HD
ATOM     20  H   UNL     1       1.511   0.664  19.696  0.00  0.00    +0.000 HD
ENDBRANCH  15  16
ENDBRANCH   6  15
TORSDOF 4
ENDMDL
MODEL 6
REMARK VINA RESULT:      -6.9      1.355      1.399
REMARK  Name = 
REMARK  6 active torsions:
REMARK  status: ('A' for Active; 'I' for Inactive)
REMARK    1  A    between atoms: C_1  and  O_2
REMARK    2  A    between atoms: O_2  and  C_3
REMARK    3  A    between atoms: C_8  and  C_9
REMARK    4  A    between atoms: C_9  and  C_10
REMARK    5  A    between atoms: C_16  and  O_17
REMARK    6  A    between atoms: O_17  and  C_18
REMARK                            x       y       z     vdW  Elec       q    Type
REMARK                         _______ _______ _______ _____ _____    ______ ____
ROOT
ATOM      1  C   UNL     1       6.310   4.708  16.472  0.00  0.00    +0.000 A 
ATOM      2  C   UNL     1       5.098   4.026  16.261  0.00  0.00    +0.000 A 
ATOM      3  C   UNL     1       4.149   3.893  17.284  0.00  0.00    +0.000 A 
ATOM      4  C   UNL     1       2.881   3.351  17.028  0.00  0.00    +0.000 A 
ATOM      5  C   UNL     1       1.932   3.248  18.044  0.00  0.00    +0.000 A 
ATOM      6  C   UNL     1       2.248   3.641  19.351  0.00  0.00    +0.000 A 
ATOM      7  C   UNL     1       3.517   4.181  19.604  0.00  0.00    +0.000 A 
ATOM      8  C   UNL     1       4.468   4.328  18.582  0.00  0.00    +0.000 A 
ATOM      9  C   UNL     1       5.731   4.903  18.807  0.00  0.00    +0.000 A 
ATOM     10  C   UNL     1       6.648   5.120  17.765  0.00  0.00    +0.000 A 
ENDROOT
BRANCH   1  12
ATOM     11  C   UNL     1       6.667   4.554  14.135  0.00  0.00    +0.000 C 
ATOM     12  O   UNL     1       7.162   4.936  15.424  0.00  0.00    +0.000 OA
ENDBRANCH   1  12
BRANCH  10  13
ATOM     13  O   UNL     1       7.779   5.758  18.199  0.00  0.00    +0.000 OA
ATOM     14  C   UNL     1       8.058   5.800  19.588  0.00  0.00    +0.000 C 
ENDBRANCH  10  13
BRANCH   6  15
ATOM     15  C   UNL     1       1.254   3.436  20.470  0.00  0.00    +0.000 C 
BRANCH  15  16
ATOM     16  C   UNL     1       1.719   2.711  21.718  0.00  0.00    +0.000 C 
ATOM     17  N   UNL     1       0.803   2.354  22.657  0.00  0.00    +0.000 N 
ATOM     18  O   UNL     1       2.903   2.419  21.888  0.00  0.00    +0.000 OA
ATOM     19  H   UNL     1      -0.191   2.510  22.554  0.00  0.00    +0.000 HD
ATOM     20  H   UNL     1       1.128   1.855  23.467  0.00  0.00    +0.000 HD
ENDBRANCH  15  16
ENDBRANCH   6  15
TORSDOF 4
ENDMDL
MODEL 7
REMARK VINA RESULT:      -6.9      1.085      1.121
REMARK  Name = 
REMARK  6 active torsions:
REMARK  status: ('A' for Active; 'I' for Inactive)
REMARK    1  A    between atoms: C_1  and  O_2
REMARK    2  A    between atoms: O_2  and  C_3
REMARK    3  A    between atoms: C_8  and  C_9
REMARK    4  A    between atoms: C_9  and  C_10
REMARK    5  A    between atoms: C_16  and  O_17
REMARK    6  A    between atoms: O_17  and  C_18
REMARK                            x       y       z     vdW  Elec       q    Type
REMARK                         _______ _______ _______ _____ _____    ______ ____
ROOT
ATOM      1  C   UNL     1       6.318   5.070  15.522  0.00  0.00    +0.000 A 
ATOM      2  C   UNL     1       5.397   4.030  15.739  0.00  0.00    +0.000 A 
ATOM      3  C   UNL     1       4.838   3.804  17.004  0.00  0.00    +0.000 A 
ATOM      4  C   UNL     1       3.806   2.871  17.183  0.00  0.00    +0.000 A 
ATOM      5  C   UNL     1       3.235   2.672  18.439  0.00  0.00    +0.000 A 
ATOM      6  C   UNL     1       3.716   3.369  19.554  0.00  0.00    +0.000 A 
ATOM      7  C   UNL     1       4.748   4.302  19.373  0.00  0.00    +0.000 A 
ATOM      8  C   UNL     1       5.305   4.540  18.106  0.00  0.00    +0.000 A 
ATOM      9  C   UNL     1       6.312   5.499  17.896  0.00  0.00    +0.000 A 
ATOM     10  C   UNL     1       6.810   5.790  16.615  0.00  0.00    +0.000 A 
ENDROOT
BRANCH   1  12
ATOM     11  C   UNL     1       6.667   4.265  13.321  0.00  0.00    +0.000 C 
ATOM     12  O   UNL     1       6.752   5.350  14.252  0.00  0.00    +0.000 OA
ENDBRANCH   1  12
BRANCH  10  13
ATOM     13  O   UNL     1       7.729   6.803  16.638  0.00  0.00    +0.000 OA
ATOM     14  C   UNL     1       7.646   7.788  17.655  0.00  0.00    +0.000 C 
ENDBRANCH  10  13
BRANCH   6  15
ATOM     15  C   UNL     1       3.164   3.080  20.930  0.00  0.00    +0.000 C 
BRANCH  15  16
ATOM     16  C   UNL     1       1.696   3.361  21.187  0.00  0.00    +0.000 C 
ATOM     17  N   UNL     1       1.015   2.575  22.062  0.00  0.00    +0.000 N 
ATOM     18  O   UNL     1       1.114   4.296  20.638  0.00  0.00    +0.000 OA
ATOM     19  H   UNL     1       1.445   1.827  22.592  0.00  0.00    +0.000 HD
ATOM     20  H   UNL     1       0.048   2.789  22.236  0.00  0.00    +0.000 HD
ENDBRANCH  15  16
ENDBRANCH   6  15
TORSDOF 4
ENDMDL
MODEL 8
REMARK VINA RESULT:      -6.8      2.837      6.608
REMARK  Name = 
REMARK  6 active torsions:
REMARK  status: ('A' for Active; 'I' for Inactive)
REMARK    1  A    between atoms: C_1  and  O_2
REMARK    2  A    between atoms: O_2  and  C_3
REMARK    3  A    between atoms: C_8  and  C_9
REMARK    4  A    between atoms: C_9  and  C_10
REMARK    5  A    between atoms: C_16  and  O_17
REMARK    6  A    between atoms: O_17  and  C_18
REMARK                            x       y       z     vdW  Elec       q    Type
REMARK                         _______ _______ _______ _____ _____    ______ ____
ROOT
ATOM      1  C   UNL     1       2.153   6.147  20.139  0.00  0.00    +0.000 A 
ATOM      2  C   UNL     1       2.800   6.788  19.067  0.00  0.00    +0.000 A 
ATOM      3  C   UNL     1       3.708   6.103  18.249  0.00  0.00    +0.000 A 
ATOM      4  C   UNL     1       4.230   6.697  17.091  0.00  0.00    +0.000 A 
ATOM      5  C   UNL     1       5.111   6.000  16.266  0.00  0.00    +0.000 A 
ATOM      6  C   UNL     1       5.527   4.706  16.608  0.00  0.00    +0.000 A 
ATOM      7  C   UNL     1       5.004   4.114  17.767  0.00  0.00    +0.000 A 
ATOM      8  C   UNL     1       4.086   4.791  18.585  0.00  0.00    +0.000 A 
ATOM      9  C   UNL     1       3.520   4.201  19.728  0.00  0.00    +0.000 A 
ATOM     10  C   UNL     1       2.542   4.852  20.498  0.00  0.00    +0.000 A 
ENDROOT
BRANCH   1  12
ATOM     11  C   UNL     1       1.346   8.218  20.957  0.00  0.00    +0.000 C 
ATOM     12  O   UNL     1       1.177   6.801  20.843  0.00  0.00    +0.000 OA
ENDBRANCH   1  12
BRANCH  10  13
ATOM     13  O   UNL     1       2.080   4.065  21.518  0.00  0.00    +0.000 OA
ATOM     14  C   UNL     1       1.350   2.890  21.208  0.00  0.00    +0.000 C 
ENDBRANCH  10  13
BRANCH   6  15
ATOM     15  C   UNL     1       6.558   3.990  15.767  0.00  0.00    +0.000 C 
BRANCH  15  16
ATOM     16  C   UNL     1       6.840   4.519  14.374  0.00  0.00    +0.000 C 
ATOM     17  N   UNL     1       6.170   3.991  13.316  0.00  0.00    +0.000 N 
ATOM     18  O   UNL     1       7.646   5.430  14.184  0.00  0.00    +0.000 OA
ATOM     19  H   UNL     1       5.453   3.282  13.408  0.00  0.00    +0.000 HD
ATOM     20  H   UNL     1       6.354   4.369  12.404  0.00  0.00    +0.000 HD
ENDBRANCH  15  16
ENDBRANCH   6  15
TORSDOF 4
ENDMDL
MODEL 9
REMARK VINA RESULT:      -6.8      3.315      6.582
REMARK  Name = 
REMARK  6 active torsions:
REMARK  status: ('A' for Active; 'I' for Inactive)
REMARK    1  A    between atoms: C_1  and  O_2
REMARK    2  A    between atoms: O_2  and  C_3
REMARK    3  A    between atoms: C_8  and  C_9
REMARK    4  A    between atoms: C_9  and  C_10
REMARK    5  A    between atoms: C_16  and  O_17
REMARK    6  A    between atoms: O_17  and  C_18
REMARK                            x       y       z     vdW  Elec       q    Type
REMARK                         _______ _______ _______ _____ _____    ______ ____
ROOT
ATOM      1  C   UNL     1       2.703   5.401  19.251  0.00  0.00    +0.000 A 
ATOM      2  C   UNL     1       3.448   6.238  18.401  0.00  0.00    +0.000 A 
ATOM      3  C   UNL     1       4.191   5.717  17.334  0.00  0.00    +0.000 A 
ATOM      4  C   UNL     1       4.804   6.562  16.397  0.00  0.00    +0.000 A 
ATOM      5  C   UNL     1       5.518   6.036  15.321  0.00  0.00    +0.000 A 
ATOM      6  C   UNL     1       5.675   4.650  15.185  0.00  0.00    +0.000 A 
ATOM      7  C   UNL     1       5.061   3.807  16.123  0.00  0.00    +0.000 A 
ATOM      8  C   UNL     1       4.306   4.323  17.189  0.00  0.00    +0.000 A 
ATOM      9  C   UNL     1       3.651   3.494  18.116  0.00  0.00    +0.000 A 
ATOM     10  C   UNL     1       2.832   4.014  19.133  0.00  0.00    +0.000 A 
ENDROOT
BRANCH   1  12
ATOM     11  C   UNL     1       1.883   7.376  20.272  0.00  0.00    +0.000 C 
ATOM     12  O   UNL     1       1.884   5.945  20.206  0.00  0.00    +0.000 OA
ENDBRANCH   1  12
BRANCH  10  13
ATOM     13  O   UNL     1       2.238   3.026  19.871  0.00  0.00    +0.000 OA
ATOM     14  C   UNL     1       2.715   2.762  21.180  0.00  0.00    +0.000 C 
ENDBRANCH  10  13
BRANCH   6  15
ATOM     15  C   UNL     1       6.531   4.085  14.077  0.00  0.00    +0.000 C 
BRANCH  15  16
ATOM     16  C   UNL     1       5.836   3.490  12.867  0.00  0.00    +0.000 C 
ATOM     17  N   UNL     1       6.496   2.575  12.108  0.00  0.00    +0.000 N 
ATOM     18  O   UNL     1       4.683   3.801  12.570  0.00  0.00    +0.000 OA
ATOM     19  H   UNL     1       7.421   2.231  12.328  0.00  0.00    +0.000 HD
ATOM     20  H   UNL     1       6.011   2.176  11.324  0.00  0.00    +0.000 HD
ENDBRANCH  15  16
ENDBRANCH   6  15
TORSDOF 4
ENDMDL
