MODEL 1
REMARK VINA RESULT:      -6.8      0.000      0.000
REMARK  Name = 
REMARK  10 active torsions:
REMARK  status: ('A' for Active; 'I' for Inactive)
REMARK    1  A    between atoms: C_1  and  O_2
REMARK    2  A    between atoms: O_2  and  C_3
REMARK    3  A    between atoms: C_8  and  N_9
REMARK    4  A    between atoms: C_10  and  C_12
REMARK    5  A    between atoms: C_12  and  C_13
REMARK    6  A    between atoms: N_23  and  S_24
REMARK    7  A    between atoms: S_24  and  C_27
REMARK    8  A    between atoms: C_28  and  C_29
REMARK    9  A    between atoms: C_31  and  C_32
REMARK   10  A    between atoms: C_34  and  C_35
REMARK                            x       y       z     vdW  Elec       q    Type
REMARK                         _______ _______ _______ _____ _____    ______ ____
ROOT
ATOM      1  C   UNL     1      -1.889  13.127  21.262  0.00  0.00    +0.000 C 
ATOM      2  C   UNL     1      -3.001  12.731  22.244  0.00  0.00    +0.000 C 
ATOM      3  O   UNL     1      -4.118  12.353  21.907  0.00  0.00    +0.000 OA
ATOM      4  N   UNL     1      -2.633  13.011  23.585  0.00  0.00    +0.000 N 
ATOM      5  C   UNL     1      -2.318  14.416  23.808  0.00  0.00    +0.000 A 
ATOM      6  C   UNL     1      -2.915  14.920  24.963  0.00  0.00    +0.000 A 
ATOM      7  C   UNL     1      -4.010  15.750  24.788  0.00  0.00    +0.000 A 
ATOM      8  C   UNL     1      -4.362  16.123  23.488  0.00  0.00    +0.000 A 
ATOM      9  C   UNL     1      -3.489  15.863  22.401  0.00  0.00    +0.000 A 
ATOM     10  C   UNL     1      -2.305  15.149  22.608  0.00  0.00    +0.000 A 
ATOM     11  N   UNL     1      -1.475  14.564  21.487  0.00  0.00    +0.000 N 
ATOM     12  H   UNL     1      -1.842  12.464  23.908  0.00  0.00    +0.000 HD
ENDROOT
BRANCH  11  13
ATOM     13  S   UNL     1       0.281  14.576  21.913  0.00  0.00    +0.000 S 
ATOM     14  O   UNL     1       0.403  15.294  23.171  0.00  0.00    +0.000 OA
ATOM     15  O   UNL     1       0.736  13.209  21.845  0.00  0.00    +0.000 OA
BRANCH  13  16
ATOM     16  C   UNL     1       1.224  15.538  20.627  0.00  0.00    +0.000 A 
ATOM     17  C   UNL     1       2.101  14.864  19.736  0.00  0.00    +0.000 A 
ATOM     18  C   UNL     1       2.732  13.520  19.978  0.00  0.00    +0.000 C 
ATOM     19  C   UNL     1       2.479  15.476  18.506  0.00  0.00    +0.000 A 
ATOM     20  C   UNL     1       2.045  16.747  18.143  0.00  0.00    +0.000 A 
ATOM     21  C   UNL     1       2.385  17.365  16.815  0.00  0.00    +0.000 C 
ATOM     22  C   UNL     1       1.263  17.443  19.056  0.00  0.00    +0.000 A 
ATOM     23  C   UNL     1       0.848  16.878  20.292  0.00  0.00    +0.000 A 
ATOM     24  C   UNL     1       0.099  17.850  21.170  0.00  0.00    +0.000 C 
ENDBRANCH  13  16
ENDBRANCH  11  13
BRANCH   1  25
ATOM     25  C   UNL     1      -2.115  12.880  19.768  0.00  0.00    +0.000 C 
BRANCH  25  27
ATOM     26  N   UNL     1      -0.229  11.298  19.999  0.00  0.00    +0.000 N 
ATOM     27  C   UNL     1      -1.481  11.543  19.434  0.00  0.00    +0.000 C 
ATOM     28  O   UNL     1      -2.094  10.729  18.740  0.00  0.00    +0.000 OA
ATOM     29  H   UNL     1      -0.013  11.815  20.840  0.00  0.00    +0.000 HD
BRANCH  26  35
ATOM     30  C   UNL     1       0.804   9.077  20.414  0.00  0.00    +0.000 A 
ATOM     31  C   UNL     1       1.629   8.042  19.932  0.00  0.00    +0.000 A 
ATOM     32  C   UNL     1       2.255   8.118  18.689  0.00  0.00    +0.000 A 
ATOM     33  C   UNL     1       2.069   9.243  17.908  0.00  0.00    +0.000 A 
ATOM     34  C   UNL     1       1.270  10.282  18.380  0.00  0.00    +0.000 A 
ATOM     35  C   UNL     1       0.601  10.216  19.621  0.00  0.00    +0.000 A 
BRANCH  30  37
ATOM     36  C   UNL     1       0.535   9.413  22.780  0.00  0.00    +0.000 C 
ATOM     37  O   UNL     1       0.196   8.727  21.590  0.00  0.00    +0.000 OA
ENDBRANCH  30  37
ENDBRANCH  26  35
ENDBRANCH  25  27
ENDBRANCH   1  25
TORSDOF 6
ENDMDL
MODEL 2
REMARK VINA RESULT:      -6.7      2.266      7.321
REMARK  Name = 
REMARK  10 active torsions:
REMARK  status: ('A' for Active; 'I' for Inactive)
REMARK    1  A    between atoms: C_1  and  O_2
REMARK    2  A    between atoms: O_2  and  C_3
REMARK    3  A    between atoms: C_8  and  N_9
REMARK    4  A    between atoms: C_10  and  C_12
REMARK    5  A    between atoms: C_12  and  C_13
REMARK    6  A    between atoms: N_23  and  S_24
REMARK    7  A    between atoms: S_24  and  C_27
REMARK    8  A    between atoms: C_28  and  C_29
REMARK    9  A    between atoms: C_31  and  C_32
REMARK   10  A    between atoms: C_34  and  C_35
REMARK                            x       y       z     vdW  Elec       q    Type
REMARK                         _______ _______ _______ _____ _____    ______ ____
ROOT
ATOM      1  C   UNL     1      -1.111  15.093  21.772  0.00  0.00    +0.000 C 
ATOM      2  C   UNL     1       0.296  15.696  21.892  0.00  0.00    +0.000 C 
ATOM      3  O   UNL     1       0.553  16.886  21.744  0.00  0.00    +0.000 OA
ATOM      4  N   UNL     1       1.283  14.686  22.033  0.00  0.00    +0.000 N 
ATOM      5  C   UNL     1       1.294  13.741  20.924  0.00  0.00    +0.000 A 
ATOM      6  C   UNL     1       2.582  13.479  20.458  0.00  0.00    +0.000 A 
ATOM      7  C   UNL     1       2.942  14.066  19.256  0.00  0.00    +0.000 A 
ATOM      8  C   UNL     1       1.968  14.767  18.538  0.00  0.00    +0.000 A 
ATOM      9  C   UNL     1       0.600  14.677  18.901  0.00  0.00    +0.000 A 
ATOM     10  C   UNL     1       0.222  13.957  20.038  0.00  0.00    +0.000 A 
ATOM     11  N   UNL     1      -1.148  14.055  20.673  0.00  0.00    +0.000 N 
ATOM     12  H   UNL     1       1.193  14.152  22.890  0.00  0.00    +0.000 HD
ENDROOT
BRANCH  11  13
ATOM     13  S   UNL     1      -1.628  12.479  21.412  0.00  0.00    +0.000 S 
ATOM     14  O   UNL     1      -1.048  12.445  22.744  0.00  0.00    +0.000 OA
ATOM     15  O   UNL     1      -3.061  12.373  21.274  0.00  0.00    +0.000 OA
BRANCH  13  16
ATOM     16  C   UNL     1      -0.874  11.082  20.438  0.00  0.00    +0.000 A 
ATOM     17  C   UNL     1      -0.962  11.074  19.020  0.00  0.00    +0.000 A 
ATOM     18  C   UNL     1      -1.986  11.814  18.203  0.00  0.00    +0.000 C 
ATOM     19  C   UNL     1      -0.052  10.293  18.252  0.00  0.00    +0.000 A 
ATOM     20  C   UNL     1       0.922   9.492  18.840  0.00  0.00    +0.000 A 
ATOM     21  C   UNL     1       1.928   8.722  18.030  0.00  0.00    +0.000 C 
ATOM     22  C   UNL     1       0.948   9.428  20.227  0.00  0.00    +0.000 A 
ATOM     23  C   UNL     1       0.071  10.193  21.043  0.00  0.00    +0.000 A 
ATOM     24  C   UNL     1       0.202   9.883  22.513  0.00  0.00    +0.000 C 
ENDBRANCH  13  16
ENDBRANCH  11  13
BRANCH   1  25
ATOM     25  C   UNL     1      -2.301  16.044  21.627  0.00  0.00    +0.000 C 
BRANCH  25  27
ATOM     26  N   UNL     1      -4.420  14.864  22.104  0.00  0.00    +0.000 N 
ATOM     27  C   UNL     1      -3.355  15.599  22.624  0.00  0.00    +0.000 C 
ATOM     28  O   UNL     1      -3.213  15.853  23.822  0.00  0.00    +0.000 OA
ATOM     29  H   UNL     1      -4.242  14.376  21.236  0.00  0.00    +0.000 HD
BRANCH  26  35
ATOM     30  C   UNL     1      -6.644  15.475  23.028  0.00  0.00    +0.000 A 
ATOM     31  C   UNL     1      -7.783  15.067  23.749  0.00  0.00    +0.000 A 
ATOM     32  C   UNL     1      -7.897  13.785  24.283  0.00  0.00    +0.000 A 
ATOM     33  C   UNL     1      -6.861  12.887  24.107  0.00  0.00    +0.000 A 
ATOM     34  C   UNL     1      -5.721  13.282  23.411  0.00  0.00    +0.000 A 
ATOM     35  C   UNL     1      -5.594  14.564  22.835  0.00  0.00    +0.000 A 
BRANCH  30  37
ATOM     36  C   UNL     1      -6.300  17.850  23.176  0.00  0.00    +0.000 C 
ATOM     37  O   UNL     1      -6.811  16.723  22.491  0.00  0.00    +0.000 OA
ENDBRANCH  30  37
ENDBRANCH  26  35
ENDBRANCH  25  27
ENDBRANCH   1  25
TORSDOF 6
ENDMDL
MODEL 3
REMARK VINA RESULT:      -6.6      2.427      5.360
REMARK  Name = 
REMARK  10 active torsions:
REMARK  status: ('A' for Active; 'I' for Inactive)
REMARK    1  A    between atoms: C_1  and  O_2
REMARK    2  A    between atoms: O_2  and  C_3
REMARK    3  A    between atoms: C_8  and  N_9
REMARK    4  A    between atoms: C_10  and  C_12
REMARK    5  A    between atoms: C_12  and  C_13
REMARK    6  A    between atoms: N_23  and  S_24
REMARK    7  A    between atoms: S_24  and  C_27
REMARK    8  A    between atoms: C_28  and  C_29
REMARK    9  A    between atoms: C_31  and  C_32
REMARK   10  A    between atoms: C_34  and  C_35
REMARK                            x       y       z     vdW  Elec       q    Type
REMARK                         _______ _______ _______ _____ _____    ______ ____
ROOT
ATOM      1  C   UNL     1      -0.083  12.037  19.108  0.00  0.00    +0.000 C 
ATOM      2  C   UNL     1      -0.435  10.559  19.323  0.00  0.00    +0.000 C 
ATOM      3  O   UNL     1      -1.538  10.071  19.096  0.00  0.00    +0.000 OA
ATOM      4  N   UNL     1       0.619   9.862  19.969  0.00  0.00    +0.000 N 
ATOM      5  C   UNL     1       0.970  10.432  21.263  0.00  0.00    +0.000 A 
ATOM      6  C   UNL     1       1.117   9.460  22.252  0.00  0.00    +0.000 A 
ATOM      7  C   UNL     1       0.093   9.354  23.180  0.00  0.00    +0.000 A 
ATOM      8  C   UNL     1      -0.941  10.294  23.142  0.00  0.00    +0.000 A 
ATOM      9  C   UNL     1      -0.828  11.459  22.341  0.00  0.00    +0.000 A 
ATOM     10  C   UNL     1       0.284  11.635  21.512  0.00  0.00    +0.000 A 
ATOM     11  N   UNL     1       0.350  12.671  20.411  0.00  0.00    +0.000 N 
ATOM     12  H   UNL     1       1.467   9.813  19.415  0.00  0.00    +0.000 HD
ENDROOT
BRANCH  11  13
ATOM     13  S   UNL     1       2.038  13.278  20.200  0.00  0.00    +0.000 S 
ATOM     14  O   UNL     1       2.645  13.297  21.521  0.00  0.00    +0.000 OA
ATOM     15  O   UNL     1       2.645  12.474  19.167  0.00  0.00    +0.000 OA
BRANCH  13  16
ATOM     16  C   UNL     1       1.993  15.033  19.581  0.00  0.00    +0.000 A 
ATOM     17  C   UNL     1       2.695  15.389  18.398  0.00  0.00    +0.000 A 
ATOM     18  C   UNL     1       3.859  14.637  17.812  0.00  0.00    +0.000 C 
ATOM     19  C   UNL     1       2.335  16.564  17.679  0.00  0.00    +0.000 A 
ATOM     20  C   UNL     1       1.325  17.420  18.108  0.00  0.00    +0.000 A 
ATOM     21  C   UNL     1       0.896  18.622  17.315  0.00  0.00    +0.000 C 
ATOM     22  C   UNL     1       0.702  17.122  19.314  0.00  0.00    +0.000 A 
ATOM     23  C   UNL     1       1.014  15.958  20.067  0.00  0.00    +0.000 A 
ATOM     24  C   UNL     1       0.294  15.894  21.391  0.00  0.00    +0.000 C 
ENDBRANCH  13  16
ENDBRANCH  11  13
BRANCH   1  25
ATOM     25  C   UNL     1      -1.106  12.936  18.410  0.00  0.00    +0.000 C 
BRANCH  25  27
ATOM     26  N   UNL     1      -3.222  12.432  19.585  0.00  0.00    +0.000 N 
ATOM     27  C   UNL     1      -2.150  13.314  19.444  0.00  0.00    +0.000 C 
ATOM     28  O   UNL     1      -1.995  14.326  20.131  0.00  0.00    +0.000 OA
ATOM     29  H   UNL     1      -3.053  11.479  19.297  0.00  0.00    +0.000 HD
BRANCH  26  35
ATOM     30  C   UNL     1      -5.617  13.074  19.742  0.00  0.00    +0.000 A 
ATOM     31  C   UNL     1      -6.726  13.328  20.572  0.00  0.00    +0.000 A 
ATOM     32  C   UNL     1      -6.639  13.255  21.961  0.00  0.00    +0.000 A 
ATOM     33  C   UNL     1      -5.429  12.931  22.545  0.00  0.00    +0.000 A 
ATOM     34  C   UNL     1      -4.319  12.695  21.737  0.00  0.00    +0.000 A 
ATOM     35  C   UNL     1      -4.389  12.733  20.328  0.00  0.00    +0.000 A 
BRANCH  30  37
ATOM     36  C   UNL     1      -6.423  11.879  17.819  0.00  0.00    +0.000 C 
ATOM     37  O   UNL     1      -5.969  13.076  18.420  0.00  0.00    +0.000 OA
ENDBRANCH  30  37
ENDBRANCH  26  35
ENDBRANCH  25  27
ENDBRANCH   1  25
TORSDOF 6
ENDMDL
MODEL 4
REMARK VINA RESULT:      -6.6      2.220      7.068
REMARK  Name = 
REMARK  10 active torsions:
REMARK  status: ('A' for Active; 'I' for Inactive)
REMARK    1  A    between atoms: C_1  and  O_2
REMARK    2  A    between atoms: O_2  and  C_3
REMARK    3  A    between atoms: C_8  and  N_9
REMARK    4  A    between atoms: C_10  and  C_12
REMARK    5  A    between atoms: C_12  and  C_13
REMARK    6  A    between atoms: N_23  and  S_24
REMARK    7  A    between atoms: S_24  and  C_27
REMARK    8  A    between atoms: C_28  and  C_29
REMARK    9  A    between atoms: C_31  and  C_32
REMARK   10  A    between atoms: C_34  and  C_35
REMARK                            x       y       z     vdW  Elec       q    Type
REMARK                         _______ _______ _______ _____ _____    ______ ____
ROOT
ATOM      1  C   UNL     1      -1.016  14.850  21.413  0.00  0.00    +0.000 C 
ATOM      2  C   UNL     1       0.259  15.683  21.607  0.00  0.00    +0.000 C 
ATOM      3  O   UNL     1       0.347  16.881  21.356  0.00  0.00    +0.000 OA
ATOM      4  N   UNL     1       1.365  14.865  21.956  0.00  0.00    +0.000 N 
ATOM      5  C   UNL     1       1.649  13.837  20.964  0.00  0.00    +0.000 A 
ATOM      6  C   UNL     1       3.007  13.747  20.662  0.00  0.00    +0.000 A 
ATOM      7  C   UNL     1       3.412  14.272  19.445  0.00  0.00    +0.000 A 
ATOM      8  C   UNL     1       2.434  14.736  18.561  0.00  0.00    +0.000 A 
ATOM      9  C   UNL     1       1.062  14.458  18.791  0.00  0.00    +0.000 A 
ATOM     10  C   UNL     1       0.668  13.793  19.956  0.00  0.00    +0.000 A 
ATOM     11  N   UNL     1      -0.766  13.724  20.435  0.00  0.00    +0.000 N 
ATOM     12  H   UNL     1       1.258  14.405  22.853  0.00  0.00    +0.000 HD
ENDROOT
BRANCH  11  13
ATOM     13  S   UNL     1      -1.084  12.165  21.290  0.00  0.00    +0.000 S 
ATOM     14  O   UNL     1      -0.333  12.206  22.534  0.00  0.00    +0.000 OA
ATOM     15  O   UNL     1      -2.517  12.005  21.347  0.00  0.00    +0.000 OA
BRANCH  13  16
ATOM     16  C   UNL     1      -0.409  10.754  20.278  0.00  0.00    +0.000 A 
ATOM     17  C   UNL     1      -0.551  10.762  18.864  0.00  0.00    +0.000 A 
ATOM     18  C   UNL     1      -1.583  11.538  18.092  0.00  0.00    +0.000 C 
ATOM     19  C   UNL     1       0.304   9.960  18.056  0.00  0.00    +0.000 A 
ATOM     20  C   UNL     1       1.276   9.125  18.600  0.00  0.00    +0.000 A 
ATOM     21  C   UNL     1       2.226   8.332  17.747  0.00  0.00    +0.000 C 
ATOM     22  C   UNL     1       1.352   9.048  19.985  0.00  0.00    +0.000 A 
ATOM     23  C   UNL     1       0.530   9.832  20.839  0.00  0.00    +0.000 A 
ATOM     24  C   UNL     1       0.708   9.506  22.301  0.00  0.00    +0.000 C 
ENDBRANCH  13  16
ENDBRANCH  11  13
BRANCH   1  25
ATOM     25  C   UNL     1      -2.312  15.577  21.045  0.00  0.00    +0.000 C 
BRANCH  25  27
ATOM     26  N   UNL     1      -4.466  14.486  21.577  0.00  0.00    +0.000 N 
ATOM     27  C   UNL     1      -3.357  15.175  22.069  0.00  0.00    +0.000 C 
ATOM     28  O   UNL     1      -3.173  15.420  23.263  0.00  0.00    +0.000 OA
ATOM     29  H   UNL     1      -4.331  13.993  20.705  0.00  0.00    +0.000 HD
BRANCH  26  35
ATOM     30  C   UNL     1      -6.345  13.028  22.295  0.00  0.00    +0.000 A 
ATOM     31  C   UNL     1      -7.478  12.870  23.117  0.00  0.00    +0.000 A 
ATOM     32  C   UNL     1      -7.916  13.881  23.970  0.00  0.00    +0.000 A 
ATOM     33  C   UNL     1      -7.226  15.077  24.009  0.00  0.00    +0.000 A 
ATOM     34  C   UNL     1      -6.114  15.254  23.189  0.00  0.00    +0.000 A 
ATOM     35  C   UNL     1      -5.632  14.236  22.339  0.00  0.00    +0.000 A 
BRANCH  30  37
ATOM     36  C   UNL     1      -6.832  11.431  20.566  0.00  0.00    +0.000 C 
ATOM     37  O   UNL     1      -6.029  11.865  21.646  0.00  0.00    +0.000 OA
ENDBRANCH  30  37
ENDBRANCH  26  35
ENDBRANCH  25  27
ENDBRANCH   1  25
TORSDOF 6
ENDMDL
MODEL 5
REMARK VINA RESULT:      -6.5      2.248      3.098
REMARK  Name = 
REMARK  10 active torsions:
REMARK  status: ('A' for Active; 'I' for Inactive)
REMARK    1  A    between atoms: C_1  and  O_2
REMARK    2  A    between atoms: O_2  and  C_3
REMARK    3  A    between atoms: C_8  and  N_9
REMARK    4  A    between atoms: C_10  and  C_12
REMARK    5  A    between atoms: C_12  and  C_13
REMARK    6  A    between atoms: N_23  and  S_24
REMARK    7  A    between atoms: S_24  and  C_27
REMARK    8  A    between atoms: C_28  and  C_29
REMARK    9  A    between atoms: C_31  and  C_32
REMARK   10  A    between atoms: C_34  and  C_35
REMARK                            x       y       z     vdW  Elec       q    Type
REMARK                         _______ _______ _______ _____ _____    ______ ____
ROOT
ATOM      1  C   UNL     1      -0.306  13.042  19.751  0.00  0.00    +0.000 C 
ATOM      2  C   UNL     1      -1.205  13.532  20.894  0.00  0.00    +0.000 C 
ATOM      3  O   UNL     1      -2.430  13.580  20.838  0.00  0.00    +0.000 OA
ATOM      4  N   UNL     1      -0.442  14.075  21.960  0.00  0.00    +0.000 N 
ATOM      5  C   UNL     1       0.403  15.188  21.546  0.00  0.00    +0.000 A 
ATOM      6  C   UNL     1       0.333  16.267  22.427  0.00  0.00    +0.000 A 
ATOM      7  C   UNL     1      -0.396  17.368  22.007  0.00  0.00    +0.000 A 
ATOM      8  C   UNL     1      -0.900  17.376  20.704  0.00  0.00    +0.000 A 
ATOM      9  C   UNL     1      -0.477  16.406  19.760  0.00  0.00    +0.000 A 
ATOM     10  C   UNL     1       0.382  15.374  20.152  0.00  0.00    +0.000 A 
ATOM     11  N   UNL     1       0.641  14.139  19.318  0.00  0.00    +0.000 N 
ATOM     12  H   UNL     1       0.152  13.392  22.417  0.00  0.00    +0.000 HD
ENDROOT
BRANCH  11  13
ATOM     13  S   UNL     1       2.329  13.544  19.557  0.00  0.00    +0.000 S 
ATOM     14  O   UNL     1       2.348  12.830  20.823  0.00  0.00    +0.000 OA
ATOM     15  O   UNL     1       2.696  12.838  18.353  0.00  0.00    +0.000 OA
BRANCH  13  16
ATOM     16  C   UNL     1       3.482  14.998  19.719  0.00  0.00    +0.000 A 
ATOM     17  C   UNL     1       4.314  15.121  20.864  0.00  0.00    +0.000 A 
ATOM     18  C   UNL     1       4.068  14.472  22.199  0.00  0.00    +0.000 C 
ATOM     19  C   UNL     1       5.477  15.942  20.816  0.00  0.00    +0.000 A 
ATOM     20  C   UNL     1       5.828  16.672  19.685  0.00  0.00    +0.000 A 
ATOM     21  C   UNL     1       7.092  17.482  19.608  0.00  0.00    +0.000 C 
ATOM     22  C   UNL     1       4.964  16.624  18.598  0.00  0.00    +0.000 A 
ATOM     23  C   UNL     1       3.796  15.815  18.586  0.00  0.00    +0.000 A 
ATOM     24  C   UNL     1       2.952  16.002  17.350  0.00  0.00    +0.000 C 
ENDBRANCH  13  16
ENDBRANCH  11  13
BRANCH   1  25
ATOM     25  C   UNL     1      -0.967  12.413  18.523  0.00  0.00    +0.000 C 
BRANCH  25  27
ATOM     26  N   UNL     1       0.601  10.645  19.248  0.00  0.00    +0.000 N 
ATOM     27  C   UNL     1      -0.491  10.974  18.445  0.00  0.00    +0.000 C 
ATOM     28  O   UNL     1      -1.095  10.164  17.738  0.00  0.00    +0.000 OA
ATOM     29  H   UNL     1       0.750  11.231  20.058  0.00  0.00    +0.000 HD
BRANCH  26  35
ATOM     30  C   UNL     1       1.339   8.446  20.141  0.00  0.00    +0.000 A 
ATOM     31  C   UNL     1       2.056   7.255  19.919  0.00  0.00    +0.000 A 
ATOM     32  C   UNL     1       2.749   7.022  18.732  0.00  0.00    +0.000 A 
ATOM     33  C   UNL     1       2.738   7.989  17.744  0.00  0.00    +0.000 A 
ATOM     34  C   UNL     1       2.047   9.180  17.957  0.00  0.00    +0.000 A 
ATOM     35  C   UNL     1       1.314   9.426  19.138  0.00  0.00    +0.000 A 
BRANCH  30  37
ATOM     36  C   UNL     1       1.004   9.246  22.383  0.00  0.00    +0.000 C 
ATOM     37  O   UNL     1       0.635   8.396  21.314  0.00  0.00    +0.000 OA
ENDBRANCH  30  37
ENDBRANCH  26  35
ENDBRANCH  25  27
ENDBRANCH   1  25
TORSDOF 6
ENDMDL
MODEL 6
REMARK VINA RESULT:      -6.5      1.886      2.512
REMARK  Name = 
REMARK  10 active torsions:
REMARK  status: ('A' for Active; 'I' for Inactive)
REMARK    1  A    between atoms: C_1  and  O_2
REMARK    2  A    between atoms: O_2  and  C_3
REMARK    3  A    between atoms: C_8  and  N_9
REMARK    4  A    between atoms: C_10  and  C_12
REMARK    5  A    between atoms: C_12  and  C_13
REMARK    6  A    between atoms: N_23  and  S_24
REMARK    7  A    between atoms: S_24  and  C_27
REMARK    8  A    between atoms: C_28  and  C_29
REMARK    9  A    between atoms: C_31  and  C_32
REMARK   10  A    between atoms: C_34  and  C_35
REMARK                            x       y       z     vdW  Elec       q    Type
REMARK                         _______ _______ _______ _____ _____    ______ ____
ROOT
ATOM      1  C   UNL     1      -0.034  14.157  20.127  0.00  0.00    +0.000 C 
ATOM      2  C   UNL     1      -1.343  13.536  20.633  0.00  0.00    +0.000 C 
ATOM      3  O   UNL     1      -2.131  12.912  19.929  0.00  0.00    +0.000 OA
ATOM      4  N   UNL     1      -1.610  13.910  21.976  0.00  0.00    +0.000 N 
ATOM      5  C   UNL     1      -1.699  15.354  22.158  0.00  0.00    +0.000 A 
ATOM      6  C   UNL     1      -2.798  15.727  22.931  0.00  0.00    +0.000 A 
ATOM      7  C   UNL     1      -3.872  16.288  22.258  0.00  0.00    +0.000 A 
ATOM      8  C   UNL     1      -3.737  16.554  20.892  0.00  0.00    +0.000 A 
ATOM      9  C   UNL     1      -2.468  16.481  20.264  0.00  0.00    +0.000 A 
ATOM     10  C   UNL     1      -1.351  16.053  20.988  0.00  0.00    +0.000 A 
ATOM     11  N   UNL     1      -0.041  15.653  20.346  0.00  0.00    +0.000 N 
ATOM     12  H   UNL     1      -0.925  13.559  22.635  0.00  0.00    +0.000 HD
ENDROOT
BRANCH  11  13
ATOM     13  S   UNL     1       1.353  16.065  21.418  0.00  0.00    +0.000 S 
ATOM     14  O   UNL     1       1.151  17.433  21.865  0.00  0.00    +0.000 OA
ATOM     15  O   UNL     1       1.444  15.016  22.405  0.00  0.00    +0.000 OA
BRANCH  13  16
ATOM     16  C   UNL     1       2.929  16.029  20.426  0.00  0.00    +0.000 A 
ATOM     17  C   UNL     1       4.081  15.377  20.944  0.00  0.00    +0.000 A 
ATOM     18  C   UNL     1       4.348  15.097  22.398  0.00  0.00    +0.000 C 
ATOM     19  C   UNL     1       5.121  14.960  20.065  0.00  0.00    +0.000 A 
ATOM     20  C   UNL     1       5.077  15.195  18.695  0.00  0.00    +0.000 A 
ATOM     21  C   UNL     1       6.140  14.694  17.756  0.00  0.00    +0.000 C 
ATOM     22  C   UNL     1       3.995  15.914  18.202  0.00  0.00    +0.000 A 
ATOM     23  C   UNL     1       2.925  16.346  19.030  0.00  0.00    +0.000 A 
ATOM     24  C   UNL     1       1.916  17.201  18.305  0.00  0.00    +0.000 C 
ENDBRANCH  13  16
ENDBRANCH  11  13
BRANCH   1  25
ATOM     25  C   UNL     1       0.415  13.844  18.697  0.00  0.00    +0.000 C 
BRANCH  25  27
ATOM     26  N   UNL     1       0.558  11.380  18.578  0.00  0.00    +0.000 N 
ATOM     27  C   UNL     1       1.249  12.578  18.756  0.00  0.00    +0.000 C 
ATOM     28  O   UNL     1       2.471  12.654  18.905  0.00  0.00    +0.000 OA
ATOM     29  H   UNL     1      -0.315  11.440  18.073  0.00  0.00    +0.000 HD
BRANCH  26  35
ATOM     30  C   UNL     1       1.004   9.422  20.043  0.00  0.00    +0.000 A 
ATOM     31  C   UNL     1       1.584   8.146  20.175  0.00  0.00    +0.000 A 
ATOM     32  C   UNL     1       2.282   7.542  19.130  0.00  0.00    +0.000 A 
ATOM     33  C   UNL     1       2.416   8.216  17.931  0.00  0.00    +0.000 A 
ATOM     34  C   UNL     1       1.863   9.486  17.792  0.00  0.00    +0.000 A 
ATOM     35  C   UNL     1       1.126  10.106  18.824  0.00  0.00    +0.000 A 
BRANCH  30  37
ATOM     36  C   UNL     1      -0.284   8.727  21.950  0.00  0.00    +0.000 C 
ATOM     37  O   UNL     1       0.263   9.753  21.145  0.00  0.00    +0.000 OA
ENDBRANCH  30  37
ENDBRANCH  26  35
ENDBRANCH  25  27
ENDBRANCH   1  25
TORSDOF 6
ENDMDL
MODEL 7
REMARK VINA RESULT:      -6.4      2.536      5.880
REMARK  Name = 
REMARK  10 active torsions:
REMARK  status: ('A' for Active; 'I' for Inactive)
REMARK    1  A    between atoms: C_1  and  O_2
REMARK    2  A    between atoms: O_2  and  C_3
REMARK    3  A    between atoms: C_8  and  N_9
REMARK    4  A    between atoms: C_10  and  C_12
REMARK    5  A    between atoms: C_12  and  C_13
REMARK    6  A    between atoms: N_23  and  S_24
REMARK    7  A    between atoms: S_24  and  C_27
REMARK    8  A    between atoms: C_28  and  C_29
REMARK    9  A    between atoms: C_31  and  C_32
REMARK   10  A    between atoms: C_34  and  C_35
REMARK                            x       y       z     vdW  Elec       q    Type
REMARK                         _______ _______ _______ _____ _____    ______ ____
ROOT
ATOM      1  C   UNL     1       0.346  11.586  20.542  0.00  0.00    +0.000 C 
ATOM      2  C   UNL     1       1.615  12.439  20.404  0.00  0.00    +0.000 C 
ATOM      3  O   UNL     1       2.455  12.576  21.287  0.00  0.00    +0.000 OA
ATOM      4  N   UNL     1       1.613  13.179  19.194  0.00  0.00    +0.000 N 
ATOM      5  C   UNL     1       0.463  14.064  19.067  0.00  0.00    +0.000 A 
ATOM      6  C   UNL     1       0.816  15.341  18.633  0.00  0.00    +0.000 A 
ATOM      7  C   UNL     1       0.807  16.348  19.585  0.00  0.00    +0.000 A 
ATOM      8  C   UNL     1       0.331  16.051  20.865  0.00  0.00    +0.000 A 
ATOM      9  C   UNL     1      -0.346  14.831  21.119  0.00  0.00    +0.000 A 
ATOM     10  C   UNL     1      -0.465  13.872  20.108  0.00  0.00    +0.000 A 
ATOM     11  N   UNL     1      -0.887  12.441  20.358  0.00  0.00    +0.000 N 
ATOM     12  H   UNL     1       1.644  12.595  18.365  0.00  0.00    +0.000 HD
ENDROOT
BRANCH  11  13
ATOM     13  S   UNL     1      -1.813  11.789  18.951  0.00  0.00    +0.000 S 
ATOM     14  O   UNL     1      -1.404  12.556  17.787  0.00  0.00    +0.000 OA
ATOM     15  O   UNL     1      -1.614  10.360  18.948  0.00  0.00    +0.000 OA
BRANCH  13  16
ATOM     16  C   UNL     1      -3.632  12.094  19.211  0.00  0.00    +0.000 A 
ATOM     17  C   UNL     1      -4.574  11.631  18.254  0.00  0.00    +0.000 A 
ATOM     18  C   UNL     1      -4.277  11.318  16.813  0.00  0.00    +0.000 C 
ATOM     19  C   UNL     1      -5.940  11.459  18.622  0.00  0.00    +0.000 A 
ATOM     20  C   UNL     1      -6.412  11.761  19.895  0.00  0.00    +0.000 A 
ATOM     21  C   UNL     1      -7.837  11.514  20.306  0.00  0.00    +0.000 C 
ATOM     22  C   UNL     1      -5.509  12.302  20.802  0.00  0.00    +0.000 A 
ATOM     23  C   UNL     1      -4.134  12.486  20.493  0.00  0.00    +0.000 A 
ATOM     24  C   UNL     1      -3.366  13.187  21.585  0.00  0.00    +0.000 C 
ENDBRANCH  13  16
ENDBRANCH  11  13
BRANCH   1  25
ATOM     25  C   UNL     1       0.189  10.710  21.787  0.00  0.00    +0.000 C 
BRANCH  25  27
ATOM     26  N   UNL     1       1.580   8.876  20.887  0.00  0.00    +0.000 N 
ATOM     27  C   UNL     1       0.319   9.266  21.339  0.00  0.00    +0.000 C 
ATOM     28  O   UNL     1      -0.645   8.504  21.433  0.00  0.00    +0.000 OA
ATOM     29  H   UNL     1       2.361   9.420  21.224  0.00  0.00    +0.000 HD
BRANCH  26  35
ATOM     30  C   UNL     1       2.272   7.556  18.898  0.00  0.00    +0.000 A 
ATOM     31  C   UNL     1       2.516   6.285  18.343  0.00  0.00    +0.000 A 
ATOM     32  C   UNL     1       2.323   5.113  19.073  0.00  0.00    +0.000 A 
ATOM     33  C   UNL     1       1.874   5.197  20.377  0.00  0.00    +0.000 A 
ATOM     34  C   UNL     1       1.611   6.446  20.933  0.00  0.00    +0.000 A 
ATOM     35  C   UNL     1       1.827   7.648  20.226  0.00  0.00    +0.000 A 
BRANCH  30  37
ATOM     36  C   UNL     1       1.749   9.604  17.753  0.00  0.00    +0.000 C 
ATOM     37  O   UNL     1       2.653   8.557  18.046  0.00  0.00    +0.000 OA
ENDBRANCH  30  37
ENDBRANCH  26  35
ENDBRANCH  25  27
ENDBRANCH   1  25
TORSDOF 6
ENDMDL
MODEL 8
REMARK VINA RESULT:      -6.4      1.965      5.741
REMARK  Name = 
REMARK  10 active torsions:
REMARK  status: ('A' for Active; 'I' for Inactive)
REMARK    1  A    between atoms: C_1  and  O_2
REMARK    2  A    between atoms: O_2  and  C_3
REMARK    3  A    between atoms: C_8  and  N_9
REMARK    4  A    between atoms: C_10  and  C_12
REMARK    5  A    between atoms: C_12  and  C_13
REMARK    6  A    between atoms: N_23  and  S_24
REMARK    7  A    between atoms: S_24  and  C_27
REMARK    8  A    between atoms: C_28  and  C_29
REMARK    9  A    between atoms: C_31  and  C_32
REMARK   10  A    between atoms: C_34  and  C_35
REMARK                            x       y       z     vdW  Elec       q    Type
REMARK                         _______ _______ _______ _____ _____    ______ ____
ROOT
ATOM      1  C   UNL     1      -1.125  14.784  21.725  0.00  0.00    +0.000 C 
ATOM      2  C   UNL     1      -1.431  16.247  22.076  0.00  0.00    +0.000 C 
ATOM      3  O   UNL     1      -0.602  17.042  22.506  0.00  0.00    +0.000 OA
ATOM      4  N   UNL     1      -2.822  16.519  21.999  0.00  0.00    +0.000 N 
ATOM      5  C   UNL     1      -3.619  15.672  22.876  0.00  0.00    +0.000 A 
ATOM      6  C   UNL     1      -4.575  16.393  23.591  0.00  0.00    +0.000 A 
ATOM      7  C   UNL     1      -4.314  16.614  24.933  0.00  0.00    +0.000 A 
ATOM      8  C   UNL     1      -3.193  16.005  25.504  0.00  0.00    +0.000 A 
ATOM      9  C   UNL     1      -2.481  15.000  24.801  0.00  0.00    +0.000 A 
ATOM     10  C   UNL     1      -2.842  14.673  23.490  0.00  0.00    +0.000 A 
ATOM     11  N   UNL     1      -1.971  13.852  22.563  0.00  0.00    +0.000 N 
ATOM     12  H   UNL     1      -3.197  16.430  21.061  0.00  0.00    +0.000 HD
ENDROOT
BRANCH  11  13
ATOM     13  S   UNL     1      -2.982  12.859  21.444  0.00  0.00    +0.000 S 
ATOM     14  O   UNL     1      -3.962  12.167  22.264  0.00  0.00    +0.000 OA
ATOM     15  O   UNL     1      -3.446  13.745  20.404  0.00  0.00    +0.000 OA
BRANCH  13  16
ATOM     16  C   UNL     1      -1.918  11.563  20.633  0.00  0.00    +0.000 A 
ATOM     17  C   UNL     1      -1.956  11.392  19.223  0.00  0.00    +0.000 A 
ATOM     18  C   UNL     1      -3.087  11.807  18.321  0.00  0.00    +0.000 C 
ATOM     19  C   UNL     1      -0.878  10.749  18.552  0.00  0.00    +0.000 A 
ATOM     20  C   UNL     1       0.224  10.239  19.231  0.00  0.00    +0.000 A 
ATOM     21  C   UNL     1       1.396   9.623  18.519  0.00  0.00    +0.000 C 
ATOM     22  C   UNL     1       0.218  10.324  20.618  0.00  0.00    +0.000 A 
ATOM     23  C   UNL     1      -0.826  10.964  21.338  0.00  0.00    +0.000 A 
ATOM     24  C   UNL     1      -0.680  10.842  22.835  0.00  0.00    +0.000 C 
ENDBRANCH  13  16
ENDBRANCH  11  13
BRANCH   1  25
ATOM     25  C   UNL     1       0.333  14.320  21.745  0.00  0.00    +0.000 C 
BRANCH  25  27
ATOM     26  N   UNL     1       1.514  15.864  20.218  0.00  0.00    +0.000 N 
ATOM     27  C   UNL     1       0.916  14.614  20.375  0.00  0.00    +0.000 C 
ATOM     28  O   UNL     1       0.885  13.750  19.496  0.00  0.00    +0.000 OA
ATOM     29  H   UNL     1       1.844  16.308  21.064  0.00  0.00    +0.000 HD
BRANCH  26  35
ATOM     30  C   UNL     1       3.058  15.992  18.276  0.00  0.00    +0.000 A 
ATOM     31  C   UNL     1       3.339  16.560  17.018  0.00  0.00    +0.000 A 
ATOM     32  C   UNL     1       2.506  17.515  16.438  0.00  0.00    +0.000 A 
ATOM     33  C   UNL     1       1.373  17.923  17.116  0.00  0.00    +0.000 A 
ATOM     34  C   UNL     1       1.091  17.382  18.368  0.00  0.00    +0.000 A 
ATOM     35  C   UNL     1       1.903  16.393  18.964  0.00  0.00    +0.000 A 
BRANCH  30  37
ATOM     36  C   UNL     1       5.164  14.902  17.882  0.00  0.00    +0.000 C 
ATOM     37  O   UNL     1       3.938  14.990  18.582  0.00  0.00    +0.000 OA
ENDBRANCH  30  37
ENDBRANCH  26  35
ENDBRANCH  25  27
ENDBRANCH   1  25
TORSDOF 6
ENDMDL
MODEL 9
REMARK VINA RESULT:      -6.4      3.287      7.889
REMARK  Name = 
REMARK  10 active torsions:
REMARK  status: ('A' for Active; 'I' for Inactive)
REMARK    1  A    between atoms: C_1  and  O_2
REMARK    2  A    between atoms: O_2  and  C_3
REMARK    3  A    between atoms: C_8  and  N_9
REMARK    4  A    between atoms: C_10  and  C_12
REMARK    5  A    between atoms: C_12  and  C_13
REMARK    6  A    between atoms: N_23  and  S_24
REMARK    7  A    between atoms: S_24  and  C_27
REMARK    8  A    between atoms: C_28  and  C_29
REMARK    9  A    between atoms: C_31  and  C_32
REMARK   10  A    between atoms: C_34  and  C_35
REMARK                            x       y       z     vdW  Elec       q    Type
REMARK                         _______ _______ _______ _____ _____    ______ ____
ROOT
ATOM      1  C   UNL     1      -1.192  11.560  20.295  0.00  0.00    +0.000 C 
ATOM      2  C   UNL     1      -2.236  12.411  19.559  0.00  0.00    +0.000 C 
ATOM      3  O   UNL     1      -3.319  12.739  20.033  0.00  0.00    +0.000 OA
ATOM      4  N   UNL     1      -1.866  12.633  18.208  0.00  0.00    +0.000 N 
ATOM      5  C   UNL     1      -1.684  11.398  17.456  0.00  0.00    +0.000 A 
ATOM      6  C   UNL     1      -2.301  11.439  16.206  0.00  0.00    +0.000 A 
ATOM      7  C   UNL     1      -3.476  10.718  16.066  0.00  0.00    +0.000 A 
ATOM      8  C   UNL     1      -3.892   9.910  17.128  0.00  0.00    +0.000 A 
ATOM      9  C   UNL     1      -3.024   9.644  18.217  0.00  0.00    +0.000 A 
ATOM     10  C   UNL     1      -1.771  10.262  18.282  0.00  0.00    +0.000 A 
ATOM     11  N   UNL     1      -0.914  10.287  19.528  0.00  0.00    +0.000 N 
ATOM     12  H   UNL     1      -1.018  13.181  18.108  0.00  0.00    +0.000 HD
ENDROOT
BRANCH  11  13
ATOM     13  S   UNL     1       0.841  10.265  19.102  0.00  0.00    +0.000 S 
ATOM     14  O   UNL     1       0.922  10.294  17.651  0.00  0.00    +0.000 OA
ATOM     15  O   UNL     1       1.466  11.326  19.855  0.00  0.00    +0.000 OA
BRANCH  13  16
ATOM     16  C   UNL     1       1.598   8.662  19.671  0.00  0.00    +0.000 A 
ATOM     17  C   UNL     1       1.245   8.118  20.936  0.00  0.00    +0.000 A 
ATOM     18  C   UNL     1       0.682   8.894  22.095  0.00  0.00    +0.000 C 
ATOM     19  C   UNL     1       1.450   6.734  21.201  0.00  0.00    +0.000 A 
ATOM     20  C   UNL     1       2.023   5.874  20.269  0.00  0.00    +0.000 A 
ATOM     21  C   UNL     1       2.175   4.400  20.520  0.00  0.00    +0.000 C 
ATOM     22  C   UNL     1       2.453   6.425  19.068  0.00  0.00    +0.000 A 
ATOM     23  C   UNL     1       2.265   7.796  18.746  0.00  0.00    +0.000 A 
ATOM     24  C   UNL     1       2.905   8.196  17.440  0.00  0.00    +0.000 C 
ENDBRANCH  13  16
ENDBRANCH  11  13
BRANCH   1  25
ATOM     25  C   UNL     1      -1.427  11.234  21.772  0.00  0.00    +0.000 C 
BRANCH  25  27
ATOM     26  N   UNL     1      -2.856  12.721  23.135  0.00  0.00    +0.000 N 
ATOM     27  C   UNL     1      -1.628  12.553  22.495  0.00  0.00    +0.000 C 
ATOM     28  O   UNL     1      -0.714  13.379  22.531  0.00  0.00    +0.000 OA
ATOM     29  H   UNL     1      -3.344  11.873  23.390  0.00  0.00    +0.000 HD
BRANCH  26  35
ATOM     30  C   UNL     1      -4.378  14.685  23.130  0.00  0.00    +0.000 A 
ATOM     31  C   UNL     1      -4.760  15.893  23.744  0.00  0.00    +0.000 A 
ATOM     32  C   UNL     1      -4.095  16.393  24.863  0.00  0.00    +0.000 A 
ATOM     33  C   UNL     1      -3.026  15.688  25.382  0.00  0.00    +0.000 A 
ATOM     34  C   UNL     1      -2.626  14.500  24.774  0.00  0.00    +0.000 A 
ATOM     35  C   UNL     1      -3.301  13.958  23.659  0.00  0.00    +0.000 A 
BRANCH  30  37
ATOM     36  C   UNL     1      -6.442  13.642  22.470  0.00  0.00    +0.000 C 
ATOM     37  O   UNL     1      -5.251  14.329  22.137  0.00  0.00    +0.000 OA
ENDBRANCH  30  37
ENDBRANCH  26  35
ENDBRANCH  25  27
ENDBRANCH   1  25
TORSDOF 6
ENDMDL
