MODEL 1
REMARK VINA RESULT:      -9.3      0.000      0.000
REMARK  Name = 
REMARK  7 active torsions:
REMARK  status: ('A' for Active; 'I' for Inactive)
REMARK    1  A    between atoms: C_1  and  C_2
REMARK    2  A    between atoms: C_9  and  C_10
REMARK    3  A    between atoms: C_9  and  C_11
REMARK    4  A    between atoms: C_13  and  N_14
REMARK    5  A    between atoms: C_15  and  C_17
REMARK    6  A    between atoms: N_19  and  C_20
REMARK    7  A    between atoms: C_20  and  C_21
REMARK                            x       y       z     vdW  Elec       q    Type
REMARK                         _______ _______ _______ _____ _____    ______ ____
ROOT
ATOM      1  C   UNL     1       3.088   5.064  18.393  0.00  0.00    +0.000 A 
ATOM      2  C   UNL     1       2.257   6.197  18.314  0.00  0.00    +0.000 A 
ATOM      3  C   UNL     1       2.717   7.444  17.866  0.00  0.00    +0.000 A 
ATOM      4  C   UNL     1       4.037   7.552  17.428  0.00  0.00    +0.000 A 
ATOM      5  C   UNL     1       4.874   6.431  17.449  0.00  0.00    +0.000 A 
ATOM      6  C   UNL     1       4.396   5.206  17.913  0.00  0.00    +0.000 A 
ATOM      7  F   UNL     1       5.245   4.169  17.959  0.00  0.00    +0.000 F 
ENDROOT
BRANCH   1  16
ATOM      8  C   UNL     1       1.279   5.358  20.603  0.00  0.00    +0.000 C 
ATOM      9  C   UNL     1       1.801   3.935  20.339  0.00  0.00    +0.000 C 
ATOM     10  F   UNL     1       0.650   3.170  20.254  0.00  0.00    +0.000 F 
ATOM     11  C   UNL     1       2.518   3.439  21.589  0.00  0.00    +0.000 C 
ATOM     12  O   UNL     1       3.442   2.366  21.403  0.00  0.00    +0.000 OA
ATOM     13  C   UNL     1       4.109   2.289  20.246  0.00  0.00    +0.000 C 
ATOM     14  N   UNL     1       5.186   1.483  20.359  0.00  0.00    +0.000 N 
ATOM     15  N   UNL     1       3.827   2.894  19.165  0.00  0.00    +0.000 NA
ATOM     16  C   UNL     1       2.629   3.731  19.016  0.00  0.00    +0.000 C 
ATOM     17  C   UNL     1       1.742   2.902  18.038  0.00  0.00    +0.000 C 
ATOM     18  H   UNL     1       5.577   1.454  21.291  0.00  0.00    +0.000 HD
ATOM     19  H   UNL     1       5.863   1.638  19.622  0.00  0.00    +0.000 HD
ENDBRANCH   1  16
BRANCH   3  20
ATOM     20  N   UNL     1       1.889   8.592  17.837  0.00  0.00    +0.000 N 
ATOM     21  C   UNL     1       1.303   9.192  18.950  0.00  0.00    +0.000 C 
ATOM     22  O   UNL     1       1.559   8.884  20.109  0.00  0.00    +0.000 OA
ATOM     23  H   UNL     1       1.732   9.073  16.958  0.00  0.00    +0.000 HD
BRANCH  21  24
ATOM     24  C   UNL     1       0.351  10.272  18.649  0.00  0.00    +0.000 A 
ATOM     25  N   UNL     1      -0.880  10.058  18.127  0.00  0.00    +0.000 NA
ATOM     26  N   UNL     1      -1.428  11.299  18.078  0.00  0.00    +0.000 N 
ATOM     27  C   UNL     1      -0.588  12.288  18.481  0.00  0.00    +0.000 A 
ATOM     28  C   UNL     1       0.568  11.666  18.871  0.00  0.00    +0.000 A 
ATOM     29 CL   UNL     1       1.940  12.440  19.503  0.00  0.00    +0.000 Cl
BRANCH  26  30
ATOM     30  C   UNL     1      -2.788  11.496  17.620  0.00  0.00    +0.000 C 
BRANCH  30  31
ATOM     31  C   UNL     1      -3.310  10.295  16.877  0.00  0.00    +0.000 C 
ATOM     32  F   UNL     1      -3.892   9.427  17.744  0.00  0.00    +0.000 F 
ATOM     33  F   UNL     1      -4.297  10.697  16.030  0.00  0.00    +0.000 F 
ENDBRANCH  30  31
ENDBRANCH  26  30
ENDBRANCH  21  24
ENDBRANCH   3  20
TORSDOF 5
ENDMDL
MODEL 2
REMARK VINA RESULT:      -9.3      3.632      4.677
REMARK  Name = 
REMARK  7 active torsions:
REMARK  status: ('A' for Active; 'I' for Inactive)
REMARK    1  A    between atoms: C_1  and  C_2
REMARK    2  A    between atoms: C_9  and  C_10
REMARK    3  A    between atoms: C_9  and  C_11
REMARK    4  A    between atoms: C_13  and  N_14
REMARK    5  A    between atoms: C_15  and  C_17
REMARK    6  A    between atoms: N_19  and  C_20
REMARK    7  A    between atoms: C_20  and  C_21
REMARK                            x       y       z     vdW  Elec       q    Type
REMARK                         _______ _______ _______ _____ _____    ______ ____
ROOT
ATOM      1  C   UNL     1       4.494   5.893  17.674  0.00  0.00    +0.000 A 
ATOM      2  C   UNL     1       3.901   6.999  18.311  0.00  0.00    +0.000 A 
ATOM      3  C   UNL     1       2.524   7.076  18.570  0.00  0.00    +0.000 A 
ATOM      4  C   UNL     1       1.719   5.987  18.232  0.00  0.00    +0.000 A 
ATOM      5  C   UNL     1       2.287   4.853  17.642  0.00  0.00    +0.000 A 
ATOM      6  C   UNL     1       3.657   4.809  17.382  0.00  0.00    +0.000 A 
ATOM      7  F   UNL     1       4.152   3.722  16.773  0.00  0.00    +0.000 F 
ENDROOT
BRANCH   1  16
ATOM      8  C   UNL     1       6.118   4.114  19.237  0.00  0.00    +0.000 C 
ATOM      9  C   UNL     1       6.869   5.033  18.257  0.00  0.00    +0.000 C 
ATOM     10  F   UNL     1       7.652   4.162  17.519  0.00  0.00    +0.000 F 
ATOM     11  C   UNL     1       7.855   5.885  19.047  0.00  0.00    +0.000 C 
ATOM     12  O   UNL     1       8.302   7.084  18.412  0.00  0.00    +0.000 OA
ATOM     13  C   UNL     1       7.462   7.725  17.592  0.00  0.00    +0.000 C 
ATOM     14  N   UNL     1       7.866   8.996  17.379  0.00  0.00    +0.000 N 
ATOM     15  N   UNL     1       6.398   7.258  17.077  0.00  0.00    +0.000 NA
ATOM     16  C   UNL     1       5.978   5.863  17.259  0.00  0.00    +0.000 C 
ATOM     17  C   UNL     1       6.177   5.249  15.840  0.00  0.00    +0.000 C 
ATOM     18  H   UNL     1       8.386   9.392  18.150  0.00  0.00    +0.000 HD
ATOM     19  H   UNL     1       7.122   9.584  17.026  0.00  0.00    +0.000 HD
ENDBRANCH   1  16
BRANCH   3  20
ATOM     20  N   UNL     1       1.926   8.212  19.164  0.00  0.00    +0.000 N 
ATOM     21  C   UNL     1       1.586   9.387  18.496  0.00  0.00    +0.000 C 
ATOM     22  O   UNL     1       1.625   9.519  17.278  0.00  0.00    +0.000 OA
ATOM     23  H   UNL     1       1.664   8.185  20.144  0.00  0.00    +0.000 HD
BRANCH  21  24
ATOM     24  C   UNL     1       1.132  10.488  19.360  0.00  0.00    +0.000 A 
ATOM     25  N   UNL     1       0.292  10.316  20.408  0.00  0.00    +0.000 NA
ATOM     26  N   UNL     1       0.199  11.556  20.953  0.00  0.00    +0.000 N 
ATOM     27  C   UNL     1       0.885  12.510  20.268  0.00  0.00    +0.000 A 
ATOM     28  C   UNL     1       1.512  11.858  19.239  0.00  0.00    +0.000 A 
ATOM     29 CL   UNL     1       2.539  12.579  18.097  0.00  0.00    +0.000 Cl
BRANCH  26  30
ATOM     30  C   UNL     1      -0.581  11.790  22.150  0.00  0.00    +0.000 C 
BRANCH  30  31
ATOM     31  C   UNL     1      -1.003  10.502  22.805  0.00  0.00    +0.000 C 
ATOM     32  F   UNL     1       0.005  10.017  23.575  0.00  0.00    +0.000 F 
ATOM     33  F   UNL     1      -2.034  10.758  23.656  0.00  0.00    +0.000 F 
ENDBRANCH  30  31
ENDBRANCH  26  30
ENDBRANCH  21  24
ENDBRANCH   3  20
TORSDOF 5
ENDMDL
MODEL 3
REMARK VINA RESULT:      -9.2      2.516      2.713
REMARK  Name = 
REMARK  7 active torsions:
REMARK  status: ('A' for Active; 'I' for Inactive)
REMARK    1  A    between atoms: C_1  and  C_2
REMARK    2  A    between atoms: C_9  and  C_10
REMARK    3  A    between atoms: C_9  and  C_11
REMARK    4  A    between atoms: C_13  and  N_14
REMARK    5  A    between atoms: C_15  and  C_17
REMARK    6  A    between atoms: N_19  and  C_20
REMARK    7  A    between atoms: C_20  and  C_21
REMARK                            x       y       z     vdW  Elec       q    Type
REMARK                         _______ _______ _______ _____ _____    ______ ____
ROOT
ATOM      1  C   UNL     1       2.995   4.707  18.519  0.00  0.00    +0.000 A 
ATOM      2  C   UNL     1       2.375   5.847  19.064  0.00  0.00    +0.000 A 
ATOM      3  C   UNL     1       2.715   7.152  18.678  0.00  0.00    +0.000 A 
ATOM      4  C   UNL     1       3.668   7.325  17.673  0.00  0.00    +0.000 A 
ATOM      5  C   UNL     1       4.266   6.209  17.077  0.00  0.00    +0.000 A 
ATOM      6  C   UNL     1       3.920   4.923  17.490  0.00  0.00    +0.000 A 
ATOM      7  F   UNL     1       4.553   3.884  16.925  0.00  0.00    +0.000 F 
ENDROOT
BRANCH   1  16
ATOM      8  C   UNL     1       0.843   4.524  20.411  0.00  0.00    +0.000 C 
ATOM      9  C   UNL     1       1.681   3.250  20.213  0.00  0.00    +0.000 C 
ATOM     10  F   UNL     1       0.740   2.274  19.930  0.00  0.00    +0.000 F 
ATOM     11  C   UNL     1       2.281   2.848  21.554  0.00  0.00    +0.000 C 
ATOM     12  O   UNL     1       3.424   1.992  21.504  0.00  0.00    +0.000 OA
ATOM     13  C   UNL     1       4.264   2.107  20.470  0.00  0.00    +0.000 C 
ATOM     14  N   UNL     1       5.453   1.529  20.744  0.00  0.00    +0.000 N 
ATOM     15  N   UNL     1       4.035   2.695  19.367  0.00  0.00    +0.000 NA
ATOM     16  C   UNL     1       2.729   3.280  19.039  0.00  0.00    +0.000 C 
ATOM     17  C   UNL     1       2.195   2.339  17.916  0.00  0.00    +0.000 C 
ATOM     18  H   UNL     1       5.692   1.534  21.726  0.00  0.00    +0.000 HD
ATOM     19  H   UNL     1       6.190   1.852  20.129  0.00  0.00    +0.000 HD
ENDBRANCH   1  16
BRANCH   3  20
ATOM     20  N   UNL     1       2.125   8.295  19.267  0.00  0.00    +0.000 N 
ATOM     21  C   UNL     1       1.458   9.305  18.576  0.00  0.00    +0.000 C 
ATOM     22  O   UNL     1       1.171   9.247  17.385  0.00  0.00    +0.000 OA
ATOM     23  H   UNL     1       2.123   8.393  20.276  0.00  0.00    +0.000 HD
BRANCH  21  24
ATOM     24  C   UNL     1       1.078  10.472  19.388  0.00  0.00    +0.000 A 
ATOM     25  N   UNL     1       0.250  10.398  20.457  0.00  0.00    +0.000 NA
ATOM     26  N   UNL     1       0.231  11.668  20.937  0.00  0.00    +0.000 N 
ATOM     27  C   UNL     1       0.952  12.548  20.191  0.00  0.00    +0.000 A 
ATOM     28  C   UNL     1       1.525  11.812  19.189  0.00  0.00    +0.000 A 
ATOM     29 CL   UNL     1       2.565  12.419  17.993  0.00  0.00    +0.000 Cl
BRANCH  26  30
ATOM     30  C   UNL     1      -0.512  12.004  22.133  0.00  0.00    +0.000 C 
BRANCH  30  31
ATOM     31  C   UNL     1      -1.150  10.791  22.757  0.00  0.00    +0.000 C 
ATOM     32  F   UNL     1      -0.275  10.184  23.599  0.00  0.00    +0.000 F 
ATOM     33  F   UNL     1      -2.196  11.192  23.529  0.00  0.00    +0.000 F 
ENDBRANCH  30  31
ENDBRANCH  26  30
ENDBRANCH  21  24
ENDBRANCH   3  20
TORSDOF 5
ENDMDL
MODEL 4
REMARK VINA RESULT:      -9.2      0.949      1.078
REMARK  Name = 
REMARK  7 active torsions:
REMARK  status: ('A' for Active; 'I' for Inactive)
REMARK    1  A    between atoms: C_1  and  C_2
REMARK    2  A    between atoms: C_9  and  C_10
REMARK    3  A    between atoms: C_9  and  C_11
REMARK    4  A    between atoms: C_13  and  N_14
REMARK    5  A    between atoms: C_15  and  C_17
REMARK    6  A    between atoms: N_19  and  C_20
REMARK    7  A    between atoms: C_20  and  C_21
REMARK                            x       y       z     vdW  Elec       q    Type
REMARK                         _______ _______ _______ _____ _____    ______ ____
ROOT
ATOM      1  C   UNL     1       2.734   5.098  18.278  0.00  0.00    +0.000 A 
ATOM      2  C   UNL     1       1.921   6.244  18.191  0.00  0.00    +0.000 A 
ATOM      3  C   UNL     1       2.429   7.510  17.860  0.00  0.00    +0.000 A 
ATOM      4  C   UNL     1       3.785   7.626  17.551  0.00  0.00    +0.000 A 
ATOM      5  C   UNL     1       4.609   6.496  17.582  0.00  0.00    +0.000 A 
ATOM      6  C   UNL     1       4.081   5.252  17.928  0.00  0.00    +0.000 A 
ATOM      7  F   UNL     1       4.916   4.204  17.990  0.00  0.00    +0.000 F 
ENDROOT
BRANCH   1  16
ATOM      8  C   UNL     1       2.405   4.936  21.126  0.00  0.00    +0.000 C 
ATOM      9  C   UNL     1       2.231   3.621  20.348  0.00  0.00    +0.000 C 
ATOM     10  F   UNL     1       0.998   3.150  20.764  0.00  0.00    +0.000 F 
ATOM     11  C   UNL     1       3.242   2.607  20.870  0.00  0.00    +0.000 C 
ATOM     12  O   UNL     1       3.549   1.516  20.001  0.00  0.00    +0.000 OA
ATOM     13  C   UNL     1       3.519   1.722  18.680  0.00  0.00    +0.000 C 
ATOM     14  N   UNL     1       4.182   0.748  18.021  0.00  0.00    +0.000 N 
ATOM     15  N   UNL     1       2.979   2.701  18.076  0.00  0.00    +0.000 NA
ATOM     16  C   UNL     1       2.211   3.738  18.778  0.00  0.00    +0.000 C 
ATOM     17  C   UNL     1       0.748   3.466  18.312  0.00  0.00    +0.000 C 
ATOM     18  H   UNL     1       4.932   0.332  18.556  0.00  0.00    +0.000 HD
ATOM     19  H   UNL     1       4.436   1.022  17.081  0.00  0.00    +0.000 HD
ENDBRANCH   1  16
BRANCH   3  20
ATOM     20  N   UNL     1       1.616   8.667  17.824  0.00  0.00    +0.000 N 
ATOM     21  C   UNL     1       1.092   9.320  18.938  0.00  0.00    +0.000 C 
ATOM     22  O   UNL     1       1.399   9.056  20.095  0.00  0.00    +0.000 OA
ATOM     23  H   UNL     1       1.422   9.114  16.935  0.00  0.00    +0.000 HD
BRANCH  21  24
ATOM     24  C   UNL     1       0.140  10.401  18.638  0.00  0.00    +0.000 A 
ATOM     25  N   UNL     1      -1.153  10.184  18.299  0.00  0.00    +0.000 NA
ATOM     26  N   UNL     1      -1.668  11.434  18.180  0.00  0.00    +0.000 N 
ATOM     27  C   UNL     1      -0.756  12.425  18.366  0.00  0.00    +0.000 A 
ATOM     28  C   UNL     1       0.422  11.800  18.677  0.00  0.00    +0.000 A 
ATOM     29 CL   UNL     1       1.884  12.579  19.046  0.00  0.00    +0.000 Cl
BRANCH  26  30
ATOM     30  C   UNL     1      -3.069  11.639  17.874  0.00  0.00    +0.000 C 
BRANCH  30  31
ATOM     31  C   UNL     1      -3.434  11.085  16.522  0.00  0.00    +0.000 C 
ATOM     32  F   UNL     1      -2.418  11.287  15.645  0.00  0.00    +0.000 F 
ATOM     33  F   UNL     1      -3.579   9.736  16.624  0.00  0.00    +0.000 F 
ENDBRANCH  30  31
ENDBRANCH  26  30
ENDBRANCH  21  24
ENDBRANCH   3  20
TORSDOF 5
ENDMDL
MODEL 5
REMARK VINA RESULT:      -9.2      2.612      3.285
REMARK  Name = 
REMARK  7 active torsions:
REMARK  status: ('A' for Active; 'I' for Inactive)
REMARK    1  A    between atoms: C_1  and  C_2
REMARK    2  A    between atoms: C_9  and  C_10
REMARK    3  A    between atoms: C_9  and  C_11
REMARK    4  A    between atoms: C_13  and  N_14
REMARK    5  A    between atoms: C_15  and  C_17
REMARK    6  A    between atoms: N_19  and  C_20
REMARK    7  A    between atoms: C_20  and  C_21
REMARK                            x       y       z     vdW  Elec       q    Type
REMARK                         _______ _______ _______ _____ _____    ______ ____
ROOT
ATOM      1  C   UNL     1       3.469   5.144  18.580  0.00  0.00    +0.000 A 
ATOM      2  C   UNL     1       2.485   6.067  18.980  0.00  0.00    +0.000 A 
ATOM      3  C   UNL     1       2.484   7.405  18.556  0.00  0.00    +0.000 A 
ATOM      4  C   UNL     1       3.468   7.823  17.659  0.00  0.00    +0.000 A 
ATOM      5  C   UNL     1       4.432   6.915  17.206  0.00  0.00    +0.000 A 
ATOM      6  C   UNL     1       4.418   5.594  17.654  0.00  0.00    +0.000 A 
ATOM      7  F   UNL     1       5.388   4.771  17.230  0.00  0.00    +0.000 F 
ENDROOT
BRANCH   1  16
ATOM      8  C   UNL     1       2.535   3.100  16.793  0.00  0.00    +0.000 C 
ATOM      9  C   UNL     1       2.858   2.650  18.227  0.00  0.00    +0.000 C 
ATOM     10  F   UNL     1       3.729   1.588  18.053  0.00  0.00    +0.000 F 
ATOM     11  C   UNL     1       1.604   2.040  18.841  0.00  0.00    +0.000 C 
ATOM     12  O   UNL     1       1.562   1.985  20.268  0.00  0.00    +0.000 OA
ATOM     13  C   UNL     1       2.175   2.949  20.964  0.00  0.00    +0.000 C 
ATOM     14  N   UNL     1       1.739   2.978  22.241  0.00  0.00    +0.000 N 
ATOM     15  N   UNL     1       3.038   3.772  20.524  0.00  0.00    +0.000 NA
ATOM     16  C   UNL     1       3.557   3.715  19.151  0.00  0.00    +0.000 C 
ATOM     17  C   UNL     1       5.034   3.256  19.354  0.00  0.00    +0.000 C 
ATOM     18  H   UNL     1       0.788   2.656  22.354  0.00  0.00    +0.000 HD
ATOM     19  H   UNL     1       1.945   3.857  22.699  0.00  0.00    +0.000 HD
ENDBRANCH   1  16
BRANCH   3  20
ATOM     20  N   UNL     1       1.521   8.341  19.002  0.00  0.00    +0.000 N 
ATOM     21  C   UNL     1       1.401   9.653  18.549  0.00  0.00    +0.000 C 
ATOM     22  O   UNL     1       2.022  10.109  17.595  0.00  0.00    +0.000 OA
ATOM     23  H   UNL     1       0.813   8.051  19.668  0.00  0.00    +0.000 HD
BRANCH  21  24
ATOM     24  C   UNL     1       0.432  10.481  19.283  0.00  0.00    +0.000 A 
ATOM     25  N   UNL     1       0.718  11.107  20.449  0.00  0.00    +0.000 NA
ATOM     26  N   UNL     1      -0.417  11.797  20.730  0.00  0.00    +0.000 N 
ATOM     27  C   UNL     1      -1.422  11.591  19.837  0.00  0.00    +0.000 A 
ATOM     28  C   UNL     1      -0.910  10.757  18.879  0.00  0.00    +0.000 A 
ATOM     29 CL   UNL     1      -1.738  10.212  17.502  0.00  0.00    +0.000 Cl
BRANCH  26  30
ATOM     30  C   UNL     1      -0.501  12.656  21.893  0.00  0.00    +0.000 C 
BRANCH  30  31
ATOM     31  C   UNL     1      -1.250  12.000  23.023  0.00  0.00    +0.000 C 
ATOM     32  F   UNL     1      -2.587  12.062  22.794  0.00  0.00    +0.000 F 
ATOM     33  F   UNL     1      -0.936  10.676  23.048  0.00  0.00    +0.000 F 
ENDBRANCH  30  31
ENDBRANCH  26  30
ENDBRANCH  21  24
ENDBRANCH   3  20
TORSDOF 5
ENDMDL
MODEL 6
REMARK VINA RESULT:      -9.1      2.645      3.234
REMARK  Name = 
REMARK  7 active torsions:
REMARK  status: ('A' for Active; 'I' for Inactive)
REMARK    1  A    between atoms: C_1  and  C_2
REMARK    2  A    between atoms: C_9  and  C_10
REMARK    3  A    between atoms: C_9  and  C_11
REMARK    4  A    between atoms: C_13  and  N_14
REMARK    5  A    between atoms: C_15  and  C_17
REMARK    6  A    between atoms: N_19  and  C_20
REMARK    7  A    between atoms: C_20  and  C_21
REMARK                            x       y       z     vdW  Elec       q    Type
REMARK                         _______ _______ _______ _____ _____    ______ ____
ROOT
ATOM      1  C   UNL     1       3.200   5.300  18.687  0.00  0.00    +0.000 A 
ATOM      2  C   UNL     1       2.388   6.236  19.354  0.00  0.00    +0.000 A 
ATOM      3  C   UNL     1       2.368   7.598  19.015  0.00  0.00    +0.000 A 
ATOM      4  C   UNL     1       3.142   8.030  17.937  0.00  0.00    +0.000 A 
ATOM      5  C   UNL     1       3.922   7.114  17.224  0.00  0.00    +0.000 A 
ATOM      6  C   UNL     1       3.935   5.768  17.591  0.00  0.00    +0.000 A 
ATOM      7  F   UNL     1       4.733   4.933  16.909  0.00  0.00    +0.000 F 
ENDROOT
BRANCH   1  16
ATOM      8  C   UNL     1       2.123   3.385  16.838  0.00  0.00    +0.000 C 
ATOM      9  C   UNL     1       2.562   2.834  18.205  0.00  0.00    +0.000 C 
ATOM     10  F   UNL     1       3.416   1.792  17.884  0.00  0.00    +0.000 F 
ATOM     11  C   UNL     1       1.362   2.174  18.873  0.00  0.00    +0.000 C 
ATOM     12  O   UNL     1       1.437   2.016  20.291  0.00  0.00    +0.000 OA
ATOM     13  C   UNL     1       2.105   2.930  21.003  0.00  0.00    +0.000 C 
ATOM     14  N   UNL     1       1.775   2.864  22.310  0.00  0.00    +0.000 N 
ATOM     15  N   UNL     1       2.929   3.788  20.555  0.00  0.00    +0.000 NA
ATOM     16  C   UNL     1       3.335   3.834  19.144  0.00  0.00    +0.000 C 
ATOM     17  C   UNL     1       4.823   3.370  19.192  0.00  0.00    +0.000 C 
ATOM     18  H   UNL     1       0.836   2.530  22.477  0.00  0.00    +0.000 HD
ATOM     19  H   UNL     1       2.017   3.709  22.812  0.00  0.00    +0.000 HD
ENDBRANCH   1  16
BRANCH   3  20
ATOM     20  N   UNL     1       1.588   8.544  19.722  0.00  0.00    +0.000 N 
ATOM     21  C   UNL     1       0.813   9.546  19.142  0.00  0.00    +0.000 C 
ATOM     22  O   UNL     1       0.593   9.633  17.939  0.00  0.00    +0.000 OA
ATOM     23  H   UNL     1       1.525   8.483  20.733  0.00  0.00    +0.000 HD
BRANCH  21  24
ATOM     24  C   UNL     1       0.227  10.508  20.088  0.00  0.00    +0.000 A 
ATOM     25  N   UNL     1      -0.432  10.143  21.213  0.00  0.00    +0.000 NA
ATOM     26  N   UNL     1      -0.735  11.325  21.807  0.00  0.00    +0.000 N 
ATOM     27  C   UNL     1      -0.356  12.415  21.088  0.00  0.00    +0.000 A 
ATOM     28  C   UNL     1       0.281  11.931  19.976  0.00  0.00    +0.000 A 
ATOM     29 CL   UNL     1       0.991  12.874  18.758  0.00  0.00    +0.000 Cl
BRANCH  26  30
ATOM     30  C   UNL     1      -1.408  11.366  23.089  0.00  0.00    +0.000 C 
BRANCH  30  31
ATOM     31  C   UNL     1      -2.604  12.281  23.065  0.00  0.00    +0.000 C 
ATOM     32  F   UNL     1      -3.281  12.134  21.898  0.00  0.00    +0.000 F 
ATOM     33  F   UNL     1      -3.466  11.903  24.048  0.00  0.00    +0.000 F 
ENDBRANCH  30  31
ENDBRANCH  26  30
ENDBRANCH  21  24
ENDBRANCH   3  20
TORSDOF 5
ENDMDL
MODEL 7
REMARK VINA RESULT:      -9.1      1.117      1.136
REMARK  Name = 
REMARK  7 active torsions:
REMARK  status: ('A' for Active; 'I' for Inactive)
REMARK    1  A    between atoms: C_1  and  C_2
REMARK    2  A    between atoms: C_9  and  C_10
REMARK    3  A    between atoms: C_9  and  C_11
REMARK    4  A    between atoms: C_13  and  N_14
REMARK    5  A    between atoms: C_15  and  C_17
REMARK    6  A    between atoms: N_19  and  C_20
REMARK    7  A    between atoms: C_20  and  C_21
REMARK                            x       y       z     vdW  Elec       q    Type
REMARK                         _______ _______ _______ _____ _____    ______ ____
ROOT
ATOM      1  C   UNL     1       3.119   4.701  18.436  0.00  0.00    +0.000 A 
ATOM      2  C   UNL     1       2.286   5.824  18.593  0.00  0.00    +0.000 A 
ATOM      3  C   UNL     1       2.663   7.111  18.177  0.00  0.00    +0.000 A 
ATOM      4  C   UNL     1       3.891   7.272  17.533  0.00  0.00    +0.000 A 
ATOM      5  C   UNL     1       4.719   6.165  17.320  0.00  0.00    +0.000 A 
ATOM      6  C   UNL     1       4.326   4.900  17.756  0.00  0.00    +0.000 A 
ATOM      7  F   UNL     1       5.172   3.875  17.572  0.00  0.00    +0.000 F 
ENDROOT
BRANCH   1  16
ATOM      8  C   UNL     1       1.007   4.732  20.381  0.00  0.00    +0.000 C 
ATOM      9  C   UNL     1       1.755   3.398  20.214  0.00  0.00    +0.000 C 
ATOM     10  F   UNL     1       0.745   2.478  19.990  0.00  0.00    +0.000 F 
ATOM     11  C   UNL     1       2.360   3.006  21.556  0.00  0.00    +0.000 C 
ATOM     12  O   UNL     1       3.442   2.075  21.513  0.00  0.00    +0.000 OA
ATOM     13  C   UNL     1       4.262   2.095  20.456  0.00  0.00    +0.000 C 
ATOM     14  N   UNL     1       5.417   1.450  20.725  0.00  0.00    +0.000 N 
ATOM     15  N   UNL     1       4.045   2.657  19.337  0.00  0.00    +0.000 NA
ATOM     16  C   UNL     1       2.772   3.315  19.016  0.00  0.00    +0.000 C 
ATOM     17  C   UNL     1       2.150   2.370  17.943  0.00  0.00    +0.000 C 
ATOM     18  H   UNL     1       5.680   1.475  21.701  0.00  0.00    +0.000 HD
ATOM     19  H   UNL     1       6.158   1.700  20.082  0.00  0.00    +0.000 HD
ENDBRANCH   1  16
BRANCH   3  20
ATOM     20  N   UNL     1       1.843   8.245  18.383  0.00  0.00    +0.000 N 
ATOM     21  C   UNL     1       1.380   8.692  19.620  0.00  0.00    +0.000 C 
ATOM     22  O   UNL     1       1.756   8.241  20.696  0.00  0.00    +0.000 OA
ATOM     23  H   UNL     1       1.595   8.833  17.595  0.00  0.00    +0.000 HD
BRANCH  21  24
ATOM     24  C   UNL     1       0.407   9.794  19.561  0.00  0.00    +0.000 A 
ATOM     25  N   UNL     1      -0.088  10.290  18.403  0.00  0.00    +0.000 NA
ATOM     26  N   UNL     1      -0.984  11.226  18.811  0.00  0.00    +0.000 N 
ATOM     27  C   UNL     1      -1.034  11.387  20.160  0.00  0.00    +0.000 A 
ATOM     28  C   UNL     1      -0.160  10.471  20.683  0.00  0.00    +0.000 A 
ATOM     29 CL   UNL     1       0.134  10.220  22.335  0.00  0.00    +0.000 Cl
BRANCH  26  30
ATOM     30  C   UNL     1      -1.783  11.963  17.855  0.00  0.00    +0.000 C 
BRANCH  30  31
ATOM     31  C   UNL     1      -2.689  11.056  17.064  0.00  0.00    +0.000 C 
ATOM     32  F   UNL     1      -3.127  10.036  17.845  0.00  0.00    +0.000 F 
ATOM     33  F   UNL     1      -3.800  11.753  16.700  0.00  0.00    +0.000 F 
ENDBRANCH  30  31
ENDBRANCH  26  30
ENDBRANCH  21  24
ENDBRANCH   3  20
TORSDOF 5
ENDMDL
MODEL 8
REMARK VINA RESULT:      -9.1      3.358      4.701
REMARK  Name = 
REMARK  7 active torsions:
REMARK  status: ('A' for Active; 'I' for Inactive)
REMARK    1  A    between atoms: C_1  and  C_2
REMARK    2  A    between atoms: C_9  and  C_10
REMARK    3  A    between atoms: C_9  and  C_11
REMARK    4  A    between atoms: C_13  and  N_14
REMARK    5  A    between atoms: C_15  and  C_17
REMARK    6  A    between atoms: N_19  and  C_20
REMARK    7  A    between atoms: C_20  and  C_21
REMARK                            x       y       z     vdW  Elec       q    Type
REMARK                         _______ _______ _______ _____ _____    ______ ____
ROOT
ATOM      1  C   UNL     1       4.556   5.890  17.592  0.00  0.00    +0.000 A 
ATOM      2  C   UNL     1       3.897   7.017  18.118  0.00  0.00    +0.000 A 
ATOM      3  C   UNL     1       2.508   7.060  18.313  0.00  0.00    +0.000 A 
ATOM      4  C   UNL     1       1.757   5.920  18.025  0.00  0.00    +0.000 A 
ATOM      5  C   UNL     1       2.391   4.768  17.546  0.00  0.00    +0.000 A 
ATOM      6  C   UNL     1       3.772   4.757  17.348  0.00  0.00    +0.000 A 
ATOM      7  F   UNL     1       4.331   3.647  16.844  0.00  0.00    +0.000 F 
ENDROOT
BRANCH   1  16
ATOM      8  C   UNL     1       6.146   4.165  19.247  0.00  0.00    +0.000 C 
ATOM      9  C   UNL     1       6.920   5.088  18.290  0.00  0.00    +0.000 C 
ATOM     10  F   UNL     1       7.753   4.225  17.598  0.00  0.00    +0.000 F 
ATOM     11  C   UNL     1       7.853   5.969  19.110  0.00  0.00    +0.000 C 
ATOM     12  O   UNL     1       8.303   7.170  18.481  0.00  0.00    +0.000 OA
ATOM     13  C   UNL     1       7.487   7.784  17.617  0.00  0.00    +0.000 C 
ATOM     14  N   UNL     1       7.874   9.060  17.406  0.00  0.00    +0.000 N 
ATOM     15  N   UNL     1       6.457   7.289  17.062  0.00  0.00    +0.000 NA
ATOM     16  C   UNL     1       6.058   5.887  17.243  0.00  0.00    +0.000 C 
ATOM     17  C   UNL     1       6.332   5.260  15.841  0.00  0.00    +0.000 C 
ATOM     18  H   UNL     1       8.351   9.476  18.194  0.00  0.00    +0.000 HD
ATOM     19  H   UNL     1       7.134   9.628  17.013  0.00  0.00    +0.000 HD
ENDBRANCH   1  16
BRANCH   3  20
ATOM     20  N   UNL     1       1.845   8.214  18.794  0.00  0.00    +0.000 N 
ATOM     21  C   UNL     1       1.355   8.382  20.088  0.00  0.00    +0.000 C 
ATOM     22  O   UNL     1       1.575   7.606  21.011  0.00  0.00    +0.000 OA
ATOM     23  H   UNL     1       1.748   9.023  18.190  0.00  0.00    +0.000 HD
BRANCH  21  24
ATOM     24  C   UNL     1       0.558   9.600  20.300  0.00  0.00    +0.000 A 
ATOM     25  N   UNL     1       0.536  10.283  21.469  0.00  0.00    +0.000 NA
ATOM     26  N   UNL     1      -0.259  11.352  21.202  0.00  0.00    +0.000 N 
ATOM     27  C   UNL     1      -0.787  11.344  19.949  0.00  0.00    +0.000 A 
ATOM     28  C   UNL     1      -0.274  10.236  19.329  0.00  0.00    +0.000 A 
ATOM     29 CL   UNL     1      -0.579   9.773  17.726  0.00  0.00    +0.000 Cl
BRANCH  26  30
ATOM     30  C   UNL     1      -0.496  12.374  22.199  0.00  0.00    +0.000 C 
BRANCH  30  31
ATOM     31  C   UNL     1      -1.703  12.063  23.045  0.00  0.00    +0.000 C 
ATOM     32  F   UNL     1      -2.829  12.120  22.290  0.00  0.00    +0.000 F 
ATOM     33  F   UNL     1      -1.612  10.779  23.487  0.00  0.00    +0.000 F 
ENDBRANCH  30  31
ENDBRANCH  26  30
ENDBRANCH  21  24
ENDBRANCH   3  20
TORSDOF 5
ENDMDL
MODEL 9
REMARK VINA RESULT:      -9.1      2.154      2.623
REMARK  Name = 
REMARK  7 active torsions:
REMARK  status: ('A' for Active; 'I' for Inactive)
REMARK    1  A    between atoms: C_1  and  C_2
REMARK    2  A    between atoms: C_9  and  C_10
REMARK    3  A    between atoms: C_9  and  C_11
REMARK    4  A    between atoms: C_13  and  N_14
REMARK    5  A    between atoms: C_15  and  C_17
REMARK    6  A    between atoms: N_19  and  C_20
REMARK    7  A    between atoms: C_20  and  C_21
REMARK                            x       y       z     vdW  Elec       q    Type
REMARK                         _______ _______ _______ _____ _____    ______ ____
ROOT
ATOM      1  C   UNL     1       3.409   5.122  18.578  0.00  0.00    +0.000 A 
ATOM      2  C   UNL     1       2.537   6.126  19.041  0.00  0.00    +0.000 A 
ATOM      3  C   UNL     1       2.614   7.457  18.604  0.00  0.00    +0.000 A 
ATOM      4  C   UNL     1       3.558   7.787  17.630  0.00  0.00    +0.000 A 
ATOM      5  C   UNL     1       4.406   6.801  17.116  0.00  0.00    +0.000 A 
ATOM      6  C   UNL     1       4.318   5.488  17.578  0.00  0.00    +0.000 A 
ATOM      7  F   UNL     1       5.182   4.585  17.091  0.00  0.00    +0.000 F 
ENDROOT
BRANCH   1  16
ATOM      8  C   UNL     1       2.337   3.125  16.815  0.00  0.00    +0.000 C 
ATOM      9  C   UNL     1       2.652   2.665  18.249  0.00  0.00    +0.000 C 
ATOM     10  F   UNL     1       3.459   1.554  18.071  0.00  0.00    +0.000 F 
ATOM     11  C   UNL     1       1.373   2.132  18.882  0.00  0.00    +0.000 C 
ATOM     12  O   UNL     1       1.347   2.087  20.309  0.00  0.00    +0.000 OA
ATOM     13  C   UNL     1       2.023   3.018  20.991  0.00  0.00    +0.000 C 
ATOM     14  N   UNL     1       1.605   3.079  22.274  0.00  0.00    +0.000 N 
ATOM     15  N   UNL     1       2.925   3.788  20.536  0.00  0.00    +0.000 NA
ATOM     16  C   UNL     1       3.423   3.694  19.157  0.00  0.00    +0.000 C 
ATOM     17  C   UNL     1       4.873   3.152  19.345  0.00  0.00    +0.000 C 
ATOM     18  H   UNL     1       0.639   2.813  22.401  0.00  0.00    +0.000 HD
ATOM     19  H   UNL     1       1.866   3.947  22.724  0.00  0.00    +0.000 HD
ENDBRANCH   1  16
BRANCH   3  20
ATOM     20  N   UNL     1       1.768   8.472  19.110  0.00  0.00    +0.000 N 
ATOM     21  C   UNL     1       1.316   8.563  20.425  0.00  0.00    +0.000 C 
ATOM     22  O   UNL     1       1.721   7.855  21.340  0.00  0.00    +0.000 OA
ATOM     23  H   UNL     1       1.491   9.239  18.508  0.00  0.00    +0.000 HD
BRANCH  21  24
ATOM     24  C   UNL     1       0.312   9.611  20.669  0.00  0.00    +0.000 A 
ATOM     25  N   UNL     1      -0.272  10.329  19.681  0.00  0.00    +0.000 NA
ATOM     26  N   UNL     1      -1.161  11.116  20.339  0.00  0.00    +0.000 N 
ATOM     27  C   UNL     1      -1.124  10.977  21.691  0.00  0.00    +0.000 A 
ATOM     28  C   UNL     1      -0.194  10.004  21.945  0.00  0.00    +0.000 A 
ATOM     29 CL   UNL     1       0.217   9.410  23.480  0.00  0.00    +0.000 Cl
BRANCH  26  30
ATOM     30  C   UNL     1      -2.042  12.012  19.618  0.00  0.00    +0.000 C 
BRANCH  30  31
ATOM     31  C   UNL     1      -2.033  11.736  18.138  0.00  0.00    +0.000 C 
ATOM     32  F   UNL     1      -3.279  11.905  17.624  0.00  0.00    +0.000 F 
ATOM     33  F   UNL     1      -1.246  12.660  17.522  0.00  0.00    +0.000 F 
ENDBRANCH  30  31
ENDBRANCH  26  30
ENDBRANCH  21  24
ENDBRANCH   3  20
TORSDOF 5
ENDMDL
