MODEL 1
REMARK VINA RESULT:      -3.7      0.000      0.000
REMARK  Name = 
REMARK  7 active torsions:
REMARK  status: ('A' for Active; 'I' for Inactive)
REMARK    1  A    between atoms: O_1  and  C_2
REMARK    2  A    between atoms: C_2  and  C_3
REMARK    3  A    between atoms: C_3  and  C_4
REMARK    4  A    between atoms: C_4  and  N_5
REMARK    5  A    between atoms: N_5  and  C_6
REMARK    6  A    between atoms: C_6  and  C_7
REMARK    7  A    between atoms: C_7  and  O_8
REMARK                            x       y       z     vdW  Elec       q    Type
REMARK                         _______ _______ _______ _____ _____    ______ ____
ROOT
ATOM      1  N   UNL     1       7.505   5.972  17.002  0.00  0.00    +0.000 NA
ATOM      2  H   UNL     1       6.685   6.386  16.556  0.00  0.00    +0.000 HD
ENDROOT
BRANCH   1   3
ATOM      3  C   UNL     1       7.270   4.525  17.084  0.00  0.00    +0.000 C 
BRANCH   3   4
ATOM      4  C   UNL     1       6.527   4.048  15.833  0.00  0.00    +0.000 C 
BRANCH   4   5
ATOM      5  C   UNL     1       6.403   5.162  14.805  0.00  0.00    +0.000 C 
BRANCH   5   6
ATOM      6  O   UNL     1       7.664   5.387  14.189  0.00  0.00    +0.000 OA
ATOM      7  H   UNL     1       7.976   6.260  14.490  0.00  0.00    +0.000 HD
ENDBRANCH   5   6
ENDBRANCH   4   5
ENDBRANCH   3   4
ENDBRANCH   1   3
BRANCH   1   8
ATOM      8  C   UNL     1       7.634   6.538  18.356  0.00  0.00    +0.000 C 
BRANCH   8   9
ATOM      9  C   UNL     1       7.129   5.555  19.416  0.00  0.00    +0.000 C 
BRANCH   9  10
ATOM     10  O   UNL     1       8.062   5.449  20.488  0.00  0.00    +0.000 OA
ATOM     11  H   UNL     1       7.827   4.634  20.964  0.00  0.00    +0.000 HD
ENDBRANCH   9  10
ENDBRANCH   8   9
ENDBRANCH   1   8
TORSDOF 7
ENDMDL
MODEL 2
REMARK VINA RESULT:      -3.6      3.992      4.479
REMARK  Name = 
REMARK  7 active torsions:
REMARK  status: ('A' for Active; 'I' for Inactive)
REMARK    1  A    between atoms: O_1  and  C_2
REMARK    2  A    between atoms: C_2  and  C_3
REMARK    3  A    between atoms: C_3  and  C_4
REMARK    4  A    between atoms: C_4  and  N_5
REMARK    5  A    between atoms: N_5  and  C_6
REMARK    6  A    between atoms: C_6  and  C_7
REMARK    7  A    between atoms: C_7  and  O_8
REMARK                            x       y       z     vdW  Elec       q    Type
REMARK                         _______ _______ _______ _____ _____    ______ ____
ROOT
ATOM      1  N   UNL     1       5.207   3.402  19.130  0.00  0.00    +0.000 NA
ATOM      2  H   UNL     1       5.175   4.182  19.788  0.00  0.00    +0.000 HD
ENDROOT
BRANCH   1   3
ATOM      3  C   UNL     1       4.915   3.945  17.798  0.00  0.00    +0.000 C 
BRANCH   3   4
ATOM      4  C   UNL     1       5.872   5.099  17.487  0.00  0.00    +0.000 C 
BRANCH   4   5
ATOM      5  C   UNL     1       7.155   4.597  16.845  0.00  0.00    +0.000 C 
BRANCH   5   6
ATOM      6  O   UNL     1       8.014   4.064  17.844  0.00  0.00    +0.000 OA
ATOM      7  H   UNL     1       8.614   3.437  17.400  0.00  0.00    +0.000 HD
ENDBRANCH   5   6
ENDBRANCH   4   5
ENDBRANCH   3   4
ENDBRANCH   1   3
BRANCH   1   8
ATOM      8  C   UNL     1       4.170   2.428  19.514  0.00  0.00    +0.000 C 
BRANCH   8   9
ATOM      9  C   UNL     1       3.454   1.869  18.281  0.00  0.00    +0.000 C 
BRANCH   9  10
ATOM     10  O   UNL     1       2.119   1.489  18.605  0.00  0.00    +0.000 OA
ATOM     11  H   UNL     1       1.838   0.881  17.900  0.00  0.00    +0.000 HD
ENDBRANCH   9  10
ENDBRANCH   8   9
ENDBRANCH   1   8
TORSDOF 7
ENDMDL
MODEL 3
REMARK VINA RESULT:      -3.6      2.009      3.748
REMARK  Name = 
REMARK  7 active torsions:
REMARK  status: ('A' for Active; 'I' for Inactive)
REMARK    1  A    between atoms: O_1  and  C_2
REMARK    2  A    between atoms: C_2  and  C_3
REMARK    3  A    between atoms: C_3  and  C_4
REMARK    4  A    between atoms: C_4  and  N_5
REMARK    5  A    between atoms: N_5  and  C_6
REMARK    6  A    between atoms: C_6  and  C_7
REMARK    7  A    between atoms: C_7  and  O_8
REMARK                            x       y       z     vdW  Elec       q    Type
REMARK                         _______ _______ _______ _____ _____    ______ ____
ROOT
ATOM      1  N   UNL     1       6.818   6.123  16.102  0.00  0.00    +0.000 NA
ATOM      2  H   UNL     1       7.348   5.316  16.434  0.00  0.00    +0.000 HD
ENDROOT
BRANCH   1   3
ATOM      3  C   UNL     1       6.628   7.020  17.248  0.00  0.00    +0.000 C 
BRANCH   3   4
ATOM      4  C   UNL     1       7.821   6.907  18.200  0.00  0.00    +0.000 C 
BRANCH   4   5
ATOM      5  C   UNL     1       7.676   5.712  19.130  0.00  0.00    +0.000 C 
BRANCH   5   6
ATOM      6  O   UNL     1       7.924   4.512  18.409  0.00  0.00    +0.000 OA
ATOM      7  H   UNL     1       7.103   3.988  18.438  0.00  0.00    +0.000 HD
ENDBRANCH   5   6
ENDBRANCH   4   5
ENDBRANCH   3   4
ENDBRANCH   1   3
BRANCH   1   8
ATOM      8  C   UNL     1       5.512   5.652  15.609  0.00  0.00    +0.000 C 
BRANCH   8   9
ATOM      9  C   UNL     1       4.867   4.676  16.598  0.00  0.00    +0.000 C 
BRANCH   9  10
ATOM     10  O   UNL     1       5.693   3.530  16.782  0.00  0.00    +0.000 OA
ATOM     11  H   UNL     1       6.342   3.552  16.057  0.00  0.00    +0.000 HD
ENDBRANCH   9  10
ENDBRANCH   8   9
ENDBRANCH   1   8
TORSDOF 7
ENDMDL
MODEL 4
REMARK VINA RESULT:      -3.6      3.295      3.928
REMARK  Name = 
REMARK  7 active torsions:
REMARK  status: ('A' for Active; 'I' for Inactive)
REMARK    1  A    between atoms: O_1  and  C_2
REMARK    2  A    between atoms: C_2  and  C_3
REMARK    3  A    between atoms: C_3  and  C_4
REMARK    4  A    between atoms: C_4  and  N_5
REMARK    5  A    between atoms: N_5  and  C_6
REMARK    6  A    between atoms: C_6  and  C_7
REMARK    7  A    between atoms: C_7  and  O_8
REMARK                            x       y       z     vdW  Elec       q    Type
REMARK                         _______ _______ _______ _____ _____    ______ ____
ROOT
ATOM      1  N   UNL     1       5.018   3.499  17.943  0.00  0.00    +0.000 NA
ATOM      2  H   UNL     1       5.928   3.041  18.014  0.00  0.00    +0.000 HD
ENDROOT
BRANCH   1   3
ATOM      3  C   UNL     1       5.093   4.739  18.725  0.00  0.00    +0.000 C 
BRANCH   3   4
ATOM      4  C   UNL     1       6.519   5.294  18.682  0.00  0.00    +0.000 C 
BRANCH   4   5
ATOM      5  C   UNL     1       7.240   4.871  17.412  0.00  0.00    +0.000 C 
BRANCH   5   6
ATOM      6  O   UNL     1       8.344   4.039  17.742  0.00  0.00    +0.000 OA
ATOM      7  H   UNL     1       9.082   4.302  17.163  0.00  0.00    +0.000 HD
ENDBRANCH   5   6
ENDBRANCH   4   5
ENDBRANCH   3   4
ENDBRANCH   1   3
BRANCH   1   8
ATOM      8  C   UNL     1       4.000   2.603  18.517  0.00  0.00    +0.000 C 
BRANCH   8   9
ATOM      9  C   UNL     1       4.232   2.392  20.017  0.00  0.00    +0.000 C 
BRANCH   9  10
ATOM     10  O   UNL     1       5.325   1.504  20.235  0.00  0.00    +0.000 OA
ATOM     11  H   UNL     1       5.312   0.879  19.489  0.00  0.00    +0.000 HD
ENDBRANCH   9  10
ENDBRANCH   8   9
ENDBRANCH   1   8
TORSDOF 7
ENDMDL
MODEL 5
REMARK VINA RESULT:      -3.6      3.602      4.023
REMARK  Name = 
REMARK  7 active torsions:
REMARK  status: ('A' for Active; 'I' for Inactive)
REMARK    1  A    between atoms: O_1  and  C_2
REMARK    2  A    between atoms: C_2  and  C_3
REMARK    3  A    between atoms: C_3  and  C_4
REMARK    4  A    between atoms: C_4  and  N_5
REMARK    5  A    between atoms: N_5  and  C_6
REMARK    6  A    between atoms: C_6  and  C_7
REMARK    7  A    between atoms: C_7  and  O_8
REMARK                            x       y       z     vdW  Elec       q    Type
REMARK                         _______ _______ _______ _____ _____    ______ ____
ROOT
ATOM      1  N   UNL     1       5.519   3.482  18.861  0.00  0.00    +0.000 NA
ATOM      2  H   UNL     1       6.320   2.995  19.266  0.00  0.00    +0.000 HD
ENDROOT
BRANCH   1   3
ATOM      3  C   UNL     1       5.775   4.922  18.990  0.00  0.00    +0.000 C 
BRANCH   3   4
ATOM      4  C   UNL     1       6.163   5.504  17.628  0.00  0.00    +0.000 C 
BRANCH   4   5
ATOM      5  C   UNL     1       6.902   4.481  16.779  0.00  0.00    +0.000 C 
BRANCH   5   6
ATOM      6  O   UNL     1       8.133   4.142  17.404  0.00  0.00    +0.000 OA
ATOM      7  H   UNL     1       8.118   3.180  17.560  0.00  0.00    +0.000 HD
ENDBRANCH   5   6
ENDBRANCH   4   5
ENDBRANCH   3   4
ENDBRANCH   1   3
BRANCH   1   8
ATOM      8  C   UNL     1       4.315   3.116  19.628  0.00  0.00    +0.000 C 
BRANCH   8   9
ATOM      9  C   UNL     1       3.451   2.114  18.856  0.00  0.00    +0.000 C 
BRANCH   9  10
ATOM     10  O   UNL     1       4.199   1.517  17.799  0.00  0.00    +0.000 OA
ATOM     11  H   UNL     1       3.545   1.074  17.231  0.00  0.00    +0.000 HD
ENDBRANCH   9  10
ENDBRANCH   8   9
ENDBRANCH   1   8
TORSDOF 7
ENDMDL
MODEL 6
REMARK VINA RESULT:      -3.5      1.253      4.611
REMARK  Name = 
REMARK  7 active torsions:
REMARK  status: ('A' for Active; 'I' for Inactive)
REMARK    1  A    between atoms: O_1  and  C_2
REMARK    2  A    between atoms: C_2  and  C_3
REMARK    3  A    between atoms: C_3  and  C_4
REMARK    4  A    between atoms: C_4  and  N_5
REMARK    5  A    between atoms: N_5  and  C_6
REMARK    6  A    between atoms: C_6  and  C_7
REMARK    7  A    between atoms: C_7  and  O_8
REMARK                            x       y       z     vdW  Elec       q    Type
REMARK                         _______ _______ _______ _____ _____    ______ ____
ROOT
ATOM      1  N   UNL     1       7.451   5.759  15.785  0.00  0.00    +0.000 NA
ATOM      2  H   UNL     1       8.463   5.778  15.648  0.00  0.00    +0.000 HD
ENDROOT
BRANCH   1   3
ATOM      3  C   UNL     1       7.186   6.265  17.137  0.00  0.00    +0.000 C 
BRANCH   3   4
ATOM      4  C   UNL     1       7.653   5.241  18.175  0.00  0.00    +0.000 C 
BRANCH   4   5
ATOM      5  C   UNL     1       6.994   5.481  19.524  0.00  0.00    +0.000 C 
BRANCH   5   6
ATOM      6  O   UNL     1       7.980   5.472  20.548  0.00  0.00    +0.000 OA
ATOM      7  H   UNL     1       8.557   6.243  20.394  0.00  0.00    +0.000 HD
ENDBRANCH   5   6
ENDBRANCH   4   5
ENDBRANCH   3   4
ENDBRANCH   1   3
BRANCH   1   8
ATOM      8  C   UNL     1       6.992   4.364  15.671  0.00  0.00    +0.000 C 
BRANCH   8   9
ATOM      9  C   UNL     1       5.857   4.237  14.650  0.00  0.00    +0.000 C 
BRANCH   9  10
ATOM     10  O   UNL     1       6.290   3.505  13.507  0.00  0.00    +0.000 OA
ATOM     11  H   UNL     1       7.257   3.612  13.475  0.00  0.00    +0.000 HD
ENDBRANCH   9  10
ENDBRANCH   8   9
ENDBRANCH   1   8
TORSDOF 7
ENDMDL
MODEL 7
REMARK VINA RESULT:      -3.5      1.338      1.338
REMARK  Name = 
REMARK  7 active torsions:
REMARK  status: ('A' for Active; 'I' for Inactive)
REMARK    1  A    between atoms: O_1  and  C_2
REMARK    2  A    between atoms: C_2  and  C_3
REMARK    3  A    between atoms: C_3  and  C_4
REMARK    4  A    between atoms: C_4  and  N_5
REMARK    5  A    between atoms: N_5  and  C_6
REMARK    6  A    between atoms: C_6  and  C_7
REMARK    7  A    between atoms: C_7  and  O_8
REMARK                            x       y       z     vdW  Elec       q    Type
REMARK                         _______ _______ _______ _____ _____    ______ ____
ROOT
ATOM      1  N   UNL     1       7.452   6.307  16.926  0.00  0.00    +0.000 NA
ATOM      2  H   UNL     1       6.565   6.764  16.710  0.00  0.00    +0.000 HD
ENDROOT
BRANCH   1   3
ATOM      3  C   UNL     1       7.243   4.862  16.781  0.00  0.00    +0.000 C 
BRANCH   3   4
ATOM      4  C   UNL     1       5.979   4.600  15.957  0.00  0.00    +0.000 C 
BRANCH   4   5
ATOM      5  C   UNL     1       4.950   5.701  16.158  0.00  0.00    +0.000 C 
BRANCH   5   6
ATOM      6  O   UNL     1       5.217   6.775  15.266  0.00  0.00    +0.000 OA
ATOM      7  H   UNL     1       6.127   7.074  15.445  0.00  0.00    +0.000 HD
ENDBRANCH   5   6
ENDBRANCH   4   5
ENDBRANCH   3   4
ENDBRANCH   1   3
BRANCH   1   8
ATOM      8  C   UNL     1       7.812   6.626  18.319  0.00  0.00    +0.000 C 
BRANCH   8   9
ATOM      9  C   UNL     1       7.176   5.632  19.295  0.00  0.00    +0.000 C 
BRANCH   9  10
ATOM     10  O   UNL     1       7.989   5.477  20.455  0.00  0.00    +0.000 OA
ATOM     11  H   UNL     1       8.109   6.373  20.815  0.00  0.00    +0.000 HD
ENDBRANCH   9  10
ENDBRANCH   8   9
ENDBRANCH   1   8
TORSDOF 7
ENDMDL
MODEL 8
REMARK VINA RESULT:      -3.5      1.339      4.363
REMARK  Name = 
REMARK  7 active torsions:
REMARK  status: ('A' for Active; 'I' for Inactive)
REMARK    1  A    between atoms: O_1  and  C_2
REMARK    2  A    between atoms: C_2  and  C_3
REMARK    3  A    between atoms: C_3  and  C_4
REMARK    4  A    between atoms: C_4  and  N_5
REMARK    5  A    between atoms: N_5  and  C_6
REMARK    6  A    between atoms: C_6  and  C_7
REMARK    7  A    between atoms: C_7  and  O_8
REMARK                            x       y       z     vdW  Elec       q    Type
REMARK                         _______ _______ _______ _____ _____    ______ ____
ROOT
ATOM      1  N   UNL     1       7.476   5.971  16.140  0.00  0.00    +0.000 NA
ATOM      2  H   UNL     1       8.087   5.259  16.543  0.00  0.00    +0.000 HD
ENDROOT
BRANCH   1   3
ATOM      3  C   UNL     1       6.918   6.746  17.255  0.00  0.00    +0.000 C 
BRANCH   3   4
ATOM      4  C   UNL     1       7.671   6.413  18.546  0.00  0.00    +0.000 C 
BRANCH   4   5
ATOM      5  C   UNL     1       6.908   5.400  19.386  0.00  0.00    +0.000 C 
BRANCH   5   6
ATOM      6  O   UNL     1       6.742   4.196  18.649  0.00  0.00    +0.000 OA
ATOM      7  H   UNL     1       7.634   3.844  18.473  0.00  0.00    +0.000 HD
ENDBRANCH   5   6
ENDBRANCH   4   5
ENDBRANCH   3   4
ENDBRANCH   1   3
BRANCH   1   8
ATOM      8  C   UNL     1       6.392   5.293  15.407  0.00  0.00    +0.000 C 
BRANCH   8   9
ATOM      9  C   UNL     1       6.882   4.773  14.052  0.00  0.00    +0.000 C 
BRANCH   9  10
ATOM     10  O   UNL     1       7.996   5.536  13.595  0.00  0.00    +0.000 OA
ATOM     11  H   UNL     1       8.460   4.969  12.955  0.00  0.00    +0.000 HD
ENDBRANCH   9  10
ENDBRANCH   8   9
ENDBRANCH   1   8
TORSDOF 7
ENDMDL
MODEL 9
REMARK VINA RESULT:      -3.5      1.626      1.768
REMARK  Name = 
REMARK  7 active torsions:
REMARK  status: ('A' for Active; 'I' for Inactive)
REMARK    1  A    between atoms: O_1  and  C_2
REMARK    2  A    between atoms: C_2  and  C_3
REMARK    3  A    between atoms: C_3  and  C_4
REMARK    4  A    between atoms: C_4  and  N_5
REMARK    5  A    between atoms: N_5  and  C_6
REMARK    6  A    between atoms: C_6  and  C_7
REMARK    7  A    between atoms: C_7  and  O_8
REMARK                            x       y       z     vdW  Elec       q    Type
REMARK                         _______ _______ _______ _____ _____    ______ ____
ROOT
ATOM      1  N   UNL     1       7.394   5.572  16.705  0.00  0.00    +0.000 NA
ATOM      2  H   UNL     1       7.882   6.451  16.881  0.00  0.00    +0.000 HD
ENDROOT
BRANCH   1   3
ATOM      3  C   UNL     1       6.003   5.906  16.373  0.00  0.00    +0.000 C 
BRANCH   3   4
ATOM      4  C   UNL     1       5.647   5.336  14.997  0.00  0.00    +0.000 C 
BRANCH   4   5
ATOM      5  C   UNL     1       6.828   4.605  14.378  0.00  0.00    +0.000 C 
BRANCH   5   6
ATOM      6  O   UNL     1       7.790   5.547  13.923  0.00  0.00    +0.000 OA
ATOM      7  H   UNL     1       8.149   5.205  13.084  0.00  0.00    +0.000 HD
ENDBRANCH   5   6
ENDBRANCH   4   5
ENDBRANCH   3   4
ENDBRANCH   1   3
BRANCH   1   8
ATOM      8  C   UNL     1       7.437   4.761  17.934  0.00  0.00    +0.000 C 
BRANCH   8   9
ATOM      9  C   UNL     1       6.115   4.853  18.703  0.00  0.00    +0.000 C 
BRANCH   9  10
ATOM     10  O   UNL     1       5.654   3.554  19.064  0.00  0.00    +0.000 OA
ATOM     11  H   UNL     1       5.776   3.000  18.274  0.00  0.00    +0.000 HD
ENDBRANCH   9  10
ENDBRANCH   8   9
ENDBRANCH   1   8
TORSDOF 7
ENDMDL
