MODEL 1
REMARK VINA RESULT:      -8.5      0.000      0.000
REMARK  Name = 
REMARK  4 active torsions:
REMARK  status: ('A' for Active; 'I' for Inactive)
REMARK    1  A    between atoms: C_1  and  C_2
REMARK    2  A    between atoms: C_2  and  C_3
REMARK    3  A    between atoms: C_2  and  N_13
REMARK    4  A    between atoms: N_5  and  C_6
REMARK                            x       y       z     vdW  Elec       q    Type
REMARK                         _______ _______ _______ _____ _____    ______ ____
ROOT
ATOM      1  N   UNL     1       6.834   6.067  17.344  0.00  0.00    +0.000 NA
ATOM      2  C   UNL     1       6.770   4.605  17.427  0.00  0.00    +0.000 C 
ATOM      3  C   UNL     1       5.592   4.019  18.211  0.00  0.00    +0.000 C 
ATOM      4  C   UNL     1       4.228   4.659  17.875  0.00  0.00    +0.000 C 
ATOM      5  C   UNL     1       3.596   3.990  16.615  0.00  0.00    +0.000 C 
ATOM      6  C   UNL     1       2.222   3.407  16.983  0.00  0.00    +0.000 C 
ATOM      7  C   UNL     1       2.107   3.661  18.446  0.00  0.00    +0.000 A 
ATOM      8  C   UNL     1       1.046   3.305  19.266  0.00  0.00    +0.000 A 
ATOM      9  C   UNL     1       1.097   3.645  20.620  0.00  0.00    +0.000 A 
ATOM     10  C   UNL     1       2.204   4.333  21.137  0.00  0.00    +0.000 A 
ATOM     11  C   UNL     1       3.262   4.689  20.300  0.00  0.00    +0.000 A 
ATOM     12  C   UNL     1       3.209   4.346  18.954  0.00  0.00    +0.000 A 
ATOM     13  C   UNL     1       4.334   6.186  17.687  0.00  0.00    +0.000 C 
ATOM     14  C   UNL     1       5.553   6.607  16.868  0.00  0.00    +0.000 C 
ENDROOT
BRANCH   1  16
ATOM     15  C   UNL     1       8.358   6.089  19.466  0.00  0.00    +0.000 C 
ATOM     16  C   UNL     1       7.403   6.809  18.508  0.00  0.00    +0.000 C 
BRANCH  16  17
ATOM     17  C   UNL     1       8.044   8.167  18.095  0.00  0.00    +0.000 C 
ATOM     18  O   UNL     1       8.189   8.454  16.909  0.00  0.00    +0.000 OA
ATOM     19  N   UNL     1       8.520   8.921  19.151  0.00  0.00    +0.000 N 
ATOM     20  H   UNL     1       8.243   8.578  20.068  0.00  0.00    +0.000 HD
BRANCH  19  21
ATOM     21  C   UNL     1       9.306  10.089  19.070  0.00  0.00    +0.000 A 
ATOM     22  C   UNL     1       9.713  10.672  17.864  0.00  0.00    +0.000 A 
ATOM     23  C   UNL     1      10.533  11.806  17.849  0.00  0.00    +0.000 A 
ATOM     24  C   UNL     1      10.953  12.373  19.047  0.00  0.00    +0.000 A 
ATOM     25 CL   UNL     1      11.979  13.751  19.030  0.00  0.00    +0.000 Cl
ATOM     26  C   UNL     1      10.547  11.818  20.256  0.00  0.00    +0.000 A 
ATOM     27  C   UNL     1       9.731  10.679  20.270  0.00  0.00    +0.000 A 
ENDBRANCH  19  21
ENDBRANCH  16  17
ENDBRANCH   1  16
TORSDOF 3
ENDMDL
MODEL 2
REMARK VINA RESULT:      -7.9      7.964     10.206
REMARK  Name = 
REMARK  4 active torsions:
REMARK  status: ('A' for Active; 'I' for Inactive)
REMARK    1  A    between atoms: C_1  and  C_2
REMARK    2  A    between atoms: C_2  and  C_3
REMARK    3  A    between atoms: C_2  and  N_13
REMARK    4  A    between atoms: N_5  and  C_6
REMARK                            x       y       z     vdW  Elec       q    Type
REMARK                         _______ _______ _______ _____ _____    ______ ____
ROOT
ATOM      1  N   UNL     1       0.826  10.511  19.939  0.00  0.00    +0.000 NA
ATOM      2  C   UNL     1      -0.453  10.710  19.251  0.00  0.00    +0.000 C 
ATOM      3  C   UNL     1      -1.587  11.317  20.084  0.00  0.00    +0.000 C 
ATOM      4  C   UNL     1      -1.166  12.538  20.930  0.00  0.00    +0.000 C 
ATOM      5  C   UNL     1      -1.221  13.846  20.081  0.00  0.00    +0.000 C 
ATOM      6  C   UNL     1      -2.182  14.845  20.745  0.00  0.00    +0.000 C 
ATOM      7  C   UNL     1      -2.734  14.091  21.905  0.00  0.00    +0.000 A 
ATOM      8  C   UNL     1      -3.668  14.551  22.823  0.00  0.00    +0.000 A 
ATOM      9  C   UNL     1      -4.058  13.710  23.868  0.00  0.00    +0.000 A 
ATOM     10  C   UNL     1      -3.513  12.424  23.984  0.00  0.00    +0.000 A 
ATOM     11  C   UNL     1      -2.570  11.975  23.058  0.00  0.00    +0.000 A 
ATOM     12  C   UNL     1      -2.187  12.814  22.017  0.00  0.00    +0.000 A 
ATOM     13  C   UNL     1       0.230  12.354  21.561  0.00  0.00    +0.000 C 
ATOM     14  C   UNL     1       1.251  11.756  20.595  0.00  0.00    +0.000 C 
ENDROOT
BRANCH   1  16
ATOM     15  C   UNL     1      -0.243   8.749  21.546  0.00  0.00    +0.000 C 
ATOM     16  C   UNL     1       0.977   9.298  20.798  0.00  0.00    +0.000 C 
BRANCH  16  17
ATOM     17  C   UNL     1       1.673   8.122  20.052  0.00  0.00    +0.000 C 
ATOM     18  O   UNL     1       2.004   8.237  18.874  0.00  0.00    +0.000 OA
ATOM     19  N   UNL     1       1.763   6.953  20.784  0.00  0.00    +0.000 N 
ATOM     20  H   UNL     1       1.519   7.055  21.766  0.00  0.00    +0.000 HD
BRANCH  19  21
ATOM     21  C   UNL     1       2.167   5.687  20.310  0.00  0.00    +0.000 A 
ATOM     22  C   UNL     1       3.426   5.429  19.755  0.00  0.00    +0.000 A 
ATOM     23  C   UNL     1       3.752   4.162  19.258  0.00  0.00    +0.000 A 
ATOM     24  C   UNL     1       2.816   3.134  19.315  0.00  0.00    +0.000 A 
ATOM     25 CL   UNL     1       3.206   1.585  18.685  0.00  0.00    +0.000 Cl
ATOM     26  C   UNL     1       1.565   3.367  19.877  0.00  0.00    +0.000 A 
ATOM     27  C   UNL     1       1.238   4.637  20.368  0.00  0.00    +0.000 A 
ENDBRANCH  19  21
ENDBRANCH  16  17
ENDBRANCH   1  16
TORSDOF 3
ENDMDL
MODEL 3
REMARK VINA RESULT:      -7.9      1.102      1.414
REMARK  Name = 
REMARK  4 active torsions:
REMARK  status: ('A' for Active; 'I' for Inactive)
REMARK    1  A    between atoms: C_1  and  C_2
REMARK    2  A    between atoms: C_2  and  C_3
REMARK    3  A    between atoms: C_2  and  N_13
REMARK    4  A    between atoms: N_5  and  C_6
REMARK                            x       y       z     vdW  Elec       q    Type
REMARK                         _______ _______ _______ _____ _____    ______ ____
ROOT
ATOM      1  N   UNL     1       5.707   6.219  17.022  0.00  0.00    +0.000 NA
ATOM      2  C   UNL     1       5.522   4.799  16.712  0.00  0.00    +0.000 C 
ATOM      3  C   UNL     1       4.661   3.995  17.692  0.00  0.00    +0.000 C 
ATOM      4  C   UNL     1       3.347   4.695  18.100  0.00  0.00    +0.000 C 
ATOM      5  C   UNL     1       2.226   4.427  17.048  0.00  0.00    +0.000 C 
ATOM      6  C   UNL     1       1.032   3.749  17.738  0.00  0.00    +0.000 C 
ATOM      7  C   UNL     1       1.493   3.553  19.140  0.00  0.00    +0.000 A 
ATOM      8  C   UNL     1       0.779   2.959  20.172  0.00  0.00    +0.000 A 
ATOM      9  C   UNL     1       1.364   2.880  21.438  0.00  0.00    +0.000 A 
ATOM     10  C   UNL     1       2.650   3.391  21.658  0.00  0.00    +0.000 A 
ATOM     11  C   UNL     1       3.356   3.990  20.614  0.00  0.00    +0.000 A 
ATOM     12  C   UNL     1       2.772   4.065  19.354  0.00  0.00    +0.000 A 
ATOM     13  C   UNL     1       3.539   6.209  18.320  0.00  0.00    +0.000 C 
ATOM     14  C   UNL     1       4.406   6.866  17.247  0.00  0.00    +0.000 C 
ENDROOT
BRANCH   1  16
ATOM     15  C   UNL     1       7.641   5.491  18.621  0.00  0.00    +0.000 C 
ATOM     16  C   UNL     1       6.742   6.585  18.035  0.00  0.00    +0.000 C 
BRANCH  16  17
ATOM     17  C   UNL     1       7.639   7.770  17.571  0.00  0.00    +0.000 C 
ATOM     18  O   UNL     1       8.383   7.647  16.599  0.00  0.00    +0.000 OA
ATOM     19  N   UNL     1       7.603   8.876  18.400  0.00  0.00    +0.000 N 
ATOM     20  H   UNL     1       6.875   8.843  19.108  0.00  0.00    +0.000 HD
BRANCH  19  21
ATOM     21  C   UNL     1       8.442  10.008  18.335  0.00  0.00    +0.000 A 
ATOM     22  C   UNL     1       9.686  10.094  18.971  0.00  0.00    +0.000 A 
ATOM     23  C   UNL     1      10.451  11.264  18.909  0.00  0.00    +0.000 A 
ATOM     24  C   UNL     1       9.977  12.365  18.203  0.00  0.00    +0.000 A 
ATOM     25 CL   UNL     1      10.905  13.809  18.145  0.00  0.00    +0.000 Cl
ATOM     26  C   UNL     1       8.750  12.294  17.551  0.00  0.00    +0.000 A 
ATOM     27  C   UNL     1       7.983  11.125  17.620  0.00  0.00    +0.000 A 
ENDBRANCH  19  21
ENDBRANCH  16  17
ENDBRANCH   1  16
TORSDOF 3
ENDMDL
MODEL 4
REMARK VINA RESULT:      -7.8      1.197      1.743
REMARK  Name = 
REMARK  4 active torsions:
REMARK  status: ('A' for Active; 'I' for Inactive)
REMARK    1  A    between atoms: C_1  and  C_2
REMARK    2  A    between atoms: C_2  and  C_3
REMARK    3  A    between atoms: C_2  and  N_13
REMARK    4  A    between atoms: N_5  and  C_6
REMARK                            x       y       z     vdW  Elec       q    Type
REMARK                         _______ _______ _______ _____ _____    ______ ____
ROOT
ATOM      1  N   UNL     1       6.498   5.640  16.849  0.00  0.00    +0.000 NA
ATOM      2  C   UNL     1       6.808   4.767  17.983  0.00  0.00    +0.000 C 
ATOM      3  C   UNL     1       5.632   4.379  18.885  0.00  0.00    +0.000 C 
ATOM      4  C   UNL     1       4.367   3.937  18.119  0.00  0.00    +0.000 C 
ATOM      5  C   UNL     1       4.447   2.425  17.739  0.00  0.00    +0.000 C 
ATOM      6  C   UNL     1       3.249   1.682  18.350  0.00  0.00    +0.000 C 
ATOM      7  C   UNL     1       2.542   2.730  19.137  0.00  0.00    +0.000 A 
ATOM      8  C   UNL     1       1.394   2.561  19.898  0.00  0.00    +0.000 A 
ATOM      9  C   UNL     1       0.852   3.667  20.556  0.00  0.00    +0.000 A 
ATOM     10  C   UNL     1       1.461   4.925  20.448  0.00  0.00    +0.000 A 
ATOM     11  C   UNL     1       2.612   5.084  19.675  0.00  0.00    +0.000 A 
ATOM     12  C   UNL     1       3.151   3.979  19.024  0.00  0.00    +0.000 A 
ATOM     13  C   UNL     1       4.114   4.802  16.867  0.00  0.00    +0.000 C 
ATOM     14  C   UNL     1       5.385   5.084  16.066  0.00  0.00    +0.000 C 
ENDROOT
BRANCH   1  16
ATOM     15  C   UNL     1       5.116   7.647  17.792  0.00  0.00    +0.000 C 
ATOM     16  C   UNL     1       6.376   7.106  17.107  0.00  0.00    +0.000 C 
BRANCH  16  17
ATOM     17  C   UNL     1       7.624   7.691  17.833  0.00  0.00    +0.000 C 
ATOM     18  O   UNL     1       8.271   7.000  18.618  0.00  0.00    +0.000 OA
ATOM     19  N   UNL     1       7.842   9.036  17.604  0.00  0.00    +0.000 N 
ATOM     20  H   UNL     1       7.267   9.433  16.865  0.00  0.00    +0.000 HD
BRANCH  19  21
ATOM     21  C   UNL     1       8.771   9.866  18.265  0.00  0.00    +0.000 A 
ATOM     22  C   UNL     1       8.941   9.894  19.654  0.00  0.00    +0.000 A 
ATOM     23  C   UNL     1       9.848  10.775  20.255  0.00  0.00    +0.000 A 
ATOM     24  C   UNL     1      10.599  11.640  19.466  0.00  0.00    +0.000 A 
ATOM     25 CL   UNL     1      11.694  12.738  20.204  0.00  0.00    +0.000 Cl
ATOM     26  C   UNL     1      10.455  11.617  18.083  0.00  0.00    +0.000 A 
ATOM     27  C   UNL     1       9.544  10.739  17.483  0.00  0.00    +0.000 A 
ENDBRANCH  19  21
ENDBRANCH  16  17
ENDBRANCH   1  16
TORSDOF 3
ENDMDL
MODEL 5
REMARK VINA RESULT:      -7.5      5.062      7.551
REMARK  Name = 
REMARK  4 active torsions:
REMARK  status: ('A' for Active; 'I' for Inactive)
REMARK    1  A    between atoms: C_1  and  C_2
REMARK    2  A    between atoms: C_2  and  C_3
REMARK    3  A    between atoms: C_2  and  N_13
REMARK    4  A    between atoms: N_5  and  C_6
REMARK                            x       y       z     vdW  Elec       q    Type
REMARK                         _______ _______ _______ _____ _____    ______ ____
ROOT
ATOM      1  N   UNL     1       4.486   5.925  18.100  0.00  0.00    +0.000 NA
ATOM      2  C   UNL     1       5.345   4.738  18.102  0.00  0.00    +0.000 C 
ATOM      3  C   UNL     1       5.584   4.068  16.746  0.00  0.00    +0.000 C 
ATOM      4  C   UNL     1       5.925   5.052  15.606  0.00  0.00    +0.000 C 
ATOM      5  C   UNL     1       7.450   5.385  15.599  0.00  0.00    +0.000 C 
ATOM      6  C   UNL     1       8.049   4.999  14.237  0.00  0.00    +0.000 C 
ATOM      7  C   UNL     1       6.909   4.376  13.509  0.00  0.00    +0.000 A 
ATOM      8  C   UNL     1       6.938   3.842  12.228  0.00  0.00    +0.000 A 
ATOM      9  C   UNL     1       5.760   3.316  11.691  0.00  0.00    +0.000 A 
ATOM     10  C   UNL     1       4.574   3.327  12.436  0.00  0.00    +0.000 A 
ATOM     11  C   UNL     1       4.557   3.872  13.721  0.00  0.00    +0.000 A 
ATOM     12  C   UNL     1       5.731   4.392  14.253  0.00  0.00    +0.000 A 
ATOM     13  C   UNL     1       5.084   6.342  15.681  0.00  0.00    +0.000 C 
ATOM     14  C   UNL     1       4.957   6.894  17.100  0.00  0.00    +0.000 C 
ENDROOT
BRANCH   1  16
ATOM     15  C   UNL     1       2.447   4.308  17.864  0.00  0.00    +0.000 C 
ATOM     16  C   UNL     1       3.007   5.717  18.085  0.00  0.00    +0.000 C 
BRANCH  16  17
ATOM     17  C   UNL     1       2.303   6.342  19.325  0.00  0.00    +0.000 C 
ATOM     18  O   UNL     1       1.802   5.624  20.188  0.00  0.00    +0.000 OA
ATOM     19  N   UNL     1       2.201   7.721  19.292  0.00  0.00    +0.000 N 
ATOM     20  H   UNL     1       2.741   8.162  18.553  0.00  0.00    +0.000 HD
BRANCH  19  21
ATOM     21  C   UNL     1       1.458   8.534  20.173  0.00  0.00    +0.000 A 
ATOM     22  C   UNL     1       1.415   8.345  21.559  0.00  0.00    +0.000 A 
ATOM     23  C   UNL     1       0.621   9.159  22.376  0.00  0.00    +0.000 A 
ATOM     24  C   UNL     1      -0.139  10.177  21.810  0.00  0.00    +0.000 A 
ATOM     25 CL   UNL     1      -1.131  11.161  22.809  0.00  0.00    +0.000 Cl
ATOM     26  C   UNL     1      -0.097  10.391  20.437  0.00  0.00    +0.000 A 
ATOM     27  C   UNL     1       0.693   9.572  19.620  0.00  0.00    +0.000 A 
ENDBRANCH  19  21
ENDBRANCH  16  17
ENDBRANCH   1  16
TORSDOF 3
ENDMDL
MODEL 6
REMARK VINA RESULT:      -7.4      7.641      9.887
REMARK  Name = 
REMARK  4 active torsions:
REMARK  status: ('A' for Active; 'I' for Inactive)
REMARK    1  A    between atoms: C_1  and  C_2
REMARK    2  A    between atoms: C_2  and  C_3
REMARK    3  A    between atoms: C_2  and  N_13
REMARK    4  A    between atoms: N_5  and  C_6
REMARK                            x       y       z     vdW  Elec       q    Type
REMARK                         _______ _______ _______ _____ _____    ______ ____
ROOT
ATOM      1  N   UNL     1       1.021  10.230  19.444  0.00  0.00    +0.000 NA
ATOM      2  C   UNL     1      -0.324  10.385  18.883  0.00  0.00    +0.000 C 
ATOM      3  C   UNL     1      -1.376  11.011  19.803  0.00  0.00    +0.000 C 
ATOM      4  C   UNL     1      -0.891  12.272  20.552  0.00  0.00    +0.000 C 
ATOM      5  C   UNL     1      -1.054  13.543  19.662  0.00  0.00    +0.000 C 
ATOM      6  C   UNL     1      -1.959  14.556  20.381  0.00  0.00    +0.000 C 
ATOM      7  C   UNL     1      -2.377  13.844  21.621  0.00  0.00    +0.000 A 
ATOM      8  C   UNL     1      -3.221  14.330  22.610  0.00  0.00    +0.000 A 
ATOM      9  C   UNL     1      -3.488  13.528  23.722  0.00  0.00    +0.000 A 
ATOM     10  C   UNL     1      -2.913  12.255  23.832  0.00  0.00    +0.000 A 
ATOM     11  C   UNL     1      -2.062  11.779  22.834  0.00  0.00    +0.000 A 
ATOM     12  C   UNL     1      -1.801  12.580  21.726  0.00  0.00    +0.000 A 
ATOM     13  C   UNL     1       0.564  12.131  21.044  0.00  0.00    +0.000 C 
ATOM     14  C   UNL     1       1.491  11.506  20.003  0.00  0.00    +0.000 C 
ENDROOT
BRANCH   1  16
ATOM     15  C   UNL     1       0.154   8.528  21.227  0.00  0.00    +0.000 C 
ATOM     16  C   UNL     1       1.279   9.056  20.330  0.00  0.00    +0.000 C 
BRANCH  16  17
ATOM     17  C   UNL     1       1.907   7.855  19.563  0.00  0.00    +0.000 C 
ATOM     18  O   UNL     1       2.161   7.944  18.363  0.00  0.00    +0.000 OA
ATOM     19  N   UNL     1       2.026   6.697  20.309  0.00  0.00    +0.000 N 
ATOM     20  H   UNL     1       1.850   6.821  21.302  0.00  0.00    +0.000 HD
BRANCH  19  21
ATOM     21  C   UNL     1       2.379   5.417  19.833  0.00  0.00    +0.000 A 
ATOM     22  C   UNL     1       1.449   4.445  19.448  0.00  0.00    +0.000 A 
ATOM     23  C   UNL     1       1.861   3.175  19.028  0.00  0.00    +0.000 A 
ATOM     24  C   UNL     1       3.217   2.865  18.986  0.00  0.00    +0.000 A 
ATOM     25 CL   UNL     1       3.722   1.300  18.493  0.00  0.00    +0.000 Cl
ATOM     26  C   UNL     1       4.157   3.823  19.350  0.00  0.00    +0.000 A 
ATOM     27  C   UNL     1       3.743   5.091  19.776  0.00  0.00    +0.000 A 
ENDBRANCH  19  21
ENDBRANCH  16  17
ENDBRANCH   1  16
TORSDOF 3
ENDMDL
MODEL 7
REMARK VINA RESULT:      -7.3      3.710     10.414
REMARK  Name = 
REMARK  4 active torsions:
REMARK  status: ('A' for Active; 'I' for Inactive)
REMARK    1  A    between atoms: C_1  and  C_2
REMARK    2  A    between atoms: C_2  and  C_3
REMARK    3  A    between atoms: C_2  and  N_13
REMARK    4  A    between atoms: N_5  and  C_6
REMARK                            x       y       z     vdW  Elec       q    Type
REMARK                         _______ _______ _______ _____ _____    ______ ____
ROOT
ATOM      1  N   UNL     1      10.436  11.344  18.329  0.00  0.00    +0.000 NA
ATOM      2  C   UNL     1       9.745  12.540  17.840  0.00  0.00    +0.000 C 
ATOM      3  C   UNL     1       9.724  13.747  18.783  0.00  0.00    +0.000 C 
ATOM      4  C   UNL     1      11.088  14.068  19.431  0.00  0.00    +0.000 C 
ATOM      5  C   UNL     1      11.960  14.948  18.482  0.00  0.00    +0.000 C 
ATOM      6  C   UNL     1      12.322  16.260  19.195  0.00  0.00    +0.000 C 
ATOM      7  C   UNL     1      11.600  16.172  20.494  0.00  0.00    +0.000 A 
ATOM      8  C   UNL     1      11.589  17.126  21.502  0.00  0.00    +0.000 A 
ATOM      9  C   UNL     1      10.870  16.865  22.670  0.00  0.00    +0.000 A 
ATOM     10  C   UNL     1      10.172  15.659  22.818  0.00  0.00    +0.000 A 
ATOM     11  C   UNL     1      10.195  14.705  21.800  0.00  0.00    +0.000 A 
ATOM     12  C   UNL     1      10.909  14.970  20.637  0.00  0.00    +0.000 A 
ATOM     13  C   UNL     1      11.848  12.791  19.844  0.00  0.00    +0.000 C 
ATOM     14  C   UNL     1      11.789  11.689  18.788  0.00  0.00    +0.000 C 
ENDROOT
BRANCH   1  16
ATOM     15  C   UNL     1       9.041  11.032  20.516  0.00  0.00    +0.000 C 
ATOM     16  C   UNL     1       9.698  10.442  19.263  0.00  0.00    +0.000 C 
BRANCH  16  17
ATOM     17  C   UNL     1       8.655   9.548  18.530  0.00  0.00    +0.000 C 
ATOM     18  O   UNL     1       7.730  10.056  17.899  0.00  0.00    +0.000 OA
ATOM     19  N   UNL     1       8.803   8.192  18.756  0.00  0.00    +0.000 N 
ATOM     20  H   UNL     1       9.667   7.939  19.229  0.00  0.00    +0.000 HD
BRANCH  19  21
ATOM     21  C   UNL     1       7.906   7.170  18.381  0.00  0.00    +0.000 A 
ATOM     22  C   UNL     1       7.693   6.007  19.131  0.00  0.00    +0.000 A 
ATOM     23  C   UNL     1       6.824   5.006  18.682  0.00  0.00    +0.000 A 
ATOM     24  C   UNL     1       6.153   5.162  17.473  0.00  0.00    +0.000 A 
ATOM     25 CL   UNL     1       5.105   3.924  16.910  0.00  0.00    +0.000 Cl
ATOM     26  C   UNL     1       6.340   6.317  16.721  0.00  0.00    +0.000 A 
ATOM     27  C   UNL     1       7.215   7.315  17.169  0.00  0.00    +0.000 A 
ENDBRANCH  19  21
ENDBRANCH  16  17
ENDBRANCH   1  16
TORSDOF 3
ENDMDL
MODEL 8
REMARK VINA RESULT:      -7.3      9.553     11.332
REMARK  Name = 
REMARK  4 active torsions:
REMARK  status: ('A' for Active; 'I' for Inactive)
REMARK    1  A    between atoms: C_1  and  C_2
REMARK    2  A    between atoms: C_2  and  C_3
REMARK    3  A    between atoms: C_2  and  N_13
REMARK    4  A    between atoms: N_5  and  C_6
REMARK                            x       y       z     vdW  Elec       q    Type
REMARK                         _______ _______ _______ _____ _____    ______ ____
ROOT
ATOM      1  N   UNL     1      -0.823  13.891  21.505  0.00  0.00    +0.000 NA
ATOM      2  C   UNL     1      -1.770  15.008  21.508  0.00  0.00    +0.000 C 
ATOM      3  C   UNL     1      -3.248  14.648  21.327  0.00  0.00    +0.000 C 
ATOM      4  C   UNL     1      -3.720  13.461  22.195  0.00  0.00    +0.000 C 
ATOM      5  C   UNL     1      -4.113  13.943  23.626  0.00  0.00    +0.000 C 
ATOM      6  C   UNL     1      -5.578  13.568  23.905  0.00  0.00    +0.000 C 
ATOM      7  C   UNL     1      -6.041  12.962  22.626  0.00  0.00    +0.000 A 
ATOM      8  C   UNL     1      -7.311  12.472  22.354  0.00  0.00    +0.000 A 
ATOM      9  C   UNL     1      -7.563  11.914  21.099  0.00  0.00    +0.000 A 
ATOM     10  C   UNL     1      -6.550  11.853  20.133  0.00  0.00    +0.000 A 
ATOM     11  C   UNL     1      -5.275  12.343  20.421  0.00  0.00    +0.000 A 
ATOM     12  C   UNL     1      -5.029  12.901  21.670  0.00  0.00    +0.000 A 
ATOM     13  C   UNL     1      -2.665  12.339  22.266  0.00  0.00    +0.000 C 
ATOM     14  C   UNL     1      -1.244  12.862  22.467  0.00  0.00    +0.000 C 
ENDROOT
BRANCH   1  16
ATOM     15  C   UNL     1       0.203  14.278  19.133  0.00  0.00    +0.000 C 
ATOM     16  C   UNL     1      -0.396  13.338  20.184  0.00  0.00    +0.000 C 
BRANCH  16  17
ATOM     17  C   UNL     1       0.534  12.098  20.329  0.00  0.00    +0.000 C 
ATOM     18  O   UNL     1       1.586  12.176  20.960  0.00  0.00    +0.000 OA
ATOM     19  N   UNL     1       0.130  10.991  19.605  0.00  0.00    +0.000 N 
ATOM     20  H   UNL     1      -0.803  11.069  19.210  0.00  0.00    +0.000 HD
BRANCH  19  21
ATOM     21  C   UNL     1       0.863   9.804  19.397  0.00  0.00    +0.000 A 
ATOM     22  C   UNL     1       1.104   8.851  20.394  0.00  0.00    +0.000 A 
ATOM     23  C   UNL     1       1.879   7.715  20.136  0.00  0.00    +0.000 A 
ATOM     24  C   UNL     1       2.422   7.518  18.870  0.00  0.00    +0.000 A 
ATOM     25 CL   UNL     1       3.393   6.136  18.560  0.00  0.00    +0.000 Cl
ATOM     26  C   UNL     1       2.181   8.446  17.862  0.00  0.00    +0.000 A 
ATOM     27  C   UNL     1       1.410   9.586  18.123  0.00  0.00    +0.000 A 
ENDBRANCH  19  21
ENDBRANCH  16  17
ENDBRANCH   1  16
TORSDOF 3
ENDMDL
MODEL 9
REMARK VINA RESULT:      -7.3      7.201     10.008
REMARK  Name = 
REMARK  4 active torsions:
REMARK  status: ('A' for Active; 'I' for Inactive)
REMARK    1  A    between atoms: C_1  and  C_2
REMARK    2  A    between atoms: C_2  and  C_3
REMARK    3  A    between atoms: C_2  and  N_13
REMARK    4  A    between atoms: N_5  and  C_6
REMARK                            x       y       z     vdW  Elec       q    Type
REMARK                         _______ _______ _______ _____ _____    ______ ____
ROOT
ATOM      1  N   UNL     1       0.225   9.918  19.722  0.00  0.00    +0.000 NA
ATOM      2  C   UNL     1      -0.715  10.801  20.418  0.00  0.00    +0.000 C 
ATOM      3  C   UNL     1      -0.194  12.192  20.792  0.00  0.00    +0.000 C 
ATOM      4  C   UNL     1       0.570  12.907  19.656  0.00  0.00    +0.000 C 
ATOM      5  C   UNL     1      -0.421  13.643  18.700  0.00  0.00    +0.000 C 
ATOM      6  C   UNL     1      -0.075  15.140  18.662  0.00  0.00    +0.000 C 
ATOM      7  C   UNL     1       1.036  15.274  19.645  0.00  0.00    +0.000 A 
ATOM      8  C   UNL     1       1.696  16.445  19.994  0.00  0.00    +0.000 A 
ATOM      9  C   UNL     1       2.736  16.380  20.923  0.00  0.00    +0.000 A 
ATOM     10  C   UNL     1       3.104  15.154  21.493  0.00  0.00    +0.000 A 
ATOM     11  C   UNL     1       2.437  13.983  21.129  0.00  0.00    +0.000 A 
ATOM     12  C   UNL     1       1.399  14.051  20.206  0.00  0.00    +0.000 A 
ATOM     13  C   UNL     1       1.475  11.940  18.866  0.00  0.00    +0.000 C 
ATOM     14  C   UNL     1       0.802  10.604  18.557  0.00  0.00    +0.000 C 
ENDROOT
BRANCH   1  16
ATOM     15  C   UNL     1       0.858   8.721  21.956  0.00  0.00    +0.000 C 
ATOM     16  C   UNL     1       1.232   9.182  20.543  0.00  0.00    +0.000 C 
BRANCH  16  17
ATOM     17  C   UNL     1       1.860   7.979  19.779  0.00  0.00    +0.000 C 
ATOM     18  O   UNL     1       2.037   8.034  18.564  0.00  0.00    +0.000 OA
ATOM     19  N   UNL     1       2.074   6.856  20.556  0.00  0.00    +0.000 N 
ATOM     20  H   UNL     1       1.954   7.009  21.553  0.00  0.00    +0.000 HD
BRANCH  19  21
ATOM     21  C   UNL     1       2.451   5.574  20.103  0.00  0.00    +0.000 A 
ATOM     22  C   UNL     1       3.723   5.265  19.607  0.00  0.00    +0.000 A 
ATOM     23  C   UNL     1       4.022   3.984  19.128  0.00  0.00    +0.000 A 
ATOM     24  C   UNL     1       3.045   2.994  19.143  0.00  0.00    +0.000 A 
ATOM     25 CL   UNL     1       3.403   1.429  18.534  0.00  0.00    +0.000 Cl
ATOM     26  C   UNL     1       1.779   3.277  19.645  0.00  0.00    +0.000 A 
ATOM     27  C   UNL     1       1.480   4.561  20.119  0.00  0.00    +0.000 A 
ENDBRANCH  19  21
ENDBRANCH  16  17
ENDBRANCH   1  16
TORSDOF 3
ENDMDL
