MODEL 1
REMARK VINA RESULT:      -8.9      0.000      0.000
REMARK  Name = 
REMARK  6 active torsions:
REMARK  status: ('A' for Active; 'I' for Inactive)
REMARK    1  A    between atoms: C_1  and  C_2
REMARK    2  A    between atoms: C_2  and  C_3
REMARK    3  A    between atoms: C_3  and  C_4
REMARK    4  A    between atoms: C_3  and  N_15
REMARK    5  A    between atoms: N_8  and  C_9
REMARK    6  A    between atoms: C_9  and  C_10
REMARK                            x       y       z     vdW  Elec       q    Type
REMARK                         _______ _______ _______ _____ _____    ______ ____
ROOT
ATOM      1  N   UNL     1       3.136   4.626  18.198  0.00  0.00    +0.000 NA
ATOM      2  C   UNL     1       2.030   4.777  19.214  0.00  0.00    +0.000 C 
ATOM      3  C   UNL     1       2.226   5.932  20.236  0.00  0.00    +0.000 C 
ATOM      4  N   UNL     1       2.231   7.181  19.478  0.00  0.00    +0.000 N 
ATOM      5  C   UNL     1       1.543   8.255  19.968  0.00  0.00    +0.000 A 
ATOM      6  N   UNL     1       1.049   8.334  21.192  0.00  0.00    +0.000 NA
ATOM      7  C   UNL     1       0.315   9.498  21.379  0.00  0.00    +0.000 A 
ATOM      8  C   UNL     1      -0.326   9.912  22.569  0.00  0.00    +0.000 A 
ATOM      9  C   UNL     1      -1.045  11.101  22.582  0.00  0.00    +0.000 A 
ATOM     10  F   UNL     1      -1.633  11.501  23.718  0.00  0.00    +0.000 F 
ATOM     11  C   UNL     1      -1.177  11.880  21.441  0.00  0.00    +0.000 A 
ATOM     12  C   UNL     1      -0.561  11.490  20.251  0.00  0.00    +0.000 A 
ATOM     13  C   UNL     1       0.199  10.307  20.251  0.00  0.00    +0.000 A 
ATOM     14  S   UNL     1       1.119   9.617  18.978  0.00  0.00    +0.000 S 
ATOM     15  C   UNL     1       3.224   7.255  18.403  0.00  0.00    +0.000 C 
ATOM     16  C   UNL     1       3.258   5.954  17.536  0.00  0.00    +0.000 C 
ENDROOT
BRANCH   1  17
ATOM     17  C   UNL     1       4.371   4.116  18.844  0.00  0.00    +0.000 C 
BRANCH  17  18
ATOM     18  C   UNL     1       5.734   4.338  18.204  0.00  0.00    +0.000 A 
ATOM     19  N   UNL     1       6.761   4.675  18.974  0.00  0.00    +0.000 NA
ATOM     20  N   UNL     1       7.867   4.727  18.188  0.00  0.00    +0.000 NA
ATOM     21  N   UNL     1       7.564   4.421  16.944  0.00  0.00    +0.000 NA
ATOM     22  N   UNL     1       6.224   4.208  16.924  0.00  0.00    +0.000 N 
BRANCH  22  23
ATOM     23  C   UNL     1       5.658   3.742  15.668  0.00  0.00    +0.000 C 
BRANCH  23  24
ATOM     24  C   UNL     1       6.411   4.220  14.435  0.00  0.00    +0.000 A 
ATOM     25  C   UNL     1       7.417   5.166  14.282  0.00  0.00    +0.000 A 
ATOM     26  C   UNL     1       7.825   5.331  12.925  0.00  0.00    +0.000 A 
ATOM     27  C   UNL     1       7.186   4.450  12.087  0.00  0.00    +0.000 A 
ATOM     28  S   UNL     1       6.099   3.441  12.930  0.00  0.00    +0.000 S 
ENDBRANCH  23  24
ENDBRANCH  22  23
ENDBRANCH  17  18
BRANCH  17  30
ATOM     29  C   UNL     1       3.630   1.649  18.354  0.00  0.00    +0.000 C 
ATOM     30  C   UNL     1       4.242   2.640  19.338  0.00  0.00    +0.000 C 
ENDBRANCH  17  30
ENDBRANCH   1  17
TORSDOF 5
ENDMDL
MODEL 2
REMARK VINA RESULT:      -8.0      4.004     10.953
REMARK  Name = 
REMARK  6 active torsions:
REMARK  status: ('A' for Active; 'I' for Inactive)
REMARK    1  A    between atoms: C_1  and  C_2
REMARK    2  A    between atoms: C_2  and  C_3
REMARK    3  A    between atoms: C_3  and  C_4
REMARK    4  A    between atoms: C_3  and  N_15
REMARK    5  A    between atoms: N_8  and  C_9
REMARK    6  A    between atoms: C_9  and  C_10
REMARK                            x       y       z     vdW  Elec       q    Type
REMARK                         _______ _______ _______ _____ _____    ______ ____
ROOT
ATOM      1  N   UNL     1      -0.271  10.536  20.205  0.00  0.00    +0.000 NA
ATOM      2  C   UNL     1       0.094   9.964  18.857  0.00  0.00    +0.000 C 
ATOM      3  C   UNL     1       1.547   9.422  18.742  0.00  0.00    +0.000 C 
ATOM      4  N   UNL     1       1.667   8.310  19.681  0.00  0.00    +0.000 N 
ATOM      5  C   UNL     1       2.319   7.176  19.284  0.00  0.00    +0.000 A 
ATOM      6  N   UNL     1       3.052   7.078  18.189  0.00  0.00    +0.000 NA
ATOM      7  C   UNL     1       3.511   5.782  17.988  0.00  0.00    +0.000 A 
ATOM      8  C   UNL     1       4.339   5.331  16.936  0.00  0.00    +0.000 A 
ATOM      9  C   UNL     1       4.690   3.988  16.867  0.00  0.00    +0.000 A 
ATOM     10  F   UNL     1       5.492   3.568  15.880  0.00  0.00    +0.000 F 
ATOM     11  C   UNL     1       4.220   3.068  17.794  0.00  0.00    +0.000 A 
ATOM     12  C   UNL     1       3.394   3.486  18.840  0.00  0.00    +0.000 A 
ATOM     13  C   UNL     1       3.072   4.852  18.929  0.00  0.00    +0.000 A 
ATOM     14  S   UNL     1       2.151   5.666  20.125  0.00  0.00    +0.000 S 
ATOM     15  C   UNL     1       1.333   8.628  21.072  0.00  0.00    +0.000 C 
ATOM     16  C   UNL     1       0.011   9.455  21.189  0.00  0.00    +0.000 C 
ENDROOT
BRANCH   1  17
ATOM     17  C   UNL     1       0.441  11.817  20.438  0.00  0.00    +0.000 C 
BRANCH  17  18
ATOM     18  C   UNL     1       0.125  12.675  21.655  0.00  0.00    +0.000 A 
ATOM     19  N   UNL     1       0.761  13.828  21.815  0.00  0.00    +0.000 NA
ATOM     20  N   UNL     1       0.244  14.437  22.913  0.00  0.00    +0.000 NA
ATOM     21  N   UNL     1      -0.709  13.700  23.443  0.00  0.00    +0.000 NA
ATOM     22  N   UNL     1      -0.777  12.573  22.691  0.00  0.00    +0.000 N 
BRANCH  22  23
ATOM     23  C   UNL     1      -1.843  11.638  23.013  0.00  0.00    +0.000 C 
BRANCH  23  24
ATOM     24  C   UNL     1      -3.214  12.286  23.148  0.00  0.00    +0.000 A 
ATOM     25  C   UNL     1      -4.013  12.523  24.258  0.00  0.00    +0.000 A 
ATOM     26  C   UNL     1      -5.259  13.135  23.928  0.00  0.00    +0.000 A 
ATOM     27  C   UNL     1      -5.346  13.430  22.589  0.00  0.00    +0.000 A 
ATOM     28  S   UNL     1      -3.942  12.963  21.740  0.00  0.00    +0.000 S 
ENDBRANCH  23  24
ENDBRANCH  22  23
ENDBRANCH  17  18
BRANCH  17  30
ATOM     29  C   UNL     1      -0.755  13.388  18.713  0.00  0.00    +0.000 C 
ATOM     30  C   UNL     1       0.536  12.709  19.161  0.00  0.00    +0.000 C 
ENDBRANCH  17  30
ENDBRANCH   1  17
TORSDOF 5
ENDMDL
MODEL 3
REMARK VINA RESULT:      -7.9      4.173     11.191
REMARK  Name = 
REMARK  6 active torsions:
REMARK  status: ('A' for Active; 'I' for Inactive)
REMARK    1  A    between atoms: C_1  and  C_2
REMARK    2  A    between atoms: C_2  and  C_3
REMARK    3  A    between atoms: C_3  and  C_4
REMARK    4  A    between atoms: C_3  and  N_15
REMARK    5  A    between atoms: N_8  and  C_9
REMARK    6  A    between atoms: C_9  and  C_10
REMARK                            x       y       z     vdW  Elec       q    Type
REMARK                         _______ _______ _______ _____ _____    ______ ____
ROOT
ATOM      1  N   UNL     1      -0.733  10.632  19.497  0.00  0.00    +0.000 NA
ATOM      2  C   UNL     1      -0.226  10.095  18.181  0.00  0.00    +0.000 C 
ATOM      3  C   UNL     1       1.301   9.800  18.133  0.00  0.00    +0.000 C 
ATOM      4  N   UNL     1       1.565   8.747  19.111  0.00  0.00    +0.000 N 
ATOM      5  C   UNL     1       2.411   7.728  18.773  0.00  0.00    +0.000 A 
ATOM      6  N   UNL     1       3.192   7.725  17.707  0.00  0.00    +0.000 NA
ATOM      7  C   UNL     1       3.867   6.519  17.563  0.00  0.00    +0.000 A 
ATOM      8  C   UNL     1       4.799   6.186  16.555  0.00  0.00    +0.000 A 
ATOM      9  C   UNL     1       5.369   4.919  16.540  0.00  0.00    +0.000 A 
ATOM     10  F   UNL     1       6.269   4.613  15.595  0.00  0.00    +0.000 F 
ATOM     11  C   UNL     1       5.021   3.957  17.478  0.00  0.00    +0.000 A 
ATOM     12  C   UNL     1       4.097   4.258  18.481  0.00  0.00    +0.000 A 
ATOM     13  C   UNL     1       3.551   5.553  18.516  0.00  0.00    +0.000 A 
ATOM     14  S   UNL     1       2.462   6.233  19.653  0.00  0.00    +0.000 S 
ATOM     15  C   UNL     1       1.129   9.040  20.478  0.00  0.00    +0.000 C 
ATOM     16  C   UNL     1      -0.315   9.639  20.524  0.00  0.00    +0.000 C 
ENDROOT
BRANCH   1  17
ATOM     17  C   UNL     1      -0.252  12.020  19.714  0.00  0.00    +0.000 C 
BRANCH  17  18
ATOM     18  C   UNL     1      -0.508  12.736  21.033  0.00  0.00    +0.000 A 
ATOM     19  N   UNL     1       0.524  13.198  21.727  0.00  0.00    +0.000 NA
ATOM     20  N   UNL     1       0.033  13.864  22.803  0.00  0.00    +0.000 NA
ATOM     21  N   UNL     1      -1.283  13.842  22.798  0.00  0.00    +0.000 NA
ATOM     22  N   UNL     1      -1.644  13.109  21.715  0.00  0.00    +0.000 N 
BRANCH  22  23
ATOM     23  C   UNL     1      -3.067  13.030  21.427  0.00  0.00    +0.000 C 
BRANCH  23  24
ATOM     24  C   UNL     1      -3.936  12.818  22.659  0.00  0.00    +0.000 A 
ATOM     25  C   UNL     1      -3.649  12.273  23.904  0.00  0.00    +0.000 A 
ATOM     26  C   UNL     1      -4.782  12.234  24.770  0.00  0.00    +0.000 A 
ATOM     27  C   UNL     1      -5.883  12.827  24.201  0.00  0.00    +0.000 A 
ATOM     28  S   UNL     1      -5.553  13.415  22.635  0.00  0.00    +0.000 S 
ENDBRANCH  23  24
ENDBRANCH  22  23
ENDBRANCH  17  18
BRANCH  17  30
ATOM     29  C   UNL     1       0.073  14.359  18.575  0.00  0.00    +0.000 C 
ATOM     30  C   UNL     1      -0.560  12.972  18.516  0.00  0.00    +0.000 C 
ENDBRANCH  17  30
ENDBRANCH   1  17
TORSDOF 5
ENDMDL
MODEL 4
REMARK VINA RESULT:      -7.8      2.148      2.773
REMARK  Name = 
REMARK  6 active torsions:
REMARK  status: ('A' for Active; 'I' for Inactive)
REMARK    1  A    between atoms: C_1  and  C_2
REMARK    2  A    between atoms: C_2  and  C_3
REMARK    3  A    between atoms: C_3  and  C_4
REMARK    4  A    between atoms: C_3  and  N_15
REMARK    5  A    between atoms: N_8  and  C_9
REMARK    6  A    between atoms: C_9  and  C_10
REMARK                            x       y       z     vdW  Elec       q    Type
REMARK                         _______ _______ _______ _____ _____    ______ ____
ROOT
ATOM      1  N   UNL     1       3.198   4.906  17.865  0.00  0.00    +0.000 NA
ATOM      2  C   UNL     1       2.138   5.007  18.935  0.00  0.00    +0.000 C 
ATOM      3  C   UNL     1       2.352   6.149  19.969  0.00  0.00    +0.000 C 
ATOM      4  N   UNL     1       2.285   7.410  19.236  0.00  0.00    +0.000 N 
ATOM      5  C   UNL     1       1.593   8.455  19.779  0.00  0.00    +0.000 A 
ATOM      6  N   UNL     1       1.156   8.498  21.026  0.00  0.00    +0.000 NA
ATOM      7  C   UNL     1       0.400   9.637  21.271  0.00  0.00    +0.000 A 
ATOM      8  C   UNL     1      -0.194  10.011  22.497  0.00  0.00    +0.000 A 
ATOM      9  C   UNL     1      -0.944  11.178  22.568  0.00  0.00    +0.000 A 
ATOM     10  F   UNL     1      -1.488  11.541  23.738  0.00  0.00    +0.000 F 
ATOM     11  C   UNL     1      -1.153  11.974  21.450  0.00  0.00    +0.000 A 
ATOM     12  C   UNL     1      -0.584  11.624  20.224  0.00  0.00    +0.000 A 
ATOM     13  C   UNL     1       0.207  10.463  20.165  0.00  0.00    +0.000 A 
ATOM     14  S   UNL     1       1.083   9.822  18.837  0.00  0.00    +0.000 S 
ATOM     15  C   UNL     1       3.223   7.532  18.116  0.00  0.00    +0.000 C 
ATOM     16  C   UNL     1       3.251   6.248  17.224  0.00  0.00    +0.000 C 
ENDROOT
BRANCH   1  17
ATOM     17  C   UNL     1       4.476   4.419  18.441  0.00  0.00    +0.000 C 
BRANCH  17  18
ATOM     18  C   UNL     1       5.734   4.334  17.588  0.00  0.00    +0.000 A 
ATOM     19  N   UNL     1       5.652   3.824  16.366  0.00  0.00    +0.000 NA
ATOM     20  N   UNL     1       6.874   3.939  15.787  0.00  0.00    +0.000 NA
ATOM     21  N   UNL     1       7.722   4.518  16.610  0.00  0.00    +0.000 NA
ATOM     22  N   UNL     1       7.038   4.742  17.761  0.00  0.00    +0.000 N 
BRANCH  22  23
ATOM     23  C   UNL     1       7.736   5.481  18.800  0.00  0.00    +0.000 C 
BRANCH  23  24
ATOM     24  C   UNL     1       7.901   6.964  18.499  0.00  0.00    +0.000 A 
ATOM     25  C   UNL     1       8.739   7.926  19.048  0.00  0.00    +0.000 A 
ATOM     26  C   UNL     1       8.543   9.222  18.488  0.00  0.00    +0.000 A 
ATOM     27  C   UNL     1       7.624   9.205  17.466  0.00  0.00    +0.000 A 
ATOM     28  S   UNL     1       7.000   7.641  17.195  0.00  0.00    +0.000 S 
ENDBRANCH  23  24
ENDBRANCH  22  23
ENDBRANCH  17  18
BRANCH  17  30
ATOM     29  C   UNL     1       3.712   1.915  18.575  0.00  0.00    +0.000 C 
ATOM     30  C   UNL     1       4.313   3.120  19.291  0.00  0.00    +0.000 C 
ENDBRANCH  17  30
ENDBRANCH   1  17
TORSDOF 5
ENDMDL
MODEL 5
REMARK VINA RESULT:      -7.7      4.196     11.148
REMARK  Name = 
REMARK  6 active torsions:
REMARK  status: ('A' for Active; 'I' for Inactive)
REMARK    1  A    between atoms: C_1  and  C_2
REMARK    2  A    between atoms: C_2  and  C_3
REMARK    3  A    between atoms: C_3  and  C_4
REMARK    4  A    between atoms: C_3  and  N_15
REMARK    5  A    between atoms: N_8  and  C_9
REMARK    6  A    between atoms: C_9  and  C_10
REMARK                            x       y       z     vdW  Elec       q    Type
REMARK                         _______ _______ _______ _____ _____    ______ ____
ROOT
ATOM      1  N   UNL     1      -0.594  10.938  20.298  0.00  0.00    +0.000 NA
ATOM      2  C   UNL     1      -0.308  10.213  19.006  0.00  0.00    +0.000 C 
ATOM      3  C   UNL     1       1.150   9.694  18.850  0.00  0.00    +0.000 C 
ATOM      4  N   UNL     1       1.371   8.709  19.905  0.00  0.00    +0.000 N 
ATOM      5  C   UNL     1       2.029   7.551  19.601  0.00  0.00    +0.000 A 
ATOM      6  N   UNL     1       2.685   7.335  18.474  0.00  0.00    +0.000 NA
ATOM      7  C   UNL     1       3.170   6.035  18.399  0.00  0.00    +0.000 A 
ATOM      8  C   UNL     1       3.935   5.477  17.350  0.00  0.00    +0.000 A 
ATOM      9  C   UNL     1       4.323   4.144  17.419  0.00  0.00    +0.000 A 
ATOM     10  F   UNL     1       5.066   3.624  16.433  0.00  0.00    +0.000 F 
ATOM     11  C   UNL     1       3.949   3.335  18.482  0.00  0.00    +0.000 A 
ATOM     12  C   UNL     1       3.187   3.859  19.529  0.00  0.00    +0.000 A 
ATOM     13  C   UNL     1       2.829   5.218  19.475  0.00  0.00    +0.000 A 
ATOM     14  S   UNL     1       1.970   6.152  20.629  0.00  0.00    +0.000 S 
ATOM     15  C   UNL     1       1.127   9.189  21.268  0.00  0.00    +0.000 C 
ATOM     16  C   UNL     1      -0.208   9.994  21.383  0.00  0.00    +0.000 C 
ENDROOT
BRANCH   1  17
ATOM     17  C   UNL     1       0.091  12.254  20.321  0.00  0.00    +0.000 C 
BRANCH  17  18
ATOM     18  C   UNL     1      -0.221  13.278  21.403  0.00  0.00    +0.000 A 
ATOM     19  N   UNL     1       0.781  13.867  22.043  0.00  0.00    +0.000 NA
ATOM     20  N   UNL     1       0.248  14.789  22.884  0.00  0.00    +0.000 NA
ATOM     21  N   UNL     1      -1.064  14.803  22.783  0.00  0.00    +0.000 NA
ATOM     22  N   UNL     1      -1.383  13.837  21.885  0.00  0.00    +0.000 N 
BRANCH  22  23
ATOM     23  C   UNL     1      -2.786  13.729  21.515  0.00  0.00    +0.000 C 
BRANCH  23  24
ATOM     24  C   UNL     1      -3.691  13.271  22.650  0.00  0.00    +0.000 A 
ATOM     25  C   UNL     1      -3.439  12.482  23.765  0.00  0.00    +0.000 A 
ATOM     26  C   UNL     1      -4.597  12.268  24.570  0.00  0.00    +0.000 A 
ATOM     27  C   UNL     1      -5.683  12.965  24.100  0.00  0.00    +0.000 A 
ATOM     28  S   UNL     1      -5.309  13.862  22.698  0.00  0.00    +0.000 S 
ENDBRANCH  23  24
ENDBRANCH  22  23
ENDBRANCH  17  18
BRANCH  17  30
ATOM     29  C   UNL     1       1.495  13.490  18.483  0.00  0.00    +0.000 C 
ATOM     30  C   UNL     1       0.139  12.947  18.923  0.00  0.00    +0.000 C 
ENDBRANCH  17  30
ENDBRANCH   1  17
TORSDOF 5
ENDMDL
MODEL 6
REMARK VINA RESULT:      -7.7      4.093     10.906
REMARK  Name = 
REMARK  6 active torsions:
REMARK  status: ('A' for Active; 'I' for Inactive)
REMARK    1  A    between atoms: C_1  and  C_2
REMARK    2  A    between atoms: C_2  and  C_3
REMARK    3  A    between atoms: C_3  and  C_4
REMARK    4  A    between atoms: C_3  and  N_15
REMARK    5  A    between atoms: N_8  and  C_9
REMARK    6  A    between atoms: C_9  and  C_10
REMARK                            x       y       z     vdW  Elec       q    Type
REMARK                         _______ _______ _______ _____ _____    ______ ____
ROOT
ATOM      1  N   UNL     1      -0.110  10.905  19.676  0.00  0.00    +0.000 NA
ATOM      2  C   UNL     1       0.252  10.187  18.399  0.00  0.00    +0.000 C 
ATOM      3  C   UNL     1       1.674   9.557  18.377  0.00  0.00    +0.000 C 
ATOM      4  N   UNL     1       1.708   8.536  19.420  0.00  0.00    +0.000 N 
ATOM      5  C   UNL     1       2.302   7.335  19.152  0.00  0.00    +0.000 A 
ATOM      6  N   UNL     1       3.053   7.091  18.091  0.00  0.00    +0.000 NA
ATOM      7  C   UNL     1       3.442   5.759  18.028  0.00  0.00    +0.000 A 
ATOM      8  C   UNL     1       4.266   5.164  17.047  0.00  0.00    +0.000 A 
ATOM      9  C   UNL     1       4.541   3.804  17.115  0.00  0.00    +0.000 A 
ATOM     10  F   UNL     1       5.340   3.246  16.195  0.00  0.00    +0.000 F 
ATOM     11  C   UNL     1       3.997   3.004  18.111  0.00  0.00    +0.000 A 
ATOM     12  C   UNL     1       3.173   3.565  19.089  0.00  0.00    +0.000 A 
ATOM     13  C   UNL     1       2.929   4.949  19.039  0.00  0.00    +0.000 A 
ATOM     14  S   UNL     1       2.029   5.924  20.126  0.00  0.00    +0.000 S 
ATOM     15  C   UNL     1       1.361   9.004  20.765  0.00  0.00    +0.000 C 
ATOM     16  C   UNL     1       0.087   9.910  20.766  0.00  0.00    +0.000 C 
ENDROOT
BRANCH   1  17
ATOM     17  C   UNL     1       0.669  12.162  19.807  0.00  0.00    +0.000 C 
BRANCH  17  18
ATOM     18  C   UNL     1       0.390  13.138  20.941  0.00  0.00    +0.000 A 
ATOM     19  N   UNL     1       1.411  13.673  21.598  0.00  0.00    +0.000 NA
ATOM     20  N   UNL     1       0.907  14.564  22.489  0.00  0.00    +0.000 NA
ATOM     21  N   UNL     1      -0.405  14.611  22.404  0.00  0.00    +0.000 NA
ATOM     22  N   UNL     1      -0.755  13.697  21.464  0.00  0.00    +0.000 N 
BRANCH  22  23
ATOM     23  C   UNL     1      -2.163  13.638  21.105  0.00  0.00    +0.000 C 
BRANCH  23  24
ATOM     24  C   UNL     1      -3.095  13.436  22.291  0.00  0.00    +0.000 A 
ATOM     25  C   UNL     1      -4.253  14.100  22.674  0.00  0.00    +0.000 A 
ATOM     26  C   UNL     1      -4.804  13.603  23.891  0.00  0.00    +0.000 A 
ATOM     27  C   UNL     1      -4.108  12.516  24.364  0.00  0.00    +0.000 A 
ATOM     28  S   UNL     1      -2.797  12.110  23.351  0.00  0.00    +0.000 S 
ENDBRANCH  23  24
ENDBRANCH  22  23
ENDBRANCH  17  18
BRANCH  17  30
ATOM     29  C   UNL     1       2.240  13.343  18.071  0.00  0.00    +0.000 C 
ATOM     30  C   UNL     1       0.822  12.934  18.459  0.00  0.00    +0.000 C 
ENDBRANCH  17  30
ENDBRANCH   1  17
TORSDOF 5
ENDMDL
MODEL 7
REMARK VINA RESULT:      -7.6      4.444      9.830
REMARK  Name = 
REMARK  6 active torsions:
REMARK  status: ('A' for Active; 'I' for Inactive)
REMARK    1  A    between atoms: C_1  and  C_2
REMARK    2  A    between atoms: C_2  and  C_3
REMARK    3  A    between atoms: C_3  and  C_4
REMARK    4  A    between atoms: C_3  and  N_15
REMARK    5  A    between atoms: N_8  and  C_9
REMARK    6  A    between atoms: C_9  and  C_10
REMARK                            x       y       z     vdW  Elec       q    Type
REMARK                         _______ _______ _______ _____ _____    ______ ____
ROOT
ATOM      1  N   UNL     1      -0.520  11.218  19.606  0.00  0.00    +0.000 NA
ATOM      2  C   UNL     1      -0.213  10.376  18.392  0.00  0.00    +0.000 C 
ATOM      3  C   UNL     1       1.241   9.829  18.319  0.00  0.00    +0.000 C 
ATOM      4  N   UNL     1       1.424   8.941  19.464  0.00  0.00    +0.000 N 
ATOM      5  C   UNL     1       2.074   7.752  19.282  0.00  0.00    +0.000 A 
ATOM      6  N   UNL     1       2.753   7.428  18.195  0.00  0.00    +0.000 NA
ATOM      7  C   UNL     1       3.222   6.121  18.249  0.00  0.00    +0.000 A 
ATOM      8  C   UNL     1       4.004   5.462  17.274  0.00  0.00    +0.000 A 
ATOM      9  C   UNL     1       4.372   4.137  17.471  0.00  0.00    +0.000 A 
ATOM     10  F   UNL     1       5.131   3.521  16.555  0.00  0.00    +0.000 F 
ATOM     11  C   UNL     1       3.963   3.431  18.594  0.00  0.00    +0.000 A 
ATOM     12  C   UNL     1       3.184   4.056  19.570  0.00  0.00    +0.000 A 
ATOM     13  C   UNL     1       2.845   5.409  19.385  0.00  0.00    +0.000 A 
ATOM     14  S   UNL     1       1.972   6.453  20.429  0.00  0.00    +0.000 S 
ATOM     15  C   UNL     1       1.155   9.544  20.771  0.00  0.00    +0.000 C 
ATOM     16  C   UNL     1      -0.172  10.371  20.780  0.00  0.00    +0.000 C 
ENDROOT
BRANCH   1  17
ATOM     17  C   UNL     1       0.182  12.523  19.527  0.00  0.00    +0.000 C 
BRANCH  17  18
ATOM     18  C   UNL     1       0.391  13.374  20.771  0.00  0.00    +0.000 A 
ATOM     19  N   UNL     1      -0.623  13.553  21.608  0.00  0.00    +0.000 NA
ATOM     20  N   UNL     1      -0.162  14.265  22.668  0.00  0.00    +0.000 NA
ATOM     21  N   UNL     1       1.118  14.530  22.525  0.00  0.00    +0.000 NA
ATOM     22  N   UNL     1       1.479  14.011  21.324  0.00  0.00    +0.000 N 
BRANCH  22  23
ATOM     23  C   UNL     1       2.891  14.080  20.983  0.00  0.00    +0.000 C 
BRANCH  23  24
ATOM     24  C   UNL     1       3.174  14.783  19.662  0.00  0.00    +0.000 A 
ATOM     25  C   UNL     1       3.444  14.284  18.395  0.00  0.00    +0.000 A 
ATOM     26  C   UNL     1       3.687  15.309  17.432  0.00  0.00    +0.000 A 
ATOM     27  C   UNL     1       3.510  16.563  17.964  0.00  0.00    +0.000 A 
ATOM     28  S   UNL     1       3.066  16.502  19.610  0.00  0.00    +0.000 S 
ENDBRANCH  23  24
ENDBRANCH  22  23
ENDBRANCH  17  18
BRANCH  17  30
ATOM     29  C   UNL     1      -0.266  14.922  18.568  0.00  0.00    +0.000 C 
ATOM     30  C   UNL     1      -0.307  13.414  18.342  0.00  0.00    +0.000 C 
ENDBRANCH  17  30
ENDBRANCH   1  17
TORSDOF 5
ENDMDL
MODEL 8
REMARK VINA RESULT:      -7.6      4.290     11.355
REMARK  Name = 
REMARK  6 active torsions:
REMARK  status: ('A' for Active; 'I' for Inactive)
REMARK    1  A    between atoms: C_1  and  C_2
REMARK    2  A    between atoms: C_2  and  C_3
REMARK    3  A    between atoms: C_3  and  C_4
REMARK    4  A    between atoms: C_3  and  N_15
REMARK    5  A    between atoms: N_8  and  C_9
REMARK    6  A    between atoms: C_9  and  C_10
REMARK                            x       y       z     vdW  Elec       q    Type
REMARK                         _______ _______ _______ _____ _____    ______ ____
ROOT
ATOM      1  N   UNL     1      -0.843  10.566  19.620  0.00  0.00    +0.000 NA
ATOM      2  C   UNL     1      -0.317  10.138  18.272  0.00  0.00    +0.000 C 
ATOM      3  C   UNL     1       1.221   9.922  18.201  0.00  0.00    +0.000 C 
ATOM      4  N   UNL     1       1.543   8.824  19.110  0.00  0.00    +0.000 N 
ATOM      5  C   UNL     1       2.435   7.871  18.706  0.00  0.00    +0.000 A 
ATOM      6  N   UNL     1       3.210   7.973  17.640  0.00  0.00    +0.000 NA
ATOM      7  C   UNL     1       3.942   6.813  17.419  0.00  0.00    +0.000 A 
ATOM      8  C   UNL     1       4.883   6.590  16.389  0.00  0.00    +0.000 A 
ATOM      9  C   UNL     1       5.515   5.356  16.293  0.00  0.00    +0.000 A 
ATOM     10  F   UNL     1       6.422   5.155  15.328  0.00  0.00    +0.000 F 
ATOM     11  C   UNL     1       5.220   4.322  17.170  0.00  0.00    +0.000 A 
ATOM     12  C   UNL     1       4.288   4.513  18.193  0.00  0.00    +0.000 A 
ATOM     13  C   UNL     1       3.679   5.775  18.310  0.00  0.00    +0.000 A 
ATOM     14  S   UNL     1       2.565   6.328  19.491  0.00  0.00    +0.000 S 
ATOM     15  C   UNL     1       1.100   9.009  20.494  0.00  0.00    +0.000 C 
ATOM     16  C   UNL     1      -0.371   9.532  20.582  0.00  0.00    +0.000 C 
ENDROOT
BRANCH   1  17
ATOM     17  C   UNL     1      -0.429  11.959  19.923  0.00  0.00    +0.000 C 
BRANCH  17  18
ATOM     18  C   UNL     1      -0.683  12.567  21.295  0.00  0.00    +0.000 A 
ATOM     19  N   UNL     1       0.333  13.089  21.969  0.00  0.00    +0.000 NA
ATOM     20  N   UNL     1      -0.163  13.638  23.106  0.00  0.00    +0.000 NA
ATOM     21  N   UNL     1      -1.469  13.484  23.162  0.00  0.00    +0.000 NA
ATOM     22  N   UNL     1      -1.813  12.783  22.052  0.00  0.00    +0.000 N 
BRANCH  22  23
ATOM     23  C   UNL     1      -3.235  12.578  21.826  0.00  0.00    +0.000 C 
BRANCH  23  24
ATOM     24  C   UNL     1      -4.110  13.721  22.322  0.00  0.00    +0.000 A 
ATOM     25  C   UNL     1      -4.315  15.003  21.829  0.00  0.00    +0.000 A 
ATOM     26  C   UNL     1      -5.206  15.774  22.632  0.00  0.00    +0.000 A 
ATOM     27  C   UNL     1      -5.730  15.038  23.668  0.00  0.00    +0.000 A 
ATOM     28  S   UNL     1      -5.142  13.437  23.673  0.00  0.00    +0.000 S 
ENDBRANCH  23  24
ENDBRANCH  22  23
ENDBRANCH  17  18
BRANCH  17  30
ATOM     29  C   UNL     1       0.015  14.248  18.724  0.00  0.00    +0.000 C 
ATOM     30  C   UNL     1      -0.821  12.974  18.804  0.00  0.00    +0.000 C 
ENDBRANCH  17  30
ENDBRANCH   1  17
TORSDOF 5
ENDMDL
MODEL 9
REMARK VINA RESULT:      -7.5      4.031     10.945
REMARK  Name = 
REMARK  6 active torsions:
REMARK  status: ('A' for Active; 'I' for Inactive)
REMARK    1  A    between atoms: C_1  and  C_2
REMARK    2  A    between atoms: C_2  and  C_3
REMARK    3  A    between atoms: C_3  and  C_4
REMARK    4  A    between atoms: C_3  and  N_15
REMARK    5  A    between atoms: N_8  and  C_9
REMARK    6  A    between atoms: C_9  and  C_10
REMARK                            x       y       z     vdW  Elec       q    Type
REMARK                         _______ _______ _______ _____ _____    ______ ____
ROOT
ATOM      1  N   UNL     1      -0.806  10.254  19.544  0.00  0.00    +0.000 NA
ATOM      2  C   UNL     1      -0.377   9.687  18.213  0.00  0.00    +0.000 C 
ATOM      3  C   UNL     1       1.161   9.588  18.003  0.00  0.00    +0.000 C 
ATOM      4  N   UNL     1       1.672   8.656  19.004  0.00  0.00    +0.000 N 
ATOM      5  C   UNL     1       2.607   7.732  18.632  0.00  0.00    +0.000 A 
ATOM      6  N   UNL     1       3.260   7.748  17.483  0.00  0.00    +0.000 NA
ATOM      7  C   UNL     1       4.074   6.631  17.334  0.00  0.00    +0.000 A 
ATOM      8  C   UNL     1       4.926   6.344  16.245  0.00  0.00    +0.000 A 
ATOM      9  C   UNL     1       5.660   5.164  16.240  0.00  0.00    +0.000 A 
ATOM     10  F   UNL     1       6.483   4.904  15.216  0.00  0.00    +0.000 F 
ATOM     11  C   UNL     1       5.551   4.240  17.271  0.00  0.00    +0.000 A 
ATOM     12  C   UNL     1       4.710   4.495  18.356  0.00  0.00    +0.000 A 
ATOM     13  C   UNL     1       3.999   5.708  18.376  0.00  0.00    +0.000 A 
ATOM     14  S   UNL     1       2.958   6.328  19.590  0.00  0.00    +0.000 S 
ATOM     15  C   UNL     1       1.352   8.995  20.393  0.00  0.00    +0.000 C 
ATOM     16  C   UNL     1      -0.146   9.404  20.573  0.00  0.00    +0.000 C 
ENDROOT
BRANCH   1  17
ATOM     17  C   UNL     1      -0.498  11.704  19.618  0.00  0.00    +0.000 C 
BRANCH  17  18
ATOM     18  C   UNL     1      -0.240  12.380  20.956  0.00  0.00    +0.000 A 
ATOM     19  N   UNL     1       0.745  13.264  21.054  0.00  0.00    +0.000 NA
ATOM     20  N   UNL     1       0.712  13.782  22.308  0.00  0.00    +0.000 NA
ATOM     21  N   UNL     1      -0.275  13.253  23.000  0.00  0.00    +0.000 NA
ATOM     22  N   UNL     1      -0.864  12.344  22.183  0.00  0.00    +0.000 N 
BRANCH  22  23
ATOM     23  C   UNL     1      -2.064  11.697  22.688  0.00  0.00    +0.000 C 
BRANCH  23  24
ATOM     24  C   UNL     1      -3.262  12.629  22.815  0.00  0.00    +0.000 A 
ATOM     25  C   UNL     1      -3.901  13.436  21.883  0.00  0.00    +0.000 A 
ATOM     26  C   UNL     1      -4.980  14.184  22.441  0.00  0.00    +0.000 A 
ATOM     27  C   UNL     1      -5.196  13.867  23.761  0.00  0.00    +0.000 A 
ATOM     28  S   UNL     1      -4.100  12.686  24.320  0.00  0.00    +0.000 S 
ENDBRANCH  23  24
ENDBRANCH  22  23
ENDBRANCH  17  18
BRANCH  17  30
ATOM     29  C   UNL     1      -2.910  12.128  18.679  0.00  0.00    +0.000 C 
ATOM     30  C   UNL     1      -1.454  12.580  18.748  0.00  0.00    +0.000 C 
ENDBRANCH  17  30
ENDBRANCH   1  17
TORSDOF 5
ENDMDL
