MODEL 1
REMARK VINA RESULT:      -8.4      0.000      0.000
REMARK  Name = 
REMARK  10 active torsions:
REMARK  status: ('A' for Active; 'I' for Inactive)
REMARK    1  A    between atoms: C_1  and  C_2
REMARK    2  A    between atoms: C_2  and  N_3
REMARK    3  A    between atoms: C_6  and  C_7
REMARK    4  A    between atoms: C_7  and  N_8
REMARK    5  A    between atoms: N_8  and  C_9
REMARK    6  A    between atoms: C_9  and  C_10
REMARK    7  A    between atoms: C_13  and  C_14
REMARK    8  A    between atoms: N_16  and  C_17
REMARK    9  A    between atoms: C_19  and  C_20
REMARK   10  A    between atoms: C_28  and  O_29
REMARK                            x       y       z     vdW  Elec       q    Type
REMARK                         _______ _______ _______ _____ _____    ______ ____
ROOT
ATOM      1  C   UNL     1       7.346   5.829  17.798  0.00  0.00    +0.000 A 
ATOM      2  C   UNL     1       8.170   6.219  18.863  0.00  0.00    +0.000 A 
ATOM      3  C   UNL     1       8.507   7.550  19.038  0.00  0.00    +0.000 A 
ATOM      4  C   UNL     1       8.075   8.512  18.118  0.00  0.00    +0.000 A 
ATOM      5  C   UNL     1       7.307   8.137  17.016  0.00  0.00    +0.000 A 
ATOM      6  C   UNL     1       6.942   6.793  16.859  0.00  0.00    +0.000 A 
ENDROOT
BRANCH   4   7
ATOM      7  C   UNL     1       8.571   9.886  18.334  0.00  0.00    +0.000 C 
ATOM      8  O   UNL     1       8.123  10.745  17.572  0.00  0.00    +0.000 OA
ATOM      9  N   UNL     1       9.525  10.085  19.313  0.00  0.00    +0.000 N 
ATOM     10  H   UNL     1      10.005   9.284  19.718  0.00  0.00    +0.000 HD
BRANCH   9  11
ATOM     11  C   UNL     1      10.119  11.339  19.600  0.00  0.00    +0.000 A 
ATOM     12  C   UNL     1       9.797  12.057  20.753  0.00  0.00    +0.000 A 
ATOM     13  C   UNL     1      10.243  13.367  20.987  0.00  0.00    +0.000 A 
ATOM     14  C   UNL     1      11.159  13.901  20.069  0.00  0.00    +0.000 A 
ATOM     15  C   UNL     1      11.561  13.169  18.941  0.00  0.00    +0.000 A 
ATOM     16  C   UNL     1      11.027  11.901  18.703  0.00  0.00    +0.000 A 
BRANCH  13  17
ATOM     17  C   UNL     1       9.696  14.124  22.136  0.00  0.00    +0.000 A 
ATOM     18  C   UNL     1       8.691  13.611  22.968  0.00  0.00    +0.000 A 
ATOM     19  C   UNL     1       8.188  14.362  24.038  0.00  0.00    +0.000 A 
ATOM     20  C   UNL     1       8.674  15.642  24.294  0.00  0.00    +0.000 A 
ATOM     21  C   UNL     1       9.671  16.173  23.488  0.00  0.00    +0.000 A 
ATOM     22  C   UNL     1      10.179  15.419  22.429  0.00  0.00    +0.000 A 
ENDBRANCH  13  17
BRANCH  16  23
ATOM     23  O   UNL     1      11.361  11.202  17.574  0.00  0.00    +0.000 OA
ATOM     24  H   UNL     1      12.252  10.832  17.699  0.00  0.00    +0.000 HD
ENDBRANCH  16  23
ENDBRANCH   9  11
ENDBRANCH   4   7
BRANCH   1  25
ATOM     25  C   UNL     1       6.901   4.388  17.675  0.00  0.00    +0.000 C 
BRANCH  25  26
ATOM     26  N   UNL     1       5.920   3.986  18.697  0.00  0.00    +0.000 NA
ATOM     27  H   UNL     1       5.699   3.003  18.556  0.00  0.00    +0.000 HD
BRANCH  26  28
ATOM     28  C   UNL     1       4.695   4.787  18.623  0.00  0.00    +0.000 C 
BRANCH  28  32
ATOM     29  N   UNL     1       1.668   2.928  19.404  0.00  0.00    +0.000 NA
ATOM     30  C   UNL     1       1.675   4.384  19.170  0.00  0.00    +0.000 C 
ATOM     31  C   UNL     1       2.256   4.761  17.809  0.00  0.00    +0.000 C 
ATOM     32  C   UNL     1       3.667   4.198  17.635  0.00  0.00    +0.000 C 
ATOM     33  C   UNL     1       3.583   2.676  17.815  0.00  0.00    +0.000 C 
ATOM     34  C   UNL     1       2.975   2.297  19.166  0.00  0.00    +0.000 C 
BRANCH  29  36
ATOM     35  C   UNL     1       2.134   3.031  21.877  0.00  0.00    +0.000 C 
ATOM     36  C   UNL     1       1.161   2.664  20.762  0.00  0.00    +0.000 C 
ENDBRANCH  29  36
ENDBRANCH  28  32
ENDBRANCH  26  28
ENDBRANCH  25  26
ENDBRANCH   1  25
TORSDOF 9
ENDMDL
MODEL 2
REMARK VINA RESULT:      -8.4      0.882      1.374
REMARK  Name = 
REMARK  10 active torsions:
REMARK  status: ('A' for Active; 'I' for Inactive)
REMARK    1  A    between atoms: C_1  and  C_2
REMARK    2  A    between atoms: C_2  and  N_3
REMARK    3  A    between atoms: C_6  and  C_7
REMARK    4  A    between atoms: C_7  and  N_8
REMARK    5  A    between atoms: N_8  and  C_9
REMARK    6  A    between atoms: C_9  and  C_10
REMARK    7  A    between atoms: C_13  and  C_14
REMARK    8  A    between atoms: N_16  and  C_17
REMARK    9  A    between atoms: C_19  and  C_20
REMARK   10  A    between atoms: C_28  and  O_29
REMARK                            x       y       z     vdW  Elec       q    Type
REMARK                         _______ _______ _______ _____ _____    ______ ____
ROOT
ATOM      1  C   UNL     1       7.290   5.439  17.581  0.00  0.00    +0.000 A 
ATOM      2  C   UNL     1       7.016   6.498  16.703  0.00  0.00    +0.000 A 
ATOM      3  C   UNL     1       7.460   7.777  16.988  0.00  0.00    +0.000 A 
ATOM      4  C   UNL     1       8.138   8.037  18.184  0.00  0.00    +0.000 A 
ATOM      5  C   UNL     1       8.366   7.010  19.101  0.00  0.00    +0.000 A 
ATOM      6  C   UNL     1       7.942   5.711  18.796  0.00  0.00    +0.000 A 
ENDROOT
BRANCH   4   7
ATOM      7  C   UNL     1       8.480   9.450  18.444  0.00  0.00    +0.000 C 
ATOM      8  O   UNL     1       7.934  10.278  17.713  0.00  0.00    +0.000 OA
ATOM      9  N   UNL     1       9.413   9.721  19.426  0.00  0.00    +0.000 N 
ATOM     10  H   UNL     1       9.982   8.965  19.802  0.00  0.00    +0.000 HD
BRANCH   9  11
ATOM     11  C   UNL     1       9.865  11.023  19.753  0.00  0.00    +0.000 A 
ATOM     12  C   UNL     1       9.527  11.637  20.960  0.00  0.00    +0.000 A 
ATOM     13  C   UNL     1       9.825  12.978  21.245  0.00  0.00    +0.000 A 
ATOM     14  C   UNL     1      10.612  13.668  20.313  0.00  0.00    +0.000 A 
ATOM     15  C   UNL     1      11.033  13.050  19.125  0.00  0.00    +0.000 A 
ATOM     16  C   UNL     1      10.644  11.739  18.843  0.00  0.00    +0.000 A 
BRANCH  13  17
ATOM     17  C   UNL     1       9.258  13.602  22.463  0.00  0.00    +0.000 A 
ATOM     18  C   UNL     1       8.646  12.855  23.479  0.00  0.00    +0.000 A 
ATOM     19  C   UNL     1       8.109  13.481  24.611  0.00  0.00    +0.000 A 
ATOM     20  C   UNL     1       8.167  14.867  24.747  0.00  0.00    +0.000 A 
ATOM     21  C   UNL     1       8.771  15.630  23.758  0.00  0.00    +0.000 A 
ATOM     22  C   UNL     1       9.315  15.004  22.636  0.00  0.00    +0.000 A 
ENDBRANCH  13  17
BRANCH  16  23
ATOM     23  O   UNL     1      10.993  11.145  17.659  0.00  0.00    +0.000 OA
ATOM     24  H   UNL     1      10.204  11.117  17.091  0.00  0.00    +0.000 HD
ENDBRANCH  16  23
ENDBRANCH   9  11
ENDBRANCH   4   7
BRANCH   1  25
ATOM     25  C   UNL     1       6.889   4.028  17.211  0.00  0.00    +0.000 C 
BRANCH  25  26
ATOM     26  N   UNL     1       5.473   3.899  16.829  0.00  0.00    +0.000 NA
ATOM     27  H   UNL     1       5.226   4.696  16.247  0.00  0.00    +0.000 HD
BRANCH  26  28
ATOM     28  C   UNL     1       4.594   3.847  18.001  0.00  0.00    +0.000 C 
BRANCH  28  32
ATOM     29  N   UNL     1       1.508   4.262  19.881  0.00  0.00    +0.000 NA
ATOM     30  C   UNL     1       2.834   4.578  20.441  0.00  0.00    +0.000 C 
ATOM     31  C   UNL     1       3.602   5.598  19.602  0.00  0.00    +0.000 C 
ATOM     32  C   UNL     1       3.746   5.127  18.154  0.00  0.00    +0.000 C 
ATOM     33  C   UNL     1       2.333   4.887  17.604  0.00  0.00    +0.000 C 
ATOM     34  C   UNL     1       1.554   3.887  18.459  0.00  0.00    +0.000 C 
BRANCH  29  36
ATOM     35  C   UNL     1       1.785   2.629  21.779  0.00  0.00    +0.000 C 
ATOM     36  C   UNL     1       0.874   3.222  20.710  0.00  0.00    +0.000 C 
ENDBRANCH  29  36
ENDBRANCH  28  32
ENDBRANCH  26  28
ENDBRANCH  25  26
ENDBRANCH   1  25
TORSDOF 9
ENDMDL
MODEL 3
REMARK VINA RESULT:      -8.3      3.312     10.300
REMARK  Name = 
REMARK  10 active torsions:
REMARK  status: ('A' for Active; 'I' for Inactive)
REMARK    1  A    between atoms: C_1  and  C_2
REMARK    2  A    between atoms: C_2  and  N_3
REMARK    3  A    between atoms: C_6  and  C_7
REMARK    4  A    between atoms: C_7  and  N_8
REMARK    5  A    between atoms: N_8  and  C_9
REMARK    6  A    between atoms: C_9  and  C_10
REMARK    7  A    between atoms: C_13  and  C_14
REMARK    8  A    between atoms: N_16  and  C_17
REMARK    9  A    between atoms: C_19  and  C_20
REMARK   10  A    between atoms: C_28  and  O_29
REMARK                            x       y       z     vdW  Elec       q    Type
REMARK                         _______ _______ _______ _____ _____    ______ ____
ROOT
ATOM      1  C   UNL     1       9.326  11.568  18.651  0.00  0.00    +0.000 A 
ATOM      2  C   UNL     1       9.631  10.473  19.471  0.00  0.00    +0.000 A 
ATOM      3  C   UNL     1       9.102   9.223  19.200  0.00  0.00    +0.000 A 
ATOM      4  C   UNL     1       8.210   9.054  18.135  0.00  0.00    +0.000 A 
ATOM      5  C   UNL     1       7.842  10.143  17.344  0.00  0.00    +0.000 A 
ATOM      6  C   UNL     1       8.404  11.400  17.604  0.00  0.00    +0.000 A 
ENDROOT
BRANCH   4   7
ATOM      7  C   UNL     1       7.620   7.707  17.989  0.00  0.00    +0.000 C 
ATOM      8  O   UNL     1       8.162   6.811  18.637  0.00  0.00    +0.000 OA
ATOM      9  N   UNL     1       6.567   7.553  17.109  0.00  0.00    +0.000 N 
ATOM     10  H   UNL     1       6.353   8.295  16.446  0.00  0.00    +0.000 HD
BRANCH   9  11
ATOM     11  C   UNL     1       5.934   6.315  16.839  0.00  0.00    +0.000 A 
ATOM     12  C   UNL     1       4.748   5.942  17.475  0.00  0.00    +0.000 A 
ATOM     13  C   UNL     1       4.183   4.664  17.350  0.00  0.00    +0.000 A 
ATOM     14  C   UNL     1       4.785   3.788  16.436  0.00  0.00    +0.000 A 
ATOM     15  C   UNL     1       5.935   4.165  15.724  0.00  0.00    +0.000 A 
ATOM     16  C   UNL     1       6.511   5.418  15.940  0.00  0.00    +0.000 A 
BRANCH  13  17
ATOM     17  C   UNL     1       3.038   4.292  18.212  0.00  0.00    +0.000 A 
ATOM     18  C   UNL     1       2.661   5.044  19.333  0.00  0.00    +0.000 A 
ATOM     19  C   UNL     1       1.580   4.653  20.133  0.00  0.00    +0.000 A 
ATOM     20  C   UNL     1       0.857   3.500  19.832  0.00  0.00    +0.000 A 
ATOM     21  C   UNL     1       1.206   2.739  18.726  0.00  0.00    +0.000 A 
ATOM     22  C   UNL     1       2.277   3.135  17.924  0.00  0.00    +0.000 A 
ENDBRANCH  13  17
BRANCH  16  23
ATOM     23  O   UNL     1       7.669   5.775  15.300  0.00  0.00    +0.000 OA
ATOM     24  H   UNL     1       8.165   6.374  15.884  0.00  0.00    +0.000 HD
ENDBRANCH  16  23
ENDBRANCH   9  11
ENDBRANCH   4   7
BRANCH   1  25
ATOM     25  C   UNL     1       9.990  12.905  18.897  0.00  0.00    +0.000 C 
BRANCH  25  26
ATOM     26  N   UNL     1       9.116  14.057  18.617  0.00  0.00    +0.000 NA
ATOM     27  H   UNL     1       9.704  14.858  18.404  0.00  0.00    +0.000 HD
BRANCH  26  28
ATOM     28  C   UNL     1       8.243  14.368  19.753  0.00  0.00    +0.000 C 
BRANCH  28  32
ATOM     29  N   UNL     1       4.740  15.321  19.526  0.00  0.00    +0.000 NA
ATOM     30  C   UNL     1       5.469  15.253  20.806  0.00  0.00    +0.000 C 
ATOM     31  C   UNL     1       6.714  16.138  20.823  0.00  0.00    +0.000 C 
ATOM     32  C   UNL     1       7.655  15.792  19.667  0.00  0.00    +0.000 C 
ATOM     33  C   UNL     1       6.862  15.952  18.363  0.00  0.00    +0.000 C 
ATOM     34  C   UNL     1       5.600  15.088  18.356  0.00  0.00    +0.000 C 
BRANCH  29  36
ATOM     35  C   UNL     1       2.946  14.125  18.223  0.00  0.00    +0.000 C 
ATOM     36  C   UNL     1       3.602  14.385  19.574  0.00  0.00    +0.000 C 
ENDBRANCH  29  36
ENDBRANCH  28  32
ENDBRANCH  26  28
ENDBRANCH  25  26
ENDBRANCH   1  25
TORSDOF 9
ENDMDL
MODEL 4
REMARK VINA RESULT:      -8.2      5.969      9.352
REMARK  Name = 
REMARK  10 active torsions:
REMARK  status: ('A' for Active; 'I' for Inactive)
REMARK    1  A    between atoms: C_1  and  C_2
REMARK    2  A    between atoms: C_2  and  N_3
REMARK    3  A    between atoms: C_6  and  C_7
REMARK    4  A    between atoms: C_7  and  N_8
REMARK    5  A    between atoms: N_8  and  C_9
REMARK    6  A    between atoms: C_9  and  C_10
REMARK    7  A    between atoms: C_13  and  C_14
REMARK    8  A    between atoms: N_16  and  C_17
REMARK    9  A    between atoms: C_19  and  C_20
REMARK   10  A    between atoms: C_28  and  O_29
REMARK                            x       y       z     vdW  Elec       q    Type
REMARK                         _______ _______ _______ _____ _____    ______ ____
ROOT
ATOM      1  C   UNL     1       3.633   5.161  18.912  0.00  0.00    +0.000 A 
ATOM      2  C   UNL     1       3.653   5.827  17.679  0.00  0.00    +0.000 A 
ATOM      3  C   UNL     1       3.064   7.072  17.545  0.00  0.00    +0.000 A 
ATOM      4  C   UNL     1       2.391   7.652  18.626  0.00  0.00    +0.000 A 
ATOM      5  C   UNL     1       2.304   6.978  19.844  0.00  0.00    +0.000 A 
ATOM      6  C   UNL     1       2.928   5.732  19.985  0.00  0.00    +0.000 A 
ENDROOT
BRANCH   4   7
ATOM      7  C   UNL     1       1.707   8.933  18.355  0.00  0.00    +0.000 C 
ATOM      8  O   UNL     1       1.952   9.452  17.265  0.00  0.00    +0.000 OA
ATOM      9  N   UNL     1       0.911   9.466  19.350  0.00  0.00    +0.000 N 
ATOM     10  H   UNL     1       0.966   9.090  20.294  0.00  0.00    +0.000 HD
BRANCH   9  11
ATOM     11  C   UNL     1       0.231  10.704  19.244  0.00  0.00    +0.000 A 
ATOM     12  C   UNL     1      -1.163  10.776  19.220  0.00  0.00    +0.000 A 
ATOM     13  C   UNL     1      -1.862  11.964  18.957  0.00  0.00    +0.000 A 
ATOM     14  C   UNL     1      -1.104  13.139  18.849  0.00  0.00    +0.000 A 
ATOM     15  C   UNL     1       0.295  13.107  18.947  0.00  0.00    +0.000 A 
ATOM     16  C   UNL     1       0.956  11.890  19.127  0.00  0.00    +0.000 A 
BRANCH  13  17
ATOM     17  C   UNL     1      -3.328  11.911  18.755  0.00  0.00    +0.000 A 
ATOM     18  C   UNL     1      -4.240  12.377  19.713  0.00  0.00    +0.000 A 
ATOM     19  C   UNL     1      -5.621  12.298  19.493  0.00  0.00    +0.000 A 
ATOM     20  C   UNL     1      -6.119  11.748  18.314  0.00  0.00    +0.000 A 
ATOM     21  C   UNL     1      -5.239  11.282  17.347  0.00  0.00    +0.000 A 
ATOM     22  C   UNL     1      -3.863  11.371  17.563  0.00  0.00    +0.000 A 
ENDBRANCH  13  17
BRANCH  16  23
ATOM     23  O   UNL     1       2.324  11.835  19.161  0.00  0.00    +0.000 OA
ATOM     24  H   UNL     1       2.648  11.811  18.244  0.00  0.00    +0.000 HD
ENDBRANCH  16  23
ENDBRANCH   9  11
ENDBRANCH   4   7
BRANCH   1  25
ATOM     25  C   UNL     1       4.368   3.848  19.074  0.00  0.00    +0.000 C 
BRANCH  25  26
ATOM     26  N   UNL     1       5.809   4.008  19.328  0.00  0.00    +0.000 NA
ATOM     27  H   UNL     1       6.032   3.541  20.204  0.00  0.00    +0.000 HD
BRANCH  26  28
ATOM     28  C   UNL     1       6.197   5.419  19.404  0.00  0.00    +0.000 C 
BRANCH  28  32
ATOM     29  N   UNL     1       7.037   5.594  15.869  0.00  0.00    +0.000 NA
ATOM     30  C   UNL     1       6.719   6.787  16.675  0.00  0.00    +0.000 C 
ATOM     31  C   UNL     1       7.627   6.934  17.895  0.00  0.00    +0.000 C 
ATOM     32  C   UNL     1       7.580   5.683  18.773  0.00  0.00    +0.000 C 
ATOM     33  C   UNL     1       7.992   4.490  17.900  0.00  0.00    +0.000 C 
ATOM     34  C   UNL     1       7.101   4.358  16.663  0.00  0.00    +0.000 C 
BRANCH  29  36
ATOM     35  C   UNL     1       6.066   4.144  14.052  0.00  0.00    +0.000 C 
ATOM     36  C   UNL     1       6.069   5.494  14.762  0.00  0.00    +0.000 C 
ENDBRANCH  29  36
ENDBRANCH  28  32
ENDBRANCH  26  28
ENDBRANCH  25  26
ENDBRANCH   1  25
TORSDOF 9
ENDMDL
MODEL 5
REMARK VINA RESULT:      -8.1      7.254      9.067
REMARK  Name = 
REMARK  10 active torsions:
REMARK  status: ('A' for Active; 'I' for Inactive)
REMARK    1  A    between atoms: C_1  and  C_2
REMARK    2  A    between atoms: C_2  and  N_3
REMARK    3  A    between atoms: C_6  and  C_7
REMARK    4  A    between atoms: C_7  and  N_8
REMARK    5  A    between atoms: N_8  and  C_9
REMARK    6  A    between atoms: C_9  and  C_10
REMARK    7  A    between atoms: C_13  and  C_14
REMARK    8  A    between atoms: N_16  and  C_17
REMARK    9  A    between atoms: C_19  and  C_20
REMARK   10  A    between atoms: C_28  and  O_29
REMARK                            x       y       z     vdW  Elec       q    Type
REMARK                         _______ _______ _______ _____ _____    ______ ____
ROOT
ATOM      1  C   UNL     1       3.109   7.379  18.608  0.00  0.00    +0.000 A 
ATOM      2  C   UNL     1       2.810   8.415  17.711  0.00  0.00    +0.000 A 
ATOM      3  C   UNL     1       1.873   9.379  18.040  0.00  0.00    +0.000 A 
ATOM      4  C   UNL     1       1.172   9.296  19.249  0.00  0.00    +0.000 A 
ATOM      5  C   UNL     1       1.409   8.239  20.128  0.00  0.00    +0.000 A 
ATOM      6  C   UNL     1       2.380   7.281  19.805  0.00  0.00    +0.000 A 
ENDROOT
BRANCH   4   7
ATOM      7  C   UNL     1       0.122  10.311  19.463  0.00  0.00    +0.000 C 
ATOM      8  O   UNL     1      -0.940  10.119  18.869  0.00  0.00    +0.000 OA
ATOM      9  N   UNL     1       0.429  11.405  20.248  0.00  0.00    +0.000 N 
ATOM     10  H   UNL     1       1.399  11.594  20.491  0.00  0.00    +0.000 HD
BRANCH   9  11
ATOM     11  C   UNL     1      -0.465  12.474  20.504  0.00  0.00    +0.000 A 
ATOM     12  C   UNL     1      -1.463  12.381  21.476  0.00  0.00    +0.000 A 
ATOM     13  C   UNL     1      -2.460  13.354  21.644  0.00  0.00    +0.000 A 
ATOM     14  C   UNL     1      -2.344  14.523  20.878  0.00  0.00    +0.000 A 
ATOM     15  C   UNL     1      -1.305  14.677  19.948  0.00  0.00    +0.000 A 
ATOM     16  C   UNL     1      -0.382  13.648  19.754  0.00  0.00    +0.000 A 
BRANCH  13  17
ATOM     17  C   UNL     1      -3.590  13.081  22.561  0.00  0.00    +0.000 A 
ATOM     18  C   UNL     1      -3.404  12.647  23.881  0.00  0.00    +0.000 A 
ATOM     19  C   UNL     1      -4.498  12.386  24.715  0.00  0.00    +0.000 A 
ATOM     20  C   UNL     1      -5.800  12.548  24.246  0.00  0.00    +0.000 A 
ATOM     21  C   UNL     1      -6.013  12.980  22.945  0.00  0.00    +0.000 A 
ATOM     22  C   UNL     1      -4.922  13.250  22.118  0.00  0.00    +0.000 A 
ENDBRANCH  13  17
BRANCH  16  23
ATOM     23  O   UNL     1       0.600  13.758  18.805  0.00  0.00    +0.000 OA
ATOM     24  H   UNL     1       1.435  13.968  19.257  0.00  0.00    +0.000 HD
ENDBRANCH  16  23
ENDBRANCH   9  11
ENDBRANCH   4   7
BRANCH   1  25
ATOM     25  C   UNL     1       4.206   6.391  18.282  0.00  0.00    +0.000 C 
BRANCH  25  26
ATOM     26  N   UNL     1       3.887   5.509  17.146  0.00  0.00    +0.000 NA
ATOM     27  H   UNL     1       2.965   5.759  16.798  0.00  0.00    +0.000 HD
BRANCH  26  28
ATOM     28  C   UNL     1       3.906   4.095  17.531  0.00  0.00    +0.000 C 
BRANCH  28  32
ATOM     29  N   UNL     1       1.455   2.550  19.730  0.00  0.00    +0.000 NA
ATOM     30  C   UNL     1       1.319   3.928  19.225  0.00  0.00    +0.000 C 
ATOM     31  C   UNL     1       1.341   4.002  17.700  0.00  0.00    +0.000 C 
ATOM     32  C   UNL     1       2.609   3.361  17.133  0.00  0.00    +0.000 C 
ATOM     33  C   UNL     1       2.654   1.910  17.631  0.00  0.00    +0.000 C 
ATOM     34  C   UNL     1       2.604   1.833  19.158  0.00  0.00    +0.000 C 
BRANCH  29  36
ATOM     35  C   UNL     1       2.280   3.754  21.783  0.00  0.00    +0.000 C 
ATOM     36  C   UNL     1       1.497   2.582  21.203  0.00  0.00    +0.000 C 
ENDBRANCH  29  36
ENDBRANCH  28  32
ENDBRANCH  26  28
ENDBRANCH  25  26
ENDBRANCH   1  25
TORSDOF 9
ENDMDL
MODEL 6
REMARK VINA RESULT:      -8.1      6.468      8.515
REMARK  Name = 
REMARK  10 active torsions:
REMARK  status: ('A' for Active; 'I' for Inactive)
REMARK    1  A    between atoms: C_1  and  C_2
REMARK    2  A    between atoms: C_2  and  N_3
REMARK    3  A    between atoms: C_6  and  C_7
REMARK    4  A    between atoms: C_7  and  N_8
REMARK    5  A    between atoms: N_8  and  C_9
REMARK    6  A    between atoms: C_9  and  C_10
REMARK    7  A    between atoms: C_13  and  C_14
REMARK    8  A    between atoms: N_16  and  C_17
REMARK    9  A    between atoms: C_19  and  C_20
REMARK   10  A    between atoms: C_28  and  O_29
REMARK                            x       y       z     vdW  Elec       q    Type
REMARK                         _______ _______ _______ _____ _____    ______ ____
ROOT
ATOM      1  C   UNL     1       2.198   5.565  19.170  0.00  0.00    +0.000 A 
ATOM      2  C   UNL     1       1.791   5.665  20.507  0.00  0.00    +0.000 A 
ATOM      3  C   UNL     1       1.504   6.899  21.063  0.00  0.00    +0.000 A 
ATOM      4  C   UNL     1       1.674   8.066  20.310  0.00  0.00    +0.000 A 
ATOM      5  C   UNL     1       2.139   7.995  18.997  0.00  0.00    +0.000 A 
ATOM      6  C   UNL     1       2.399   6.742  18.428  0.00  0.00    +0.000 A 
ENDROOT
BRANCH   4   7
ATOM      7  C   UNL     1       1.442   9.339  21.023  0.00  0.00    +0.000 C 
ATOM      8  O   UNL     1       1.616   9.312  22.242  0.00  0.00    +0.000 OA
ATOM      9  N   UNL     1       0.998  10.421  20.288  0.00  0.00    +0.000 N 
ATOM     10  H   UNL     1       0.653  10.279  19.340  0.00  0.00    +0.000 HD
BRANCH   9  11
ATOM     11  C   UNL     1       0.695  11.688  20.845  0.00  0.00    +0.000 A 
ATOM     12  C   UNL     1      -0.282  11.843  21.829  0.00  0.00    +0.000 A 
ATOM     13  C   UNL     1      -0.716  13.098  22.285  0.00  0.00    +0.000 A 
ATOM     14  C   UNL     1      -0.026  14.221  21.809  0.00  0.00    +0.000 A 
ATOM     15  C   UNL     1       1.014  14.089  20.876  0.00  0.00    +0.000 A 
ATOM     16  C   UNL     1       1.358  12.827  20.387  0.00  0.00    +0.000 A 
BRANCH  13  17
ATOM     17  C   UNL     1      -1.891  13.175  23.183  0.00  0.00    +0.000 A 
ATOM     18  C   UNL     1      -2.833  12.142  23.285  0.00  0.00    +0.000 A 
ATOM     19  C   UNL     1      -3.940  12.256  24.135  0.00  0.00    +0.000 A 
ATOM     20  C   UNL     1      -4.130  13.407  24.898  0.00  0.00    +0.000 A 
ATOM     21  C   UNL     1      -3.210  14.443  24.821  0.00  0.00    +0.000 A 
ATOM     22  C   UNL     1      -2.103  14.323  23.980  0.00  0.00    +0.000 A 
ENDBRANCH  13  17
BRANCH  16  23
ATOM     23  O   UNL     1       2.327  12.688  19.429  0.00  0.00    +0.000 OA
ATOM     24  H   UNL     1       2.195  11.833  18.987  0.00  0.00    +0.000 HD
ENDBRANCH  16  23
ENDBRANCH   9  11
ENDBRANCH   4   7
BRANCH   1  25
ATOM     25  C   UNL     1       2.410   4.204  18.543  0.00  0.00    +0.000 C 
BRANCH  25  26
ATOM     26  N   UNL     1       2.983   4.262  17.188  0.00  0.00    +0.000 NA
ATOM     27  H   UNL     1       2.462   3.622  16.594  0.00  0.00    +0.000 HD
BRANCH  26  28
ATOM     28  C   UNL     1       4.404   3.903  17.180  0.00  0.00    +0.000 C 
BRANCH  28  32
ATOM     29  N   UNL     1       7.201   6.228  17.185  0.00  0.00    +0.000 NA
ATOM     30  C   UNL     1       7.377   4.767  17.113  0.00  0.00    +0.000 C 
ATOM     31  C   UNL     1       6.639   4.141  15.930  0.00  0.00    +0.000 C 
ATOM     32  C   UNL     1       5.149   4.487  15.962  0.00  0.00    +0.000 C 
ATOM     33  C   UNL     1       5.031   6.017  15.960  0.00  0.00    +0.000 C 
ATOM     34  C   UNL     1       5.792   6.647  17.128  0.00  0.00    +0.000 C 
BRANCH  29  36
ATOM     35  C   UNL     1       7.960   5.728  19.534  0.00  0.00    +0.000 C 
ATOM     36  C   UNL     1       7.883   6.733  18.391  0.00  0.00    +0.000 C 
ENDBRANCH  29  36
ENDBRANCH  28  32
ENDBRANCH  26  28
ENDBRANCH  25  26
ENDBRANCH   1  25
TORSDOF 9
ENDMDL
MODEL 7
REMARK VINA RESULT:      -8.1      7.649     11.705
REMARK  Name = 
REMARK  10 active torsions:
REMARK  status: ('A' for Active; 'I' for Inactive)
REMARK    1  A    between atoms: C_1  and  C_2
REMARK    2  A    between atoms: C_2  and  N_3
REMARK    3  A    between atoms: C_6  and  C_7
REMARK    4  A    between atoms: C_7  and  N_8
REMARK    5  A    between atoms: N_8  and  C_9
REMARK    6  A    between atoms: C_9  and  C_10
REMARK    7  A    between atoms: C_13  and  C_14
REMARK    8  A    between atoms: N_16  and  C_17
REMARK    9  A    between atoms: C_19  and  C_20
REMARK   10  A    between atoms: C_28  and  O_29
REMARK                            x       y       z     vdW  Elec       q    Type
REMARK                         _______ _______ _______ _____ _____    ______ ____
ROOT
ATOM      1  C   UNL     1      -0.070  10.753  21.796  0.00  0.00    +0.000 A 
ATOM      2  C   UNL     1       0.231  10.743  20.427  0.00  0.00    +0.000 A 
ATOM      3  C   UNL     1       0.812   9.630  19.845  0.00  0.00    +0.000 A 
ATOM      4  C   UNL     1       1.159   8.526  20.631  0.00  0.00    +0.000 A 
ATOM      5  C   UNL     1       0.927   8.539  22.006  0.00  0.00    +0.000 A 
ATOM      6  C   UNL     1       0.310   9.655  22.587  0.00  0.00    +0.000 A 
ENDROOT
BRANCH   4   7
ATOM      7  C   UNL     1       1.867   7.431  19.937  0.00  0.00    +0.000 C 
ATOM      8  O   UNL     1       2.326   7.706  18.827  0.00  0.00    +0.000 OA
ATOM      9  N   UNL     1       1.905   6.193  20.549  0.00  0.00    +0.000 N 
ATOM     10  H   UNL     1       1.295   6.004  21.341  0.00  0.00    +0.000 HD
BRANCH   9  11
ATOM     11  C   UNL     1       2.512   5.046  19.982  0.00  0.00    +0.000 A 
ATOM     12  C   UNL     1       3.623   5.141  19.142  0.00  0.00    +0.000 A 
ATOM     13  C   UNL     1       4.147   4.045  18.440  0.00  0.00    +0.000 A 
ATOM     14  C   UNL     1       3.593   2.787  18.717  0.00  0.00    +0.000 A 
ATOM     15  C   UNL     1       2.524   2.651  19.617  0.00  0.00    +0.000 A 
ATOM     16  C   UNL     1       1.979   3.780  20.231  0.00  0.00    +0.000 A 
BRANCH  13  17
ATOM     17  C   UNL     1       5.200   4.273  17.424  0.00  0.00    +0.000 A 
ATOM     18  C   UNL     1       6.520   4.598  17.763  0.00  0.00    +0.000 A 
ATOM     19  C   UNL     1       7.486   4.820  16.773  0.00  0.00    +0.000 A 
ATOM     20  C   UNL     1       7.150   4.727  15.424  0.00  0.00    +0.000 A 
ATOM     21  C   UNL     1       5.851   4.403  15.059  0.00  0.00    +0.000 A 
ATOM     22  C   UNL     1       4.893   4.172  16.047  0.00  0.00    +0.000 A 
ENDBRANCH  13  17
BRANCH  16  23
ATOM     23  O   UNL     1       0.896   3.671  21.062  0.00  0.00    +0.000 OA
ATOM     24  H   UNL     1       0.722   2.725  21.208  0.00  0.00    +0.000 HD
ENDBRANCH  16  23
ENDBRANCH   9  11
ENDBRANCH   4   7
BRANCH   1  25
ATOM     25  C   UNL     1      -0.797  11.934  22.402  0.00  0.00    +0.000 C 
BRANCH  25  26
ATOM     26  N   UNL     1      -1.978  11.554  23.196  0.00  0.00    +0.000 NA
ATOM     27  H   UNL     1      -2.463  10.806  22.707  0.00  0.00    +0.000 HD
BRANCH  26  28
ATOM     28  C   UNL     1      -2.886  12.686  23.400  0.00  0.00    +0.000 C 
BRANCH  28  32
ATOM     29  N   UNL     1      -5.975  14.152  22.160  0.00  0.00    +0.000 NA
ATOM     30  C   UNL     1      -5.009  14.901  22.983  0.00  0.00    +0.000 C 
ATOM     31  C   UNL     1      -3.609  14.929  22.371  0.00  0.00    +0.000 C 
ATOM     32  C   UNL     1      -3.089  13.514  22.115  0.00  0.00    +0.000 C 
ATOM     33  C   UNL     1      -4.097  12.812  21.195  0.00  0.00    +0.000 C 
ATOM     34  C   UNL     1      -5.505  12.807  21.793  0.00  0.00    +0.000 C 
BRANCH  29  36
ATOM     35  C   UNL     1      -7.279  13.264  24.125  0.00  0.00    +0.000 C 
ATOM     36  C   UNL     1      -7.272  14.115  22.860  0.00  0.00    +0.000 C 
ENDBRANCH  29  36
ENDBRANCH  28  32
ENDBRANCH  26  28
ENDBRANCH  25  26
ENDBRANCH   1  25
TORSDOF 9
ENDMDL
MODEL 8
REMARK VINA RESULT:      -8.1      6.603      9.331
REMARK  Name = 
REMARK  10 active torsions:
REMARK  status: ('A' for Active; 'I' for Inactive)
REMARK    1  A    between atoms: C_1  and  C_2
REMARK    2  A    between atoms: C_2  and  N_3
REMARK    3  A    between atoms: C_6  and  C_7
REMARK    4  A    between atoms: C_7  and  N_8
REMARK    5  A    between atoms: N_8  and  C_9
REMARK    6  A    between atoms: C_9  and  C_10
REMARK    7  A    between atoms: C_13  and  C_14
REMARK    8  A    between atoms: N_16  and  C_17
REMARK    9  A    between atoms: C_19  and  C_20
REMARK   10  A    between atoms: C_28  and  O_29
REMARK                            x       y       z     vdW  Elec       q    Type
REMARK                         _______ _______ _______ _____ _____    ______ ____
ROOT
ATOM      1  C   UNL     1       2.539   5.567  19.119  0.00  0.00    +0.000 A 
ATOM      2  C   UNL     1       2.575   6.714  18.314  0.00  0.00    +0.000 A 
ATOM      3  C   UNL     1       2.145   7.933  18.809  0.00  0.00    +0.000 A 
ATOM      4  C   UNL     1       1.615   8.020  20.101  0.00  0.00    +0.000 A 
ATOM      5  C   UNL     1       1.511   6.879  20.897  0.00  0.00    +0.000 A 
ATOM      6  C   UNL     1       1.975   5.653  20.404  0.00  0.00    +0.000 A 
ENDROOT
BRANCH   4   7
ATOM      7  C   UNL     1       1.088   9.340  20.501  0.00  0.00    +0.000 C 
ATOM      8  O   UNL     1       1.169   9.611  21.700  0.00  0.00    +0.000 OA
ATOM      9  N   UNL     1       0.504  10.127  19.527  0.00  0.00    +0.000 N 
ATOM     10  H   UNL     1       0.268   9.718  18.625  0.00  0.00    +0.000 HD
BRANCH   9  11
ATOM     11  C   UNL     1      -0.078  11.395  19.774  0.00  0.00    +0.000 A 
ATOM     12  C   UNL     1      -1.367  11.523  20.294  0.00  0.00    +0.000 A 
ATOM     13  C   UNL     1      -2.029  12.755  20.401  0.00  0.00    +0.000 A 
ATOM     14  C   UNL     1      -1.290  13.904  20.087  0.00  0.00    +0.000 A 
ATOM     15  C   UNL     1       0.035  13.810  19.635  0.00  0.00    +0.000 A 
ATOM     16  C   UNL     1       0.628  12.558  19.465  0.00  0.00    +0.000 A 
BRANCH  13  17
ATOM     17  C   UNL     1      -3.461  12.776  20.777  0.00  0.00    +0.000 A 
ATOM     18  C   UNL     1      -3.893  13.000  22.092  0.00  0.00    +0.000 A 
ATOM     19  C   UNL     1      -5.256  13.000  22.413  0.00  0.00    +0.000 A 
ATOM     20  C   UNL     1      -6.215  12.770  21.429  0.00  0.00    +0.000 A 
ATOM     21  C   UNL     1      -5.816  12.549  20.118  0.00  0.00    +0.000 A 
ATOM     22  C   UNL     1      -4.458  12.561  19.798  0.00  0.00    +0.000 A 
ENDBRANCH  13  17
BRANCH  16  23
ATOM     23  O   UNL     1       1.899  12.447  18.964  0.00  0.00    +0.000 OA
ATOM     24  H   UNL     1       1.913  11.704  18.338  0.00  0.00    +0.000 HD
ENDBRANCH  16  23
ENDBRANCH   9  11
ENDBRANCH   4   7
BRANCH   1  25
ATOM     25  C   UNL     1       3.106   4.263  18.603  0.00  0.00    +0.000 C 
BRANCH  25  26
ATOM     26  N   UNL     1       3.367   4.267  17.154  0.00  0.00    +0.000 NA
ATOM     27  H   UNL     1       2.629   3.739  16.696  0.00  0.00    +0.000 HD
BRANCH  26  28
ATOM     28  C   UNL     1       4.671   3.680  16.833  0.00  0.00    +0.000 C 
BRANCH  28  32
ATOM     29  N   UNL     1       7.298   6.181  17.106  0.00  0.00    +0.000 NA
ATOM     30  C   UNL     1       7.577   4.748  16.897  0.00  0.00    +0.000 C 
ATOM     31  C   UNL     1       6.897   4.191  15.649  0.00  0.00    +0.000 C 
ATOM     32  C   UNL     1       5.386   4.428  15.689  0.00  0.00    +0.000 C 
ATOM     33  C   UNL     1       5.160   5.939  15.831  0.00  0.00    +0.000 C 
ATOM     34  C   UNL     1       5.864   6.504  17.066  0.00  0.00    +0.000 C 
BRANCH  29  36
ATOM     35  C   UNL     1       7.672   5.686  19.548  0.00  0.00    +0.000 C 
ATOM     36  C   UNL     1       7.931   6.613  18.365  0.00  0.00    +0.000 C 
ENDBRANCH  29  36
ENDBRANCH  28  32
ENDBRANCH  26  28
ENDBRANCH  25  26
ENDBRANCH   1  25
TORSDOF 9
ENDMDL
MODEL 9
REMARK VINA RESULT:      -8.1      2.832     11.328
REMARK  Name = 
REMARK  10 active torsions:
REMARK  status: ('A' for Active; 'I' for Inactive)
REMARK    1  A    between atoms: C_1  and  C_2
REMARK    2  A    between atoms: C_2  and  N_3
REMARK    3  A    between atoms: C_6  and  C_7
REMARK    4  A    between atoms: C_7  and  N_8
REMARK    5  A    between atoms: N_8  and  C_9
REMARK    6  A    between atoms: C_9  and  C_10
REMARK    7  A    between atoms: C_13  and  C_14
REMARK    8  A    between atoms: N_16  and  C_17
REMARK    9  A    between atoms: C_19  and  C_20
REMARK   10  A    between atoms: C_28  and  O_29
REMARK                            x       y       z     vdW  Elec       q    Type
REMARK                         _______ _______ _______ _____ _____    ______ ____
ROOT
ATOM      1  C   UNL     1       9.580  11.502  18.813  0.00  0.00    +0.000 A 
ATOM      2  C   UNL     1       9.674  10.448  19.733  0.00  0.00    +0.000 A 
ATOM      3  C   UNL     1       9.098   9.221  19.456  0.00  0.00    +0.000 A 
ATOM      4  C   UNL     1       8.364   9.038  18.278  0.00  0.00    +0.000 A 
ATOM      5  C   UNL     1       8.203  10.092  17.378  0.00  0.00    +0.000 A 
ATOM      6  C   UNL     1       8.814  11.324  17.648  0.00  0.00    +0.000 A 
ENDROOT
BRANCH   4   7
ATOM      7  C   UNL     1       7.701   7.728  18.122  0.00  0.00    +0.000 C 
ATOM      8  O   UNL     1       8.226   6.786  18.718  0.00  0.00    +0.000 OA
ATOM      9  N   UNL     1       6.603   7.652  17.288  0.00  0.00    +0.000 N 
ATOM     10  H   UNL     1       6.396   8.424  16.656  0.00  0.00    +0.000 HD
BRANCH   9  11
ATOM     11  C   UNL     1       5.896   6.456  17.012  0.00  0.00    +0.000 A 
ATOM     12  C   UNL     1       4.732   6.115  17.703  0.00  0.00    +0.000 A 
ATOM     13  C   UNL     1       4.100   4.869  17.567  0.00  0.00    +0.000 A 
ATOM     14  C   UNL     1       4.606   4.001  16.590  0.00  0.00    +0.000 A 
ATOM     15  C   UNL     1       5.731   4.351  15.826  0.00  0.00    +0.000 A 
ATOM     16  C   UNL     1       6.379   5.567  16.052  0.00  0.00    +0.000 A 
BRANCH  13  17
ATOM     17  C   UNL     1       2.988   4.519  18.481  0.00  0.00    +0.000 A 
ATOM     18  C   UNL     1       2.799   5.150  19.718  0.00  0.00    +0.000 A 
ATOM     19  C   UNL     1       1.744   4.783  20.562  0.00  0.00    +0.000 A 
ATOM     20  C   UNL     1       0.859   3.773  20.189  0.00  0.00    +0.000 A 
ATOM     21  C   UNL     1       1.020   3.134  18.968  0.00  0.00    +0.000 A 
ATOM     22  C   UNL     1       2.066   3.509  18.124  0.00  0.00    +0.000 A 
ENDBRANCH  13  17
BRANCH  16  23
ATOM     23  O   UNL     1       7.514   5.894  15.358  0.00  0.00    +0.000 OA
ATOM     24  H   UNL     1       7.543   6.861  15.265  0.00  0.00    +0.000 HD
ENDBRANCH  16  23
ENDBRANCH   9  11
ENDBRANCH   4   7
BRANCH   1  25
ATOM     25  C   UNL     1      10.300  12.805  19.079  0.00  0.00    +0.000 C 
BRANCH  25  26
ATOM     26  N   UNL     1      10.671  13.534  17.855  0.00  0.00    +0.000 NA
ATOM     27  H   UNL     1      11.677  13.683  17.866  0.00  0.00    +0.000 HD
BRANCH  26  28
ATOM     28  C   UNL     1       9.979  14.823  17.756  0.00  0.00    +0.000 C 
BRANCH  28  32
ATOM     29  N   UNL     1      10.030  17.866  19.748  0.00  0.00    +0.000 NA
ATOM     30  C   UNL     1      10.849  16.684  20.072  0.00  0.00    +0.000 C 
ATOM     31  C   UNL     1      11.762  16.264  18.922  0.00  0.00    +0.000 C 
ATOM     32  C   UNL     1      10.960  16.008  17.645  0.00  0.00    +0.000 C 
ATOM     33  C   UNL     1      10.190  17.295  17.318  0.00  0.00    +0.000 C 
ATOM     34  C   UNL     1       9.297  17.732  18.480  0.00  0.00    +0.000 C 
BRANCH  29  36
ATOM     35  C   UNL     1       8.101  17.065  21.156  0.00  0.00    +0.000 C 
ATOM     36  C   UNL     1       9.133  18.153  20.881  0.00  0.00    +0.000 C 
ENDBRANCH  29  36
ENDBRANCH  28  32
ENDBRANCH  26  28
ENDBRANCH  25  26
ENDBRANCH   1  25
TORSDOF 9
ENDMDL
