MODEL 1
REMARK VINA RESULT:      -7.5      0.000      0.000
REMARK  Name = 
REMARK  7 active torsions:
REMARK  status: ('A' for Active; 'I' for Inactive)
REMARK    1  A    between atoms: C_1  and  C_2
REMARK    2  A    between atoms: C_5  and  S_6
REMARK    3  A    between atoms: S_6  and  C_7
REMARK    4  A    between atoms: C_7  and  C_8
REMARK    5  A    between atoms: C_8  and  C_10
REMARK    6  A    between atoms: C_11  and  C_12
REMARK    7  A    between atoms: C_16  and  C_17
REMARK                            x       y       z     vdW  Elec       q    Type
REMARK                         _______ _______ _______ _____ _____    ______ ____
ROOT
ATOM      1  C   UNL     1       5.387   4.685  18.858  0.00  0.00    +0.000 C 
ATOM      2  O   UNL     1       5.626   3.656  19.484  0.00  0.00    +0.000 OA
ENDROOT
BRANCH   1   3
ATOM      3  C   UNL     1       6.147   5.020  17.663  0.00  0.00    +0.000 A 
ATOM      4  C   UNL     1       7.192   5.948  17.588  0.00  0.00    +0.000 A 
ATOM      5  C   UNL     1       7.770   6.793  18.667  0.00  0.00    +0.000 C 
ATOM      6  N   UNL     1       7.688   6.034  16.310  0.00  0.00    +0.000 NA
ATOM      7  C   UNL     1       6.982   5.197  15.595  0.00  0.00    +0.000 A 
ATOM      8  C   UNL     1       7.039   4.880  14.201  0.00  0.00    +0.000 A 
ATOM      9  C   UNL     1       6.200   3.966  13.672  0.00  0.00    +0.000 A 
ATOM     10  C   UNL     1       6.199   3.590  12.222  0.00  0.00    +0.000 C 
ATOM     11  C   UNL     1       5.214   3.297  14.510  0.00  0.00    +0.000 A 
ATOM     12  C   UNL     1       5.152   3.602  15.807  0.00  0.00    +0.000 A 
ATOM     13  N   UNL     1       6.024   4.538  16.367  0.00  0.00    +0.000 N 
ENDBRANCH   1   3
BRANCH   1  14
ATOM     14  C   UNL     1       4.289   5.630  19.334  0.00  0.00    +0.000 C 
BRANCH  14  15
ATOM     15  S   UNL     1       3.353   6.306  17.924  0.00  0.00    +0.000 S 
BRANCH  15  20
ATOM     16  C   UNL     1       0.029  10.561  20.746  0.00  0.00    +0.000 C 
ATOM     17  C   UNL     1       0.828   9.517  20.026  0.00  0.00    +0.000 A 
ATOM     18  C   UNL     1       1.306   8.389  20.696  0.00  0.00    +0.000 A 
ATOM     19  C   UNL     1       2.060   7.434  20.013  0.00  0.00    +0.000 A 
ATOM     20  C   UNL     1       2.341   7.576  18.647  0.00  0.00    +0.000 A 
ATOM     21  C   UNL     1       1.869   8.706  17.979  0.00  0.00    +0.000 A 
ATOM     22  C   UNL     1       1.118   9.669  18.665  0.00  0.00    +0.000 A 
ENDBRANCH  15  20
ENDBRANCH  14  15
ENDBRANCH   1  14
TORSDOF 4
ENDMDL
MODEL 2
REMARK VINA RESULT:      -7.4      0.413      1.080
REMARK  Name = 
REMARK  7 active torsions:
REMARK  status: ('A' for Active; 'I' for Inactive)
REMARK    1  A    between atoms: C_1  and  C_2
REMARK    2  A    between atoms: C_5  and  S_6
REMARK    3  A    between atoms: S_6  and  C_7
REMARK    4  A    between atoms: C_7  and  C_8
REMARK    5  A    between atoms: C_8  and  C_10
REMARK    6  A    between atoms: C_11  and  C_12
REMARK    7  A    between atoms: C_16  and  C_17
REMARK                            x       y       z     vdW  Elec       q    Type
REMARK                         _______ _______ _______ _____ _____    ______ ____
ROOT
ATOM      1  C   UNL     1       5.463   4.737  18.888  0.00  0.00    +0.000 C 
ATOM      2  O   UNL     1       5.660   3.673  19.467  0.00  0.00    +0.000 OA
ENDROOT
BRANCH   1   3
ATOM      3  C   UNL     1       6.196   5.069  17.675  0.00  0.00    +0.000 A 
ATOM      4  C   UNL     1       7.226   6.010  17.570  0.00  0.00    +0.000 A 
ATOM      5  C   UNL     1       7.814   6.874  18.627  0.00  0.00    +0.000 C 
ATOM      6  N   UNL     1       7.697   6.088  16.281  0.00  0.00    +0.000 NA
ATOM      7  C   UNL     1       6.989   5.233  15.589  0.00  0.00    +0.000 A 
ATOM      8  C   UNL     1       7.023   4.901  14.198  0.00  0.00    +0.000 A 
ATOM      9  C   UNL     1       6.186   3.970  13.695  0.00  0.00    +0.000 A 
ATOM     10  C   UNL     1       6.162   3.577  12.250  0.00  0.00    +0.000 C 
ATOM     11  C   UNL     1       5.225   3.299  14.560  0.00  0.00    +0.000 A 
ATOM     12  C   UNL     1       5.184   3.617  15.854  0.00  0.00    +0.000 A 
ATOM     13  N   UNL     1       6.054   4.570  16.387  0.00  0.00    +0.000 N 
ENDBRANCH   1   3
BRANCH   1  14
ATOM     14  C   UNL     1       4.448   5.732  19.442  0.00  0.00    +0.000 C 
BRANCH  14  15
ATOM     15  S   UNL     1       3.030   5.915  18.313  0.00  0.00    +0.000 S 
BRANCH  15  20
ATOM     16  C   UNL     1       0.291  11.174  19.712  0.00  0.00    +0.000 C 
ATOM     17  C   UNL     1       0.980   9.881  19.396  0.00  0.00    +0.000 A 
ATOM     18  C   UNL     1       1.436   9.606  18.105  0.00  0.00    +0.000 A 
ATOM     19  C   UNL     1       2.063   8.392  17.826  0.00  0.00    +0.000 A 
ATOM     20  C   UNL     1       2.262   7.433  18.828  0.00  0.00    +0.000 A 
ATOM     21  C   UNL     1       1.801   7.704  20.116  0.00  0.00    +0.000 A 
ATOM     22  C   UNL     1       1.165   8.920  20.397  0.00  0.00    +0.000 A 
ENDBRANCH  15  20
ENDBRANCH  14  15
ENDBRANCH   1  14
TORSDOF 4
ENDMDL
MODEL 3
REMARK VINA RESULT:      -7.3      2.803      6.465
REMARK  Name = 
REMARK  7 active torsions:
REMARK  status: ('A' for Active; 'I' for Inactive)
REMARK    1  A    between atoms: C_1  and  C_2
REMARK    2  A    between atoms: C_5  and  S_6
REMARK    3  A    between atoms: S_6  and  C_7
REMARK    4  A    between atoms: C_7  and  C_8
REMARK    5  A    between atoms: C_8  and  C_10
REMARK    6  A    between atoms: C_11  and  C_12
REMARK    7  A    between atoms: C_16  and  C_17
REMARK                            x       y       z     vdW  Elec       q    Type
REMARK                         _______ _______ _______ _____ _____    ______ ____
ROOT
ATOM      1  C   UNL     1       2.965   3.325  18.176  0.00  0.00    +0.000 C 
ATOM      2  O   UNL     1       2.117   2.697  17.548  0.00  0.00    +0.000 OA
ENDROOT
BRANCH   1   3
ATOM      3  C   UNL     1       2.572   4.331  19.152  0.00  0.00    +0.000 A 
ATOM      4  C   UNL     1       2.300   4.100  20.505  0.00  0.00    +0.000 A 
ATOM      5  C   UNL     1       2.343   2.821  21.262  0.00  0.00    +0.000 C 
ATOM      6  N   UNL     1       1.946   5.264  21.145  0.00  0.00    +0.000 NA
ATOM      7  C   UNL     1       1.985   6.200  20.232  0.00  0.00    +0.000 A 
ATOM      8  C   UNL     1       1.696   7.599  20.316  0.00  0.00    +0.000 A 
ATOM      9  C   UNL     1       1.808   8.388  19.228  0.00  0.00    +0.000 A 
ATOM     10  C   UNL     1       1.516   9.856  19.241  0.00  0.00    +0.000 C 
ATOM     11  C   UNL     1       2.213   7.824  17.947  0.00  0.00    +0.000 A 
ATOM     12  C   UNL     1       2.470   6.518  17.866  0.00  0.00    +0.000 A 
ATOM     13  N   UNL     1       2.368   5.695  18.989  0.00  0.00    +0.000 N 
ENDBRANCH   1   3
BRANCH   1  14
ATOM     14  C   UNL     1       4.447   3.060  17.933  0.00  0.00    +0.000 C 
BRANCH  14  15
ATOM     15  S   UNL     1       5.036   3.951  16.457  0.00  0.00    +0.000 S 
BRANCH  15  20
ATOM     16  C   UNL     1       8.542   8.458  18.581  0.00  0.00    +0.000 C 
ATOM     17  C   UNL     1       7.704   7.329  18.061  0.00  0.00    +0.000 A 
ATOM     18  C   UNL     1       6.758   7.541  17.056  0.00  0.00    +0.000 A 
ATOM     19  C   UNL     1       5.978   6.481  16.592  0.00  0.00    +0.000 A 
ATOM     20  C   UNL     1       6.133   5.188  17.109  0.00  0.00    +0.000 A 
ATOM     21  C   UNL     1       7.074   4.977  18.117  0.00  0.00    +0.000 A 
ATOM     22  C   UNL     1       7.854   6.041  18.588  0.00  0.00    +0.000 A 
ENDBRANCH  15  20
ENDBRANCH  14  15
ENDBRANCH   1  14
TORSDOF 4
ENDMDL
MODEL 4
REMARK VINA RESULT:      -7.3      1.017      1.174
REMARK  Name = 
REMARK  7 active torsions:
REMARK  status: ('A' for Active; 'I' for Inactive)
REMARK    1  A    between atoms: C_1  and  C_2
REMARK    2  A    between atoms: C_5  and  S_6
REMARK    3  A    between atoms: S_6  and  C_7
REMARK    4  A    between atoms: C_7  and  C_8
REMARK    5  A    between atoms: C_8  and  C_10
REMARK    6  A    between atoms: C_11  and  C_12
REMARK    7  A    between atoms: C_16  and  C_17
REMARK                            x       y       z     vdW  Elec       q    Type
REMARK                         _______ _______ _______ _____ _____    ______ ____
ROOT
ATOM      1  C   UNL     1       4.857   3.961  18.765  0.00  0.00    +0.000 C 
ATOM      2  O   UNL     1       5.149   3.163  19.651  0.00  0.00    +0.000 OA
ENDROOT
BRANCH   1   3
ATOM      3  C   UNL     1       5.870   4.444  17.838  0.00  0.00    +0.000 A 
ATOM      4  C   UNL     1       6.997   5.202  18.176  0.00  0.00    +0.000 A 
ATOM      5  C   UNL     1       7.432   5.684  19.513  0.00  0.00    +0.000 C 
ATOM      6  N   UNL     1       7.744   5.503  17.062  0.00  0.00    +0.000 NA
ATOM      7  C   UNL     1       7.112   4.963  16.052  0.00  0.00    +0.000 A 
ATOM      8  C   UNL     1       7.412   4.967  14.653  0.00  0.00    +0.000 A 
ATOM      9  C   UNL     1       6.607   4.331  13.778  0.00  0.00    +0.000 A 
ATOM     10  C   UNL     1       6.856   4.299  12.301  0.00  0.00    +0.000 C 
ATOM     11  C   UNL     1       5.411   3.641  14.243  0.00  0.00    +0.000 A 
ATOM     12  C   UNL     1       5.124   3.649  15.545  0.00  0.00    +0.000 A 
ATOM     13  N   UNL     1       5.958   4.293  16.461  0.00  0.00    +0.000 N 
ENDBRANCH   1   3
BRANCH   1  14
ATOM     14  C   UNL     1       3.423   4.462  18.632  0.00  0.00    +0.000 C 
BRANCH  14  15
ATOM     15  S   UNL     1       2.880   5.301  20.155  0.00  0.00    +0.000 S 
BRANCH  15  20
ATOM     16  C   UNL     1       0.813  10.811  18.578  0.00  0.00    +0.000 C 
ATOM     17  C   UNL     1       1.312   9.444  18.938  0.00  0.00    +0.000 A 
ATOM     18  C   UNL     1       1.175   8.948  20.236  0.00  0.00    +0.000 A 
ATOM     19  C   UNL     1       1.657   7.678  20.556  0.00  0.00    +0.000 A 
ATOM     20  C   UNL     1       2.272   6.872  19.589  0.00  0.00    +0.000 A 
ATOM     21  C   UNL     1       2.414   7.370  18.293  0.00  0.00    +0.000 A 
ATOM     22  C   UNL     1       1.936   8.646  17.971  0.00  0.00    +0.000 A 
ENDBRANCH  15  20
ENDBRANCH  14  15
ENDBRANCH   1  14
TORSDOF 4
ENDMDL
MODEL 5
REMARK VINA RESULT:      -7.2      3.129      6.298
REMARK  Name = 
REMARK  7 active torsions:
REMARK  status: ('A' for Active; 'I' for Inactive)
REMARK    1  A    between atoms: C_1  and  C_2
REMARK    2  A    between atoms: C_5  and  S_6
REMARK    3  A    between atoms: S_6  and  C_7
REMARK    4  A    between atoms: C_7  and  C_8
REMARK    5  A    between atoms: C_8  and  C_10
REMARK    6  A    between atoms: C_11  and  C_12
REMARK    7  A    between atoms: C_16  and  C_17
REMARK                            x       y       z     vdW  Elec       q    Type
REMARK                         _______ _______ _______ _____ _____    ______ ____
ROOT
ATOM      1  C   UNL     1       1.310   2.533  18.640  0.00  0.00    +0.000 C 
ATOM      2  O   UNL     1       0.230   1.961  18.745  0.00  0.00    +0.000 OA
ENDROOT
BRANCH   1   3
ATOM      3  C   UNL     1       1.591   3.737  19.408  0.00  0.00    +0.000 A 
ATOM      4  C   UNL     1       1.675   3.820  20.802  0.00  0.00    +0.000 A 
ATOM      5  C   UNL     1       1.509   2.743  21.814  0.00  0.00    +0.000 C 
ATOM      6  N   UNL     1       1.944   5.105  21.207  0.00  0.00    +0.000 NA
ATOM      7  C   UNL     1       2.022   5.816  20.111  0.00  0.00    +0.000 A 
ATOM      8  C   UNL     1       2.260   7.214  19.920  0.00  0.00    +0.000 A 
ATOM      9  C   UNL     1       2.301   7.738  18.678  0.00  0.00    +0.000 A 
ATOM     10  C   UNL     1       2.540   9.190  18.403  0.00  0.00    +0.000 C 
ATOM     11  C   UNL     1       2.089   6.890  17.513  0.00  0.00    +0.000 A 
ATOM     12  C   UNL     1       1.853   5.589  17.691  0.00  0.00    +0.000 A 
ATOM     13  N   UNL     1       1.821   5.035  18.972  0.00  0.00    +0.000 N 
ENDBRANCH   1   3
BRANCH   1  14
ATOM     14  C   UNL     1       2.373   1.988  17.691  0.00  0.00    +0.000 C 
BRANCH  14  15
ATOM     15  S   UNL     1       4.006   1.943  18.496  0.00  0.00    +0.000 S 
BRANCH  15  20
ATOM     16  C   UNL     1       6.728   7.269  17.338  0.00  0.00    +0.000 C 
ATOM     17  C   UNL     1       6.038   5.965  17.600  0.00  0.00    +0.000 A 
ATOM     18  C   UNL     1       5.863   5.492  18.902  0.00  0.00    +0.000 A 
ATOM     19  C   UNL     1       5.230   4.270  19.126  0.00  0.00    +0.000 A 
ATOM     20  C   UNL     1       4.745   3.500  18.061  0.00  0.00    +0.000 A 
ATOM     21  C   UNL     1       4.925   3.968  16.759  0.00  0.00    +0.000 A 
ATOM     22  C   UNL     1       5.566   5.193  16.531  0.00  0.00    +0.000 A 
ENDBRANCH  15  20
ENDBRANCH  14  15
ENDBRANCH   1  14
TORSDOF 4
ENDMDL
MODEL 6
REMARK VINA RESULT:      -7.2      3.150      6.325
REMARK  Name = 
REMARK  7 active torsions:
REMARK  status: ('A' for Active; 'I' for Inactive)
REMARK    1  A    between atoms: C_1  and  C_2
REMARK    2  A    between atoms: C_5  and  S_6
REMARK    3  A    between atoms: S_6  and  C_7
REMARK    4  A    between atoms: C_7  and  C_8
REMARK    5  A    between atoms: C_8  and  C_10
REMARK    6  A    between atoms: C_11  and  C_12
REMARK    7  A    between atoms: C_16  and  C_17
REMARK                            x       y       z     vdW  Elec       q    Type
REMARK                         _______ _______ _______ _____ _____    ______ ____
ROOT
ATOM      1  C   UNL     1       1.343   2.482  18.647  0.00  0.00    +0.000 C 
ATOM      2  O   UNL     1       0.215   1.998  18.640  0.00  0.00    +0.000 OA
ENDROOT
BRANCH   1   3
ATOM      3  C   UNL     1       1.626   3.692  19.406  0.00  0.00    +0.000 A 
ATOM      4  C   UNL     1       1.733   3.781  20.798  0.00  0.00    +0.000 A 
ATOM      5  C   UNL     1       1.592   2.708  21.817  0.00  0.00    +0.000 C 
ATOM      6  N   UNL     1       1.997   5.071  21.193  0.00  0.00    +0.000 NA
ATOM      7  C   UNL     1       2.051   5.778  20.094  0.00  0.00    +0.000 A 
ATOM      8  C   UNL     1       2.275   7.176  19.893  0.00  0.00    +0.000 A 
ATOM      9  C   UNL     1       2.291   7.695  18.648  0.00  0.00    +0.000 A 
ATOM     10  C   UNL     1       2.513   9.149  18.364  0.00  0.00    +0.000 C 
ATOM     11  C   UNL     1       2.067   6.841  17.490  0.00  0.00    +0.000 A 
ATOM     12  C   UNL     1       1.844   5.539  17.678  0.00  0.00    +0.000 A 
ATOM     13  N   UNL     1       1.838   4.990  18.961  0.00  0.00    +0.000 N 
ENDBRANCH   1   3
BRANCH   1  14
ATOM     14  C   UNL     1       2.463   1.821  17.850  0.00  0.00    +0.000 C 
BRANCH  14  15
ATOM     15  S   UNL     1       4.021   1.818  18.795  0.00  0.00    +0.000 S 
BRANCH  15  20
ATOM     16  C   UNL     1       6.351   7.202  17.150  0.00  0.00    +0.000 C 
ATOM     17  C   UNL     1       5.801   5.874  17.576  0.00  0.00    +0.000 A 
ATOM     18  C   UNL     1       5.259   4.988  16.643  0.00  0.00    +0.000 A 
ATOM     19  C   UNL     1       4.740   3.761  17.059  0.00  0.00    +0.000 A 
ATOM     20  C   UNL     1       4.763   3.386  18.409  0.00  0.00    +0.000 A 
ATOM     21  C   UNL     1       5.298   4.274  19.342  0.00  0.00    +0.000 A 
ATOM     22  C   UNL     1       5.815   5.508  18.928  0.00  0.00    +0.000 A 
ENDBRANCH  15  20
ENDBRANCH  14  15
ENDBRANCH   1  14
TORSDOF 4
ENDMDL
MODEL 7
REMARK VINA RESULT:      -7.2      2.699      3.516
REMARK  Name = 
REMARK  7 active torsions:
REMARK  status: ('A' for Active; 'I' for Inactive)
REMARK    1  A    between atoms: C_1  and  C_2
REMARK    2  A    between atoms: C_5  and  S_6
REMARK    3  A    between atoms: S_6  and  C_7
REMARK    4  A    between atoms: C_7  and  C_8
REMARK    5  A    between atoms: C_8  and  C_10
REMARK    6  A    between atoms: C_11  and  C_12
REMARK    7  A    between atoms: C_16  and  C_17
REMARK                            x       y       z     vdW  Elec       q    Type
REMARK                         _______ _______ _______ _____ _____    ______ ____
ROOT
ATOM      1  C   UNL     1       2.487   3.997  18.147  0.00  0.00    +0.000 C 
ATOM      2  O   UNL     1       2.168   3.481  17.080  0.00  0.00    +0.000 OA
ENDROOT
BRANCH   1   3
ATOM      3  C   UNL     1       3.888   4.211  18.479  0.00  0.00    +0.000 A 
ATOM      4  C   UNL     1       4.665   3.407  19.320  0.00  0.00    +0.000 A 
ATOM      5  C   UNL     1       4.275   2.177  20.058  0.00  0.00    +0.000 C 
ATOM      6  N   UNL     1       5.945   3.895  19.430  0.00  0.00    +0.000 NA
ATOM      7  C   UNL     1       5.980   4.974  18.691  0.00  0.00    +0.000 A 
ATOM      8  C   UNL     1       7.041   5.901  18.442  0.00  0.00    +0.000 A 
ATOM      9  C   UNL     1       6.849   6.959  17.628  0.00  0.00    +0.000 A 
ATOM     10  C   UNL     1       7.911   7.971  17.327  0.00  0.00    +0.000 C 
ATOM     11  C   UNL     1       5.553   7.181  17.002  0.00  0.00    +0.000 A 
ATOM     12  C   UNL     1       4.560   6.326  17.244  0.00  0.00    +0.000 A 
ATOM     13  N   UNL     1       4.752   5.220  18.075  0.00  0.00    +0.000 N 
ENDBRANCH   1   3
BRANCH   1  14
ATOM     14  C   UNL     1       1.411   4.413  19.145  0.00  0.00    +0.000 C 
BRANCH  14  15
ATOM     15  S   UNL     1       2.118   5.436  20.477  0.00  0.00    +0.000 S 
BRANCH  15  20
ATOM     16  C   UNL     1       0.861  11.249  19.158  0.00  0.00    +0.000 C 
ATOM     17  C   UNL     1       1.161   9.811  19.453  0.00  0.00    +0.000 A 
ATOM     18  C   UNL     1       0.884   9.261  20.707  0.00  0.00    +0.000 A 
ATOM     19  C   UNL     1       1.182   7.923  20.968  0.00  0.00    +0.000 A 
ATOM     20  C   UNL     1       1.748   7.103  19.984  0.00  0.00    +0.000 A 
ATOM     21  C   UNL     1       2.031   7.652  18.733  0.00  0.00    +0.000 A 
ATOM     22  C   UNL     1       1.738   8.997  18.471  0.00  0.00    +0.000 A 
ENDBRANCH  15  20
ENDBRANCH  14  15
ENDBRANCH   1  14
TORSDOF 4
ENDMDL
MODEL 8
REMARK VINA RESULT:      -7.1      2.363      3.997
REMARK  Name = 
REMARK  7 active torsions:
REMARK  status: ('A' for Active; 'I' for Inactive)
REMARK    1  A    between atoms: C_1  and  C_2
REMARK    2  A    between atoms: C_5  and  S_6
REMARK    3  A    between atoms: S_6  and  C_7
REMARK    4  A    between atoms: C_7  and  C_8
REMARK    5  A    between atoms: C_8  and  C_10
REMARK    6  A    between atoms: C_11  and  C_12
REMARK    7  A    between atoms: C_16  and  C_17
REMARK                            x       y       z     vdW  Elec       q    Type
REMARK                         _______ _______ _______ _____ _____    ______ ____
ROOT
ATOM      1  C   UNL     1       2.173   4.667  20.640  0.00  0.00    +0.000 C 
ATOM      2  O   UNL     1       2.555   4.163  21.691  0.00  0.00    +0.000 OA
ENDROOT
BRANCH   1   3
ATOM      3  C   UNL     1       2.640   4.158  19.359  0.00  0.00    +0.000 A 
ATOM      4  C   UNL     1       1.974   3.230  18.551  0.00  0.00    +0.000 A 
ATOM      5  C   UNL     1       0.670   2.556  18.784  0.00  0.00    +0.000 C 
ATOM      6  N   UNL     1       2.694   2.956  17.413  0.00  0.00    +0.000 NA
ATOM      7  C   UNL     1       3.782   3.677  17.496  0.00  0.00    +0.000 A 
ATOM      8  C   UNL     1       4.901   3.783  16.612  0.00  0.00    +0.000 A 
ATOM      9  C   UNL     1       5.928   4.608  16.903  0.00  0.00    +0.000 A 
ATOM     10  C   UNL     1       7.133   4.765  16.028  0.00  0.00    +0.000 C 
ATOM     11  C   UNL     1       5.918   5.393  18.130  0.00  0.00    +0.000 A 
ATOM     12  C   UNL     1       4.881   5.284  18.961  0.00  0.00    +0.000 A 
ATOM     13  N   UNL     1       3.808   4.443  18.663  0.00  0.00    +0.000 N 
ENDBRANCH   1   3
BRANCH   1  14
ATOM     14  C   UNL     1       1.203   5.844  20.666  0.00  0.00    +0.000 C 
BRANCH  14  15
ATOM     15  S   UNL     1       2.019   7.375  20.108  0.00  0.00    +0.000 S 
BRANCH  15  20
ATOM     16  C   UNL     1      -1.204  11.775  22.822  0.00  0.00    +0.000 C 
ATOM     17  C   UNL     1      -0.433  10.691  22.131  0.00  0.00    +0.000 A 
ATOM     18  C   UNL     1       0.183   9.671  22.859  0.00  0.00    +0.000 A 
ATOM     19  C   UNL     1       0.909   8.678  22.199  0.00  0.00    +0.000 A 
ATOM     20  C   UNL     1       1.024   8.673  20.803  0.00  0.00    +0.000 A 
ATOM     21  C   UNL     1       0.414   9.695  20.076  0.00  0.00    +0.000 A 
ATOM     22  C   UNL     1      -0.310  10.696  20.736  0.00  0.00    +0.000 A 
ENDBRANCH  15  20
ENDBRANCH  14  15
ENDBRANCH   1  14
TORSDOF 4
ENDMDL
MODEL 9
REMARK VINA RESULT:      -7.1      2.883      6.473
REMARK  Name = 
REMARK  7 active torsions:
REMARK  status: ('A' for Active; 'I' for Inactive)
REMARK    1  A    between atoms: C_1  and  C_2
REMARK    2  A    between atoms: C_5  and  S_6
REMARK    3  A    between atoms: S_6  and  C_7
REMARK    4  A    between atoms: C_7  and  C_8
REMARK    5  A    between atoms: C_8  and  C_10
REMARK    6  A    between atoms: C_11  and  C_12
REMARK    7  A    between atoms: C_16  and  C_17
REMARK                            x       y       z     vdW  Elec       q    Type
REMARK                         _______ _______ _______ _____ _____    ______ ____
ROOT
ATOM      1  C   UNL     1       2.621   4.017  18.179  0.00  0.00    +0.000 C 
ATOM      2  O   UNL     1       1.860   3.692  17.273  0.00  0.00    +0.000 OA
ENDROOT
BRANCH   1   3
ATOM      3  C   UNL     1       2.266   5.087  19.099  0.00  0.00    +0.000 A 
ATOM      4  C   UNL     1       1.965   4.935  20.457  0.00  0.00    +0.000 A 
ATOM      5  C   UNL     1       1.935   3.694  21.275  0.00  0.00    +0.000 C 
ATOM      6  N   UNL     1       1.661   6.144  21.036  0.00  0.00    +0.000 NA
ATOM      7  C   UNL     1       1.759   7.033  20.081  0.00  0.00    +0.000 A 
ATOM      8  C   UNL     1       1.538   8.446  20.094  0.00  0.00    +0.000 A 
ATOM      9  C   UNL     1       1.704   9.175  18.971  0.00  0.00    +0.000 A 
ATOM     10  C   UNL     1       1.486  10.655  18.910  0.00  0.00    +0.000 C 
ATOM     11  C   UNL     1       2.097   8.531  17.725  0.00  0.00    +0.000 A 
ATOM     12  C   UNL     1       2.290   7.212  17.710  0.00  0.00    +0.000 A 
ATOM     13  N   UNL     1       2.133   6.450  18.869  0.00  0.00    +0.000 N 
ENDBRANCH   1   3
BRANCH   1  14
ATOM     14  C   UNL     1       3.959   3.304  18.344  0.00  0.00    +0.000 C 
BRANCH  14  15
ATOM     15  S   UNL     1       5.013   3.546  16.877  0.00  0.00    +0.000 S 
BRANCH  15  20
ATOM     16  C   UNL     1       8.251   8.564  18.085  0.00  0.00    +0.000 C 
ATOM     17  C   UNL     1       7.428   7.346  17.789  0.00  0.00    +0.000 A 
ATOM     18  C   UNL     1       7.771   6.101  18.320  0.00  0.00    +0.000 A 
ATOM     19  C   UNL     1       7.000   4.976  18.024  0.00  0.00    +0.000 A 
ATOM     20  C   UNL     1       5.866   5.070  17.206  0.00  0.00    +0.000 A 
ATOM     21  C   UNL     1       5.527   6.313  16.671  0.00  0.00    +0.000 A 
ATOM     22  C   UNL     1       6.303   7.443  16.962  0.00  0.00    +0.000 A 
ENDBRANCH  15  20
ENDBRANCH  14  15
ENDBRANCH   1  14
TORSDOF 4
ENDMDL
