MODEL 1
REMARK VINA RESULT:      -8.8      0.000      0.000
REMARK  Name = 
REMARK  5 active torsions:
REMARK  status: ('A' for Active; 'I' for Inactive)
REMARK    1  A    between atoms: C_1  and  C_2
REMARK    2  A    between atoms: C_2  and  C_3
REMARK    3  A    between atoms: C_7  and  S_8
REMARK    4  A    between atoms: S_8  and  C_9
REMARK    5  A    between atoms: C_25  and  N_26
REMARK                            x       y       z     vdW  Elec       q    Type
REMARK                         _______ _______ _______ _____ _____    ______ ____
ROOT
ATOM      1  C   UNL     1       2.496   4.495  20.926  0.00  0.00    +0.000 A 
ATOM      2  N   UNL     1       1.740   5.638  20.850  0.00  0.00    +0.000 N 
ATOM      3  C   UNL     1       2.178   6.424  19.823  0.00  0.00    +0.000 A 
ATOM      4  N   UNL     1       1.641   7.608  19.515  0.00  0.00    +0.000 NA
ATOM      5  C   UNL     1       2.281   8.199  18.495  0.00  0.00    +0.000 A 
ATOM      6  N   UNL     1       3.332   7.710  17.803  0.00  0.00    +0.000 NA
ATOM      7  C   UNL     1       3.852   6.494  18.133  0.00  0.00    +0.000 A 
ATOM      8  N   UNL     1       5.000   6.026  17.495  0.00  0.00    +0.000 N 
ATOM      9  C   UNL     1       5.911   7.067  17.013  0.00  0.00    +0.000 C 
ATOM     10  C   UNL     1       7.281   6.424  16.786  0.00  0.00    +0.000 C 
ATOM     11  C   UNL     1       7.197   5.246  15.810  0.00  0.00    +0.000 C 
ATOM     12  C   UNL     1       6.121   4.234  16.244  0.00  0.00    +0.000 C 
ATOM     13  C   UNL     1       4.771   4.960  16.507  0.00  0.00    +0.000 C 
ATOM     14  C   UNL     1       3.254   5.800  19.210  0.00  0.00    +0.000 A 
ATOM     15  C   UNL     1       3.465   4.591  19.941  0.00  0.00    +0.000 A 
ATOM     16 CL   UNL     1       4.702   3.450  19.670  0.00  0.00    +0.000 Cl
ATOM     17  H   UNL     1       0.975   5.891  21.461  0.00  0.00    +0.000 HD
ENDROOT
BRANCH  12  18
ATOM     18  N   UNL     1       6.038   3.162  15.245  0.00  0.00    +0.000 NA
ATOM     19  H   UNL     1       6.565   3.412  14.411  0.00  0.00    +0.000 HD
ATOM     20  H   UNL     1       5.069   3.038  14.956  0.00  0.00    +0.000 HD
ENDBRANCH  12  18
BRANCH   1  22
ATOM     21  C   UNL     1       1.191   2.427  21.435  0.00  0.00    +0.000 C 
ATOM     22  C   UNL     1       2.212   3.435  21.937  0.00  0.00    +0.000 C 
ENDBRANCH   1  22
BRANCH   5  23
ATOM     23  S   UNL     1       1.713   9.831  18.062  0.00  0.00    +0.000 S 
BRANCH  23  24
ATOM     24  C   UNL     1       0.936  10.330  19.576  0.00  0.00    +0.000 A 
ATOM     25  C   UNL     1       1.412   9.920  20.810  0.00  0.00    +0.000 A 
ATOM     26  N   UNL     1       0.819  10.216  21.992  0.00  0.00    +0.000 NA
ATOM     27  C   UNL     1      -0.304  10.937  21.973  0.00  0.00    +0.000 A 
ATOM     28  N   UNL     1      -0.905  11.203  23.140  0.00  0.00    +0.000 NA
ATOM     29  C   UNL     1      -2.046  11.925  23.105  0.00  0.00    +0.000 A 
ATOM     30  C   UNL     1      -2.587  12.391  21.926  0.00  0.00    +0.000 A 
ATOM     31  N   UNL     1      -2.010  12.145  20.734  0.00  0.00    +0.000 NA
ATOM     32  C   UNL     1      -0.876  11.414  20.763  0.00  0.00    +0.000 A 
ATOM     33  C   UNL     1      -0.230  11.092  19.576  0.00  0.00    +0.000 A 
ENDBRANCH  23  24
ENDBRANCH   5  23
TORSDOF 4
ENDMDL
MODEL 2
REMARK VINA RESULT:      -8.3      3.798     10.139
REMARK  Name = 
REMARK  5 active torsions:
REMARK  status: ('A' for Active; 'I' for Inactive)
REMARK    1  A    between atoms: C_1  and  C_2
REMARK    2  A    between atoms: C_2  and  C_3
REMARK    3  A    between atoms: C_7  and  S_8
REMARK    4  A    between atoms: S_8  and  C_9
REMARK    5  A    between atoms: C_25  and  N_26
REMARK                            x       y       z     vdW  Elec       q    Type
REMARK                         _______ _______ _______ _____ _____    ______ ____
ROOT
ATOM      1  C   UNL     1      -5.359  12.071  18.561  0.00  0.00    +0.000 A 
ATOM      2  N   UNL     1      -4.187  11.825  17.890  0.00  0.00    +0.000 N 
ATOM      3  C   UNL     1      -3.119  12.071  18.704  0.00  0.00    +0.000 A 
ATOM      4  N   UNL     1      -1.846  11.930  18.320  0.00  0.00    +0.000 NA
ATOM      5  C   UNL     1      -0.988  12.277  19.290  0.00  0.00    +0.000 A 
ATOM      6  N   UNL     1      -1.297  12.704  20.533  0.00  0.00    +0.000 NA
ATOM      7  C   UNL     1      -2.604  12.826  20.900  0.00  0.00    +0.000 A 
ATOM      8  N   UNL     1      -2.935  13.365  22.144  0.00  0.00    +0.000 N 
ATOM      9  C   UNL     1      -1.964  14.319  22.686  0.00  0.00    +0.000 C 
ATOM     10  C   UNL     1      -2.669  15.143  23.765  0.00  0.00    +0.000 C 
ATOM     11  C   UNL     1      -3.261  14.251  24.860  0.00  0.00    +0.000 C 
ATOM     12  C   UNL     1      -4.156  13.150  24.264  0.00  0.00    +0.000 C 
ATOM     13  C   UNL     1      -3.397  12.386  23.141  0.00  0.00    +0.000 C 
ATOM     14  C   UNL     1      -3.585  12.501  19.937  0.00  0.00    +0.000 A 
ATOM     15  C   UNL     1      -5.009  12.527  19.822  0.00  0.00    +0.000 A 
ATOM     16 CL   UNL     1      -6.110  13.039  21.017  0.00  0.00    +0.000 Cl
ATOM     17  H   UNL     1      -4.101  11.518  16.930  0.00  0.00    +0.000 HD
ENDROOT
BRANCH  12  18
ATOM     18  N   UNL     1      -4.645  12.287  25.346  0.00  0.00    +0.000 NA
ATOM     19  H   UNL     1      -3.923  11.625  25.625  0.00  0.00    +0.000 HD
ATOM     20  H   UNL     1      -5.437  11.738  25.015  0.00  0.00    +0.000 HD
ENDBRANCH  12  18
BRANCH   1  22
ATOM     21  C   UNL     1      -7.118  13.032  17.070  0.00  0.00    +0.000 C 
ATOM     22  C   UNL     1      -6.689  11.848  17.921  0.00  0.00    +0.000 C 
ENDBRANCH   1  22
BRANCH   5  23
ATOM     23  S   UNL     1       0.738  12.224  18.855  0.00  0.00    +0.000 S 
BRANCH  23  24
ATOM     24  C   UNL     1       1.115  10.521  19.175  0.00  0.00    +0.000 A 
ATOM     25  C   UNL     1       0.798   9.917  20.380  0.00  0.00    +0.000 A 
ATOM     26  N   UNL     1       1.121   8.641  20.701  0.00  0.00    +0.000 NA
ATOM     27  C   UNL     1       1.800   7.917  19.809  0.00  0.00    +0.000 A 
ATOM     28  N   UNL     1       2.145   6.666  20.140  0.00  0.00    +0.000 NA
ATOM     29  C   UNL     1       2.842   5.949  19.232  0.00  0.00    +0.000 A 
ATOM     30  C   UNL     1       3.187   6.459  17.999  0.00  0.00    +0.000 A 
ATOM     31  N   UNL     1       2.857   7.712  17.630  0.00  0.00    +0.000 NA
ATOM     32  C   UNL     1       2.171   8.436  18.539  0.00  0.00    +0.000 A 
ATOM     33  C   UNL     1       1.812   9.747  18.251  0.00  0.00    +0.000 A 
ENDBRANCH  23  24
ENDBRANCH   5  23
TORSDOF 4
ENDMDL
MODEL 3
REMARK VINA RESULT:      -8.3      4.651      8.771
REMARK  Name = 
REMARK  5 active torsions:
REMARK  status: ('A' for Active; 'I' for Inactive)
REMARK    1  A    between atoms: C_1  and  C_2
REMARK    2  A    between atoms: C_2  and  C_3
REMARK    3  A    between atoms: C_7  and  S_8
REMARK    4  A    between atoms: S_8  and  C_9
REMARK    5  A    between atoms: C_25  and  N_26
REMARK                            x       y       z     vdW  Elec       q    Type
REMARK                         _______ _______ _______ _____ _____    ______ ____
ROOT
ATOM      1  C   UNL     1       0.526   9.980  18.250  0.00  0.00    +0.000 A 
ATOM      2  N   UNL     1      -0.583   9.925  17.442  0.00  0.00    +0.000 N 
ATOM      3  C   UNL     1      -1.593  10.671  17.980  0.00  0.00    +0.000 A 
ATOM      4  N   UNL     1      -2.800  10.796  17.420  0.00  0.00    +0.000 NA
ATOM      5  C   UNL     1      -3.624  11.545  18.168  0.00  0.00    +0.000 A 
ATOM      6  N   UNL     1      -3.334  12.149  19.340  0.00  0.00    +0.000 NA
ATOM      7  C   UNL     1      -2.090  12.013  19.880  0.00  0.00    +0.000 A 
ATOM      8  N   UNL     1      -1.811  12.544  21.140  0.00  0.00    +0.000 N 
ATOM      9  C   UNL     1      -2.960  12.634  22.044  0.00  0.00    +0.000 C 
ATOM     10  C   UNL     1      -2.424  12.773  23.471  0.00  0.00    +0.000 C 
ATOM     11  C   UNL     1      -1.496  13.982  23.610  0.00  0.00    +0.000 C 
ATOM     12  C   UNL     1      -0.381  13.959  22.549  0.00  0.00    +0.000 C 
ATOM     13  C   UNL     1      -0.990  13.765  21.131  0.00  0.00    +0.000 C 
ATOM     14  C   UNL     1      -1.155  11.224  19.173  0.00  0.00    +0.000 A 
ATOM     15  C   UNL     1       0.182  10.751  19.349  0.00  0.00    +0.000 A 
ATOM     16 CL   UNL     1       1.197  11.062  20.682  0.00  0.00    +0.000 Cl
ATOM     17  H   UNL     1      -0.669   9.406  16.580  0.00  0.00    +0.000 HD
ENDROOT
BRANCH  12  18
ATOM     18  N   UNL     1       0.440  15.168  22.685  0.00  0.00    +0.000 NA
ATOM     19  H   UNL     1      -0.141  16.001  22.607  0.00  0.00    +0.000 HD
ATOM     20  H   UNL     1       1.118  15.209  21.927  0.00  0.00    +0.000 HD
ENDBRANCH  12  18
BRANCH   1  22
ATOM     21  C   UNL     1       2.052   8.071  18.763  0.00  0.00    +0.000 C 
ATOM     22  C   UNL     1       1.795   9.284  17.885  0.00  0.00    +0.000 C 
ENDBRANCH   1  22
BRANCH   5  23
ATOM     23  S   UNL     1      -5.295  11.697  17.568  0.00  0.00    +0.000 S 
BRANCH  23  24
ATOM     24  C   UNL     1      -6.085  12.459  18.961  0.00  0.00    +0.000 A 
ATOM     25  C   UNL     1      -6.404  13.807  18.973  0.00  0.00    +0.000 A 
ATOM     26  N   UNL     1      -6.946  14.452  20.033  0.00  0.00    +0.000 NA
ATOM     27  C   UNL     1      -7.178  13.755  21.147  0.00  0.00    +0.000 A 
ATOM     28  N   UNL     1      -7.686  14.402  22.204  0.00  0.00    +0.000 NA
ATOM     29  C   UNL     1      -7.906  13.686  23.328  0.00  0.00    +0.000 A 
ATOM     30  C   UNL     1      -7.637  12.336  23.406  0.00  0.00    +0.000 A 
ATOM     31  N   UNL     1      -7.127  11.651  22.363  0.00  0.00    +0.000 NA
ATOM     32  C   UNL     1      -6.894  12.366  21.242  0.00  0.00    +0.000 A 
ATOM     33  C   UNL     1      -6.346  11.744  20.127  0.00  0.00    +0.000 A 
ENDBRANCH  23  24
ENDBRANCH   5  23
TORSDOF 4
ENDMDL
MODEL 4
REMARK VINA RESULT:      -8.1      0.863      1.287
REMARK  Name = 
REMARK  5 active torsions:
REMARK  status: ('A' for Active; 'I' for Inactive)
REMARK    1  A    between atoms: C_1  and  C_2
REMARK    2  A    between atoms: C_2  and  C_3
REMARK    3  A    between atoms: C_7  and  S_8
REMARK    4  A    between atoms: S_8  and  C_9
REMARK    5  A    between atoms: C_25  and  N_26
REMARK                            x       y       z     vdW  Elec       q    Type
REMARK                         _______ _______ _______ _____ _____    ______ ____
ROOT
ATOM      1  C   UNL     1       2.291   4.904  20.770  0.00  0.00    +0.000 A 
ATOM      2  N   UNL     1       1.679   6.125  20.634  0.00  0.00    +0.000 N 
ATOM      3  C   UNL     1       2.241   6.819  19.600  0.00  0.00    +0.000 A 
ATOM      4  N   UNL     1       1.858   8.047  19.237  0.00  0.00    +0.000 NA
ATOM      5  C   UNL     1       2.597   8.523  18.224  0.00  0.00    +0.000 A 
ATOM      6  N   UNL     1       3.603   7.890  17.584  0.00  0.00    +0.000 NA
ATOM      7  C   UNL     1       3.962   6.632  17.968  0.00  0.00    +0.000 A 
ATOM      8  N   UNL     1       5.066   6.010  17.384  0.00  0.00    +0.000 N 
ATOM      9  C   UNL     1       6.109   6.919  16.904  0.00  0.00    +0.000 C 
ATOM     10  C   UNL     1       7.399   6.111  16.744  0.00  0.00    +0.000 C 
ATOM     11  C   UNL     1       7.205   4.920  15.802  0.00  0.00    +0.000 C 
ATOM     12  C   UNL     1       6.003   4.057  16.228  0.00  0.00    +0.000 C 
ATOM     13  C   UNL     1       4.742   4.947  16.421  0.00  0.00    +0.000 C 
ATOM     14  C   UNL     1       3.253   6.052  19.043  0.00  0.00    +0.000 A 
ATOM     15  C   UNL     1       3.295   4.851  19.817  0.00  0.00    +0.000 A 
ATOM     16 CL   UNL     1       4.394   3.563  19.624  0.00  0.00    +0.000 Cl
ATOM     17  H   UNL     1       0.931   6.487  21.209  0.00  0.00    +0.000 HD
ENDROOT
BRANCH  12  18
ATOM     18  N   UNL     1       5.823   2.969  15.259  0.00  0.00    +0.000 NA
ATOM     19  H   UNL     1       5.461   3.334  14.380  0.00  0.00    +0.000 HD
ATOM     20  H   UNL     1       5.132   2.308  15.610  0.00  0.00    +0.000 HD
ENDBRANCH  12  18
BRANCH   1  22
ATOM     21  C   UNL     1       1.353   2.625  21.180  0.00  0.00    +0.000 C 
ATOM     22  C   UNL     1       1.850   3.920  21.802  0.00  0.00    +0.000 C 
ENDBRANCH   1  22
BRANCH   5  23
ATOM     23  S   UNL     1       2.241  10.195  17.723  0.00  0.00    +0.000 S 
BRANCH  23  24
ATOM     24  C   UNL     1       0.910  10.601  18.822  0.00  0.00    +0.000 A 
ATOM     25  C   UNL     1      -0.403  10.274  18.530  0.00  0.00    +0.000 A 
ATOM     26  N   UNL     1      -1.463  10.618  19.301  0.00  0.00    +0.000 NA
ATOM     27  C   UNL     1      -1.237  11.329  20.407  0.00  0.00    +0.000 A 
ATOM     28  N   UNL     1      -2.289  11.693  21.152  0.00  0.00    +0.000 NA
ATOM     29  C   UNL     1      -2.046  12.421  22.263  0.00  0.00    +0.000 A 
ATOM     30  C   UNL     1      -0.770  12.779  22.645  0.00  0.00    +0.000 A 
ATOM     31  N   UNL     1       0.312  12.430  21.922  0.00  0.00    +0.000 NA
ATOM     32  C   UNL     1       0.072  11.712  20.804  0.00  0.00    +0.000 A 
ATOM     33  C   UNL     1       1.130  11.332  19.988  0.00  0.00    +0.000 A 
ENDBRANCH  23  24
ENDBRANCH   5  23
TORSDOF 4
ENDMDL
MODEL 5
REMARK VINA RESULT:      -8.1      3.427      8.921
REMARK  Name = 
REMARK  5 active torsions:
REMARK  status: ('A' for Active; 'I' for Inactive)
REMARK    1  A    between atoms: C_1  and  C_2
REMARK    2  A    between atoms: C_2  and  C_3
REMARK    3  A    between atoms: C_7  and  S_8
REMARK    4  A    between atoms: S_8  and  C_9
REMARK    5  A    between atoms: C_25  and  N_26
REMARK                            x       y       z     vdW  Elec       q    Type
REMARK                         _______ _______ _______ _____ _____    ______ ____
ROOT
ATOM      1  C   UNL     1      -2.904  10.659  16.921  0.00  0.00    +0.000 A 
ATOM      2  N   UNL     1      -1.829   9.886  16.561  0.00  0.00    +0.000 N 
ATOM      3  C   UNL     1      -0.877   9.918  17.541  0.00  0.00    +0.000 A 
ATOM      4  N   UNL     1       0.288   9.268  17.464  0.00  0.00    +0.000 NA
ATOM      5  C   UNL     1       1.062   9.499  18.534  0.00  0.00    +0.000 A 
ATOM      6  N   UNL     1       0.760  10.264  19.605  0.00  0.00    +0.000 NA
ATOM      7  C   UNL     1      -0.441  10.905  19.661  0.00  0.00    +0.000 A 
ATOM      8  N   UNL     1      -0.721  11.778  20.712  0.00  0.00    +0.000 N 
ATOM      9  C   UNL     1       0.448  12.433  21.304  0.00  0.00    +0.000 C 
ATOM     10  C   UNL     1      -0.041  13.661  22.074  0.00  0.00    +0.000 C 
ATOM     11  C   UNL     1      -1.080  13.286  23.135  0.00  0.00    +0.000 C 
ATOM     12  C   UNL     1      -2.228  12.459  22.528  0.00  0.00    +0.000 C 
ATOM     13  C   UNL     1      -1.660  11.258  21.719  0.00  0.00    +0.000 C 
ATOM     14  C   UNL     1      -1.321  10.737  18.568  0.00  0.00    +0.000 A 
ATOM     15  C   UNL     1      -2.596  11.227  18.147  0.00  0.00    +0.000 A 
ATOM     16 CL   UNL     1      -3.582  12.331  18.990  0.00  0.00    +0.000 Cl
ATOM     17  H   UNL     1      -1.725   9.369  15.698  0.00  0.00    +0.000 HD
ENDROOT
BRANCH  12  18
ATOM     18  N   UNL     1      -3.160  12.072  23.594  0.00  0.00    +0.000 NA
ATOM     19  H   UNL     1      -2.681  12.053  24.493  0.00  0.00    +0.000 HD
ATOM     20  H   UNL     1      -3.503  11.129  23.423  0.00  0.00    +0.000 HD
ENDBRANCH  12  18
BRANCH   1  22
ATOM     21  C   UNL     1      -3.859  10.232  14.653  0.00  0.00    +0.000 C 
ATOM     22  C   UNL     1      -4.111  10.775  16.050  0.00  0.00    +0.000 C 
ENDBRANCH   1  22
BRANCH   5  23
ATOM     23  S   UNL     1       2.684   8.763  18.493  0.00  0.00    +0.000 S 
BRANCH  23  24
ATOM     24  C   UNL     1       2.308   7.093  18.957  0.00  0.00    +0.000 A 
ATOM     25  C   UNL     1       2.058   6.740  20.273  0.00  0.00    +0.000 A 
ATOM     26  N   UNL     1       1.832   5.472  20.691  0.00  0.00    +0.000 NA
ATOM     27  C   UNL     1       1.863   4.492  19.786  0.00  0.00    +0.000 A 
ATOM     28  N   UNL     1       1.669   3.235  20.206  0.00  0.00    +0.000 NA
ATOM     29  C   UNL     1       1.714   2.252  19.280  0.00  0.00    +0.000 A 
ATOM     30  C   UNL     1       1.939   2.509  17.944  0.00  0.00    +0.000 A 
ATOM     31  N   UNL     1       2.137   3.759  17.484  0.00  0.00    +0.000 NA
ATOM     32  C   UNL     1       2.104   4.743  18.408  0.00  0.00    +0.000 A 
ATOM     33  C   UNL     1       2.324   6.060  18.023  0.00  0.00    +0.000 A 
ENDBRANCH  23  24
ENDBRANCH   5  23
TORSDOF 4
ENDMDL
MODEL 6
REMARK VINA RESULT:      -8.0      3.781      8.412
REMARK  Name = 
REMARK  5 active torsions:
REMARK  status: ('A' for Active; 'I' for Inactive)
REMARK    1  A    between atoms: C_1  and  C_2
REMARK    2  A    between atoms: C_2  and  C_3
REMARK    3  A    between atoms: C_7  and  S_8
REMARK    4  A    between atoms: S_8  and  C_9
REMARK    5  A    between atoms: C_25  and  N_26
REMARK                            x       y       z     vdW  Elec       q    Type
REMARK                         _______ _______ _______ _____ _____    ______ ____
ROOT
ATOM      1  C   UNL     1      -2.504  11.385  18.492  0.00  0.00    +0.000 A 
ATOM      2  N   UNL     1      -1.931  10.218  18.053  0.00  0.00    +0.000 N 
ATOM      3  C   UNL     1      -0.575  10.273  18.208  0.00  0.00    +0.000 A 
ATOM      4  N   UNL     1       0.253   9.285  17.855  0.00  0.00    +0.000 NA
ATOM      5  C   UNL     1       1.537   9.605  18.070  0.00  0.00    +0.000 A 
ATOM      6  N   UNL     1       2.011  10.756  18.593  0.00  0.00    +0.000 NA
ATOM      7  C   UNL     1       1.141  11.742  18.955  0.00  0.00    +0.000 A 
ATOM      8  N   UNL     1       1.624  12.973  19.399  0.00  0.00    +0.000 N 
ATOM      9  C   UNL     1       2.933  13.356  18.865  0.00  0.00    +0.000 C 
ATOM     10  C   UNL     1       3.093  14.867  19.052  0.00  0.00    +0.000 C 
ATOM     11  C   UNL     1       2.937  15.273  20.521  0.00  0.00    +0.000 C 
ATOM     12  C   UNL     1       1.627  14.727  21.118  0.00  0.00    +0.000 C 
ATOM     13  C   UNL     1       1.506  13.200  20.848  0.00  0.00    +0.000 C 
ATOM     14  C   UNL     1      -0.236  11.504  18.749  0.00  0.00    +0.000 A 
ATOM     15  C   UNL     1      -1.469  12.212  18.895  0.00  0.00    +0.000 A 
ATOM     16 CL   UNL     1      -1.655  13.810  19.458  0.00  0.00    +0.000 Cl
ATOM     17  H   UNL     1      -2.416   9.425  17.656  0.00  0.00    +0.000 HD
ENDROOT
BRANCH  12  18
ATOM     18  N   UNL     1       1.557  15.089  22.539  0.00  0.00    +0.000 NA
ATOM     19  H   UNL     1       2.266  15.785  22.762  0.00  0.00    +0.000 HD
ATOM     20  H   UNL     1       1.757  14.271  23.111  0.00  0.00    +0.000 HD
ENDBRANCH  12  18
BRANCH   1  22
ATOM     21  C   UNL     1      -4.543  11.575  17.062  0.00  0.00    +0.000 C 
ATOM     22  C   UNL     1      -3.983  11.584  18.475  0.00  0.00    +0.000 C 
ENDBRANCH   1  22
BRANCH   5  23
ATOM     23  S   UNL     1       2.737   8.399  17.542  0.00  0.00    +0.000 S 
BRANCH  23  24
ATOM     24  C   UNL     1       2.303   7.020  18.570  0.00  0.00    +0.000 A 
ATOM     25  C   UNL     1       2.115   7.158  19.935  0.00  0.00    +0.000 A 
ATOM     26  N   UNL     1       1.849   6.130  20.775  0.00  0.00    +0.000 NA
ATOM     27  C   UNL     1       1.775   4.899  20.265  0.00  0.00    +0.000 A 
ATOM     28  N   UNL     1       1.542   3.879  21.101  0.00  0.00    +0.000 NA
ATOM     29  C   UNL     1       1.480   2.638  20.572  0.00  0.00    +0.000 A 
ATOM     30  C   UNL     1       1.636   2.404  19.223  0.00  0.00    +0.000 A 
ATOM     31  N   UNL     1       1.871   3.404  18.351  0.00  0.00    +0.000 NA
ATOM     32  C   UNL     1       1.945   4.645  18.877  0.00  0.00    +0.000 A 
ATOM     33  C   UNL     1       2.210   5.731  18.052  0.00  0.00    +0.000 A 
ENDBRANCH  23  24
ENDBRANCH   5  23
TORSDOF 4
ENDMDL
MODEL 7
REMARK VINA RESULT:      -8.0      3.559      8.655
REMARK  Name = 
REMARK  5 active torsions:
REMARK  status: ('A' for Active; 'I' for Inactive)
REMARK    1  A    between atoms: C_1  and  C_2
REMARK    2  A    between atoms: C_2  and  C_3
REMARK    3  A    between atoms: C_7  and  S_8
REMARK    4  A    between atoms: S_8  and  C_9
REMARK    5  A    between atoms: C_25  and  N_26
REMARK                            x       y       z     vdW  Elec       q    Type
REMARK                         _______ _______ _______ _____ _____    ______ ____
ROOT
ATOM      1  C   UNL     1      -2.997  10.837  17.754  0.00  0.00    +0.000 A 
ATOM      2  N   UNL     1      -2.167   9.851  17.280  0.00  0.00    +0.000 N 
ATOM      3  C   UNL     1      -0.926   9.975  17.838  0.00  0.00    +0.000 A 
ATOM      4  N   UNL     1       0.097   9.161  17.557  0.00  0.00    +0.000 NA
ATOM      5  C   UNL     1       1.216   9.523  18.201  0.00  0.00    +0.000 A 
ATOM      6  N   UNL     1       1.363  10.555  19.059  0.00  0.00    +0.000 NA
ATOM      7  C   UNL     1       0.298  11.360  19.335  0.00  0.00    +0.000 A 
ATOM      8  N   UNL     1       0.463  12.489  20.137  0.00  0.00    +0.000 N 
ATOM      9  C   UNL     1       1.800  13.087  20.101  0.00  0.00    +0.000 C 
ATOM     10  C   UNL     1       1.688  14.521  20.624  0.00  0.00    +0.000 C 
ATOM     11  C   UNL     1       1.084  14.564  22.030  0.00  0.00    +0.000 C 
ATOM     12  C   UNL     1      -0.248  13.795  22.092  0.00  0.00    +0.000 C 
ATOM     13  C   UNL     1      -0.075  12.366  21.501  0.00  0.00    +0.000 C 
ATOM     14  C   UNL     1      -0.924  11.070  18.688  0.00  0.00    +0.000 A 
ATOM     15  C   UNL     1      -2.237  11.627  18.600  0.00  0.00    +0.000 A 
ATOM     16 CL   UNL     1      -2.793  13.032  19.388  0.00  0.00    +0.000 Cl
ATOM     17  H   UNL     1      -2.410   9.136  16.609  0.00  0.00    +0.000 HD
ENDROOT
BRANCH  12  18
ATOM     18  N   UNL     1      -0.751  13.812  23.471  0.00  0.00    +0.000 NA
ATOM     19  H   UNL     1      -0.237  13.146  24.045  0.00  0.00    +0.000 HD
ATOM     20  H   UNL     1      -1.727  13.521  23.484  0.00  0.00    +0.000 HD
ENDBRANCH  12  18
BRANCH   1  22
ATOM     21  C   UNL     1      -5.374  10.733  18.515  0.00  0.00    +0.000 C 
ATOM     22  C   UNL     1      -4.429  10.919  17.339  0.00  0.00    +0.000 C 
ENDBRANCH   1  22
BRANCH   5  23
ATOM     23  S   UNL     1       2.672   8.569  17.823  0.00  0.00    +0.000 S 
BRANCH  23  24
ATOM     24  C   UNL     1       2.275   7.026  18.603  0.00  0.00    +0.000 A 
ATOM     25  C   UNL     1       2.139   6.916  19.977  0.00  0.00    +0.000 A 
ATOM     26  N   UNL     1       1.902   5.752  20.628  0.00  0.00    +0.000 NA
ATOM     27  C   UNL     1       1.807   4.633  19.909  0.00  0.00    +0.000 A 
ATOM     28  N   UNL     1       1.604   3.478  20.557  0.00  0.00    +0.000 NA
ATOM     29  C   UNL     1       1.520   2.352  19.817  0.00  0.00    +0.000 A 
ATOM     30  C   UNL     1       1.625   2.364  18.442  0.00  0.00    +0.000 A 
ATOM     31  N   UNL     1       1.828   3.505  17.755  0.00  0.00    +0.000 NA
ATOM     32  C   UNL     1       1.925   4.632  18.492  0.00  0.00    +0.000 A 
ATOM     33  C   UNL     1       2.159   5.850  17.866  0.00  0.00    +0.000 A 
ENDBRANCH  23  24
ENDBRANCH   5  23
TORSDOF 4
ENDMDL
MODEL 8
REMARK VINA RESULT:      -7.9      4.012      9.854
REMARK  Name = 
REMARK  5 active torsions:
REMARK  status: ('A' for Active; 'I' for Inactive)
REMARK    1  A    between atoms: C_1  and  C_2
REMARK    2  A    between atoms: C_2  and  C_3
REMARK    3  A    between atoms: C_7  and  S_8
REMARK    4  A    between atoms: S_8  and  C_9
REMARK    5  A    between atoms: C_25  and  N_26
REMARK                            x       y       z     vdW  Elec       q    Type
REMARK                         _______ _______ _______ _____ _____    ______ ____
ROOT
ATOM      1  C   UNL     1      -3.414  10.724  16.005  0.00  0.00    +0.000 A 
ATOM      2  N   UNL     1      -2.151  10.381  16.422  0.00  0.00    +0.000 N 
ATOM      3  C   UNL     1      -1.934  10.842  17.689  0.00  0.00    +0.000 A 
ATOM      4  N   UNL     1      -0.788  10.669  18.354  0.00  0.00    +0.000 NA
ATOM      5  C   UNL     1      -0.815  11.254  19.561  0.00  0.00    +0.000 A 
ATOM      6  N   UNL     1      -1.844  11.932  20.112  0.00  0.00    +0.000 NA
ATOM      7  C   UNL     1      -3.006  12.082  19.414  0.00  0.00    +0.000 A 
ATOM      8  N   UNL     1      -4.036  12.868  19.930  0.00  0.00    +0.000 N 
ATOM      9  C   UNL     1      -3.606  13.954  20.813  0.00  0.00    +0.000 C 
ATOM     10  C   UNL     1      -4.749  14.969  20.900  0.00  0.00    +0.000 C 
ATOM     11  C   UNL     1      -6.046  14.317  21.389  0.00  0.00    +0.000 C 
ATOM     12  C   UNL     1      -6.404  13.078  20.549  0.00  0.00    +0.000 C 
ATOM     13  C   UNL     1      -5.185  12.116  20.460  0.00  0.00    +0.000 C 
ATOM     14  C   UNL     1      -3.067  11.515  18.121  0.00  0.00    +0.000 A 
ATOM     15  C   UNL     1      -3.987  11.460  17.029  0.00  0.00    +0.000 A 
ATOM     16 CL   UNL     1      -5.530  12.180  16.971  0.00  0.00    +0.000 Cl
ATOM     17  H   UNL     1      -1.461   9.875  15.885  0.00  0.00    +0.000 HD
ENDROOT
BRANCH  12  18
ATOM     18  N   UNL     1      -7.615  12.457  21.097  0.00  0.00    +0.000 NA
ATOM     19  H   UNL     1      -7.567  12.424  22.114  0.00  0.00    +0.000 HD
ATOM     20  H   UNL     1      -7.682  11.494  20.774  0.00  0.00    +0.000 HD
ENDBRANCH  12  18
BRANCH   1  22
ATOM     21  C   UNL     1      -2.832   9.778  13.767  0.00  0.00    +0.000 C 
ATOM     22  C   UNL     1      -3.933  10.315  14.667  0.00  0.00    +0.000 C 
ENDBRANCH   1  22
BRANCH   5  23
ATOM     23  S   UNL     1       0.698  11.173  20.497  0.00  0.00    +0.000 S 
BRANCH  23  24
ATOM     24  C   UNL     1       1.157   9.478  20.250  0.00  0.00    +0.000 A 
ATOM     25  C   UNL     1       0.895   8.505  21.200  0.00  0.00    +0.000 A 
ATOM     26  N   UNL     1       1.282   7.211  21.093  0.00  0.00    +0.000 NA
ATOM     27  C   UNL     1       1.973   6.846  20.011  0.00  0.00    +0.000 A 
ATOM     28  N   UNL     1       2.380   5.573  19.920  0.00  0.00    +0.000 NA
ATOM     29  C   UNL     1       3.087   5.219  18.825  0.00  0.00    +0.000 A 
ATOM     30  C   UNL     1       3.381   6.114  17.818  0.00  0.00    +0.000 A 
ATOM     31  N   UNL     1       2.987   7.401  17.873  0.00  0.00    +0.000 NA
ATOM     32  C   UNL     1       2.290   7.761  18.972  0.00  0.00    +0.000 A 
ATOM     33  C   UNL     1       1.867   9.076  19.121  0.00  0.00    +0.000 A 
ENDBRANCH  23  24
ENDBRANCH   5  23
TORSDOF 4
ENDMDL
MODEL 9
REMARK VINA RESULT:      -7.8      1.695      2.260
REMARK  Name = 
REMARK  5 active torsions:
REMARK  status: ('A' for Active; 'I' for Inactive)
REMARK    1  A    between atoms: C_1  and  C_2
REMARK    2  A    between atoms: C_2  and  C_3
REMARK    3  A    between atoms: C_7  and  S_8
REMARK    4  A    between atoms: S_8  and  C_9
REMARK    5  A    between atoms: C_25  and  N_26
REMARK                            x       y       z     vdW  Elec       q    Type
REMARK                         _______ _______ _______ _____ _____    ______ ____
ROOT
ATOM      1  C   UNL     1       2.280   4.792  20.752  0.00  0.00    +0.000 A 
ATOM      2  N   UNL     1       1.661   6.017  20.724  0.00  0.00    +0.000 N 
ATOM      3  C   UNL     1       2.209   6.798  19.746  0.00  0.00    +0.000 A 
ATOM      4  N   UNL     1       1.816   8.049  19.491  0.00  0.00    +0.000 NA
ATOM      5  C   UNL     1       2.542   8.612  18.514  0.00  0.00    +0.000 A 
ATOM      6  N   UNL     1       3.546   8.041  17.814  0.00  0.00    +0.000 NA
ATOM      7  C   UNL     1       3.916   6.758  18.090  0.00  0.00    +0.000 A 
ATOM      8  N   UNL     1       5.018   6.194  17.447  0.00  0.00    +0.000 N 
ATOM      9  C   UNL     1       6.051   7.146  17.035  0.00  0.00    +0.000 C 
ATOM     10  C   UNL     1       7.344   6.362  16.796  0.00  0.00    +0.000 C 
ATOM     11  C   UNL     1       7.148   5.252  15.760  0.00  0.00    +0.000 C 
ATOM     12  C   UNL     1       5.955   4.350  16.124  0.00  0.00    +0.000 C 
ATOM     13  C   UNL     1       4.691   5.212  16.401  0.00  0.00    +0.000 C 
ATOM     14  C   UNL     1       3.220   6.086  19.119  0.00  0.00    +0.000 A 
ATOM     15  C   UNL     1       3.276   4.825  19.790  0.00  0.00    +0.000 A 
ATOM     16 CL   UNL     1       4.380   3.564  19.480  0.00  0.00    +0.000 Cl
ATOM     17  H   UNL     1       0.916   6.325  21.334  0.00  0.00    +0.000 HD
ENDROOT
BRANCH  12  18
ATOM     18  N   UNL     1       5.772   3.345  15.069  0.00  0.00    +0.000 NA
ATOM     19  H   UNL     1       6.673   3.063  14.688  0.00  0.00    +0.000 HD
ATOM     20  H   UNL     1       5.240   3.748  14.300  0.00  0.00    +0.000 HD
ENDBRANCH  12  18
BRANCH   1  22
ATOM     21  C   UNL     1       1.152   2.577  20.994  0.00  0.00    +0.000 C 
ATOM     22  C   UNL     1       1.855   3.723  21.703  0.00  0.00    +0.000 C 
ENDBRANCH   1  22
BRANCH   5  23
ATOM     23  S   UNL     1       2.173  10.318  18.157  0.00  0.00    +0.000 S 
BRANCH  23  24
ATOM     24  C   UNL     1       0.400  10.278  18.118  0.00  0.00    +0.000 A 
ATOM     25  C   UNL     1      -0.292   9.398  17.304  0.00  0.00    +0.000 A 
ATOM     26  N   UNL     1      -1.641   9.370  17.186  0.00  0.00    +0.000 NA
ATOM     27  C   UNL     1      -2.356  10.254  17.885  0.00  0.00    +0.000 A 
ATOM     28  N   UNL     1      -3.688  10.245  17.745  0.00  0.00    +0.000 NA
ATOM     29  C   UNL     1      -4.397  11.152  18.451  0.00  0.00    +0.000 A 
ATOM     30  C   UNL     1      -3.797  12.056  19.301  0.00  0.00    +0.000 A 
ATOM     31  N   UNL     1      -2.461  12.095  19.469  0.00  0.00    +0.000 NA
ATOM     32  C   UNL     1      -1.747  11.198  18.756  0.00  0.00    +0.000 A 
ATOM     33  C   UNL     1      -0.361  11.185  18.851  0.00  0.00    +0.000 A 
ENDBRANCH  23  24
ENDBRANCH   5  23
TORSDOF 4
ENDMDL
