MODEL 1
REMARK VINA RESULT:      -6.4      0.000      0.000
REMARK  Name = 
REMARK  12 active torsions:
REMARK  status: ('A' for Active; 'I' for Inactive)
REMARK    1  A    between atoms: C_1  and  C_2
REMARK    2  A    between atoms: C_2  and  O_3
REMARK    3  A    between atoms: O_3  and  C_4
REMARK    4  A    between atoms: C_4  and  C_6
REMARK    5  A    between atoms: C_6  and  C_7
REMARK    6  A    between atoms: C_7  and  C_8
REMARK    7  A    between atoms: C_13  and  C_14
REMARK    8  A    between atoms: C_19  and  C_21
REMARK    9  A    between atoms: C_21  and  C_22
REMARK   10  A    between atoms: C_22  and  C_23
REMARK   11  A    between atoms: C_23  and  O_25
REMARK   12  A    between atoms: O_25  and  C_26
REMARK                            x       y       z     vdW  Elec       q    Type
REMARK                         _______ _______ _______ _____ _____    ______ ____
ROOT
ATOM      1  C   UNL     1       5.196   4.860  17.510  0.00  0.00    +0.000 C 
ATOM      2  C   UNL     1       5.270   4.405  19.006  0.00  0.00    +0.000 C 
ATOM      3  C   UNL     1       6.053   5.350  19.917  0.00  0.00    +0.000 C 
ATOM      4  C   UNL     1       7.467   5.549  19.383  0.00  0.00    +0.000 C 
ATOM      5  N   UNL     1       7.448   5.887  17.962  0.00  0.00    +0.000 N 
ATOM      6  C   UNL     1       7.896   7.100  17.429  0.00  0.00    +0.000 C 
ATOM      7  O   UNL     1       7.909   7.327  16.217  0.00  0.00    +0.000 OA
ATOM      8  C   UNL     1       6.689   4.972  17.084  0.00  0.00    +0.000 C 
ENDROOT
BRANCH   1   9
ATOM      9  C   UNL     1       4.582   6.255  17.206  0.00  0.00    +0.000 C 
ATOM     10  O   UNL     1       4.610   6.829  16.144  0.00  0.00    +0.000 OA
BRANCH   9  11
ATOM     11  O   UNL     1       4.053   6.820  18.325  0.00  0.00    +0.000 OA
BRANCH  11  13
ATOM     12  C   UNL     1       2.136   7.595  19.412  0.00  0.00    +0.000 C 
ATOM     13  C   UNL     1       2.857   7.569  18.083  0.00  0.00    +0.000 C 
ENDBRANCH  11  13
ENDBRANCH   9  11
ENDBRANCH   1   9
BRANCH   1  14
ATOM     14  C   UNL     1       4.295   3.782  16.787  0.00  0.00    +0.000 C 
BRANCH  14  15
ATOM     15  C   UNL     1       3.096   3.224  17.545  0.00  0.00    +0.000 A 
ATOM     16  C   UNL     1       1.955   4.043  17.530  0.00  0.00    +0.000 A 
ATOM     17  C   UNL     1       0.789   3.712  18.202  0.00  0.00    +0.000 A 
ATOM     18  C   UNL     1       0.692   2.496  18.841  0.00  0.00    +0.000 A 
ATOM     19  C   UNL     1       1.789   1.637  18.837  0.00  0.00    +0.000 A 
ATOM     20  C   UNL     1       3.004   1.976  18.213  0.00  0.00    +0.000 A 
ATOM     21  C   UNL     1       4.107   0.966  18.442  0.00  0.00    +0.000 C 
ENDBRANCH  14  15
ENDBRANCH   1  14
BRANCH   6  22
ATOM     22  C   UNL     1       8.358   8.151  18.418  0.00  0.00    +0.000 C 
BRANCH  22  23
ATOM     23  C   UNL     1       8.185   9.568  17.889  0.00  0.00    +0.000 C 
BRANCH  23  24
ATOM     24  C   UNL     1       9.211  10.486  18.501  0.00  0.00    +0.000 C 
ATOM     25  O   UNL     1       9.794  11.386  17.909  0.00  0.00    +0.000 OA
BRANCH  24  26
ATOM     26  O   UNL     1       9.396  10.181  19.818  0.00  0.00    +0.000 OA
ATOM     27  C   UNL     1       9.461  11.313  20.681  0.00  0.00    +0.000 C 
ENDBRANCH  24  26
ENDBRANCH  23  24
ENDBRANCH  22  23
ENDBRANCH   6  22
TORSDOF 9
ENDMDL
MODEL 2
REMARK VINA RESULT:      -6.3      3.134      6.881
REMARK  Name = 
REMARK  12 active torsions:
REMARK  status: ('A' for Active; 'I' for Inactive)
REMARK    1  A    between atoms: C_1  and  C_2
REMARK    2  A    between atoms: C_2  and  O_3
REMARK    3  A    between atoms: O_3  and  C_4
REMARK    4  A    between atoms: C_4  and  C_6
REMARK    5  A    between atoms: C_6  and  C_7
REMARK    6  A    between atoms: C_7  and  C_8
REMARK    7  A    between atoms: C_13  and  C_14
REMARK    8  A    between atoms: C_19  and  C_21
REMARK    9  A    between atoms: C_21  and  C_22
REMARK   10  A    between atoms: C_22  and  C_23
REMARK   11  A    between atoms: C_23  and  O_25
REMARK   12  A    between atoms: O_25  and  C_26
REMARK                            x       y       z     vdW  Elec       q    Type
REMARK                         _______ _______ _______ _____ _____    ______ ____
ROOT
ATOM      1  C   UNL     1       6.341   5.298  16.747  0.00  0.00    +0.000 C 
ATOM      2  C   UNL     1       5.478   6.438  16.109  0.00  0.00    +0.000 C 
ATOM      3  C   UNL     1       4.348   6.950  17.001  0.00  0.00    +0.000 C 
ATOM      4  C   UNL     1       3.435   5.800  17.411  0.00  0.00    +0.000 C 
ATOM      5  N   UNL     1       4.209   4.676  17.930  0.00  0.00    +0.000 N 
ATOM      6  C   UNL     1       4.132   4.197  19.241  0.00  0.00    +0.000 C 
ATOM      7  O   UNL     1       4.767   3.212  19.626  0.00  0.00    +0.000 OA
ATOM      8  C   UNL     1       5.302   4.183  17.066  0.00  0.00    +0.000 C 
ENDROOT
BRANCH   1   9
ATOM      9  C   UNL     1       7.046   5.593  18.101  0.00  0.00    +0.000 C 
ATOM     10  O   UNL     1       7.506   4.773  18.858  0.00  0.00    +0.000 OA
BRANCH   9  11
ATOM     11  O   UNL     1       7.025   6.922  18.393  0.00  0.00    +0.000 OA
BRANCH  11  13
ATOM     12  C   UNL     1       8.103   8.925  17.865  0.00  0.00    +0.000 C 
ATOM     13  C   UNL     1       8.320   7.531  18.407  0.00  0.00    +0.000 C 
ENDBRANCH  11  13
ENDBRANCH   9  11
ENDBRANCH   1   9
BRANCH   1  14
ATOM     14  C   UNL     1       7.470   4.982  15.689  0.00  0.00    +0.000 C 
BRANCH  14  15
ATOM     15  C   UNL     1       7.042   4.579  14.282  0.00  0.00    +0.000 A 
ATOM     16  C   UNL     1       5.946   3.703  14.226  0.00  0.00    +0.000 A 
ATOM     17  C   UNL     1       5.449   3.203  13.033  0.00  0.00    +0.000 A 
ATOM     18  C   UNL     1       5.979   3.636  11.838  0.00  0.00    +0.000 A 
ATOM     19  C   UNL     1       7.038   4.542  11.854  0.00  0.00    +0.000 A 
ATOM     20  C   UNL     1       7.599   5.019  13.053  0.00  0.00    +0.000 A 
ATOM     21  C   UNL     1       8.823   5.883  12.849  0.00  0.00    +0.000 C 
ENDBRANCH  14  15
ENDBRANCH   1  14
BRANCH   6  22
ATOM     22  C   UNL     1       3.234   4.960  20.194  0.00  0.00    +0.000 C 
BRANCH  22  23
ATOM     23  C   UNL     1       1.769   4.913  19.781  0.00  0.00    +0.000 C 
BRANCH  23  24
ATOM     24  C   UNL     1       1.243   3.503  19.867  0.00  0.00    +0.000 C 
ATOM     25  O   UNL     1       1.054   2.762  18.911  0.00  0.00    +0.000 OA
BRANCH  24  26
ATOM     26  O   UNL     1       1.016   3.160  21.169  0.00  0.00    +0.000 OA
ATOM     27  C   UNL     1       2.010   2.312  21.736  0.00  0.00    +0.000 C 
ENDBRANCH  24  26
ENDBRANCH  23  24
ENDBRANCH  22  23
ENDBRANCH   6  22
TORSDOF 9
ENDMDL
MODEL 3
REMARK VINA RESULT:      -6.3      1.963      3.279
REMARK  Name = 
REMARK  12 active torsions:
REMARK  status: ('A' for Active; 'I' for Inactive)
REMARK    1  A    between atoms: C_1  and  C_2
REMARK    2  A    between atoms: C_2  and  O_3
REMARK    3  A    between atoms: O_3  and  C_4
REMARK    4  A    between atoms: C_4  and  C_6
REMARK    5  A    between atoms: C_6  and  C_7
REMARK    6  A    between atoms: C_7  and  C_8
REMARK    7  A    between atoms: C_13  and  C_14
REMARK    8  A    between atoms: C_19  and  C_21
REMARK    9  A    between atoms: C_21  and  C_22
REMARK   10  A    between atoms: C_22  and  C_23
REMARK   11  A    between atoms: C_23  and  O_25
REMARK   12  A    between atoms: O_25  and  C_26
REMARK                            x       y       z     vdW  Elec       q    Type
REMARK                         _______ _______ _______ _____ _____    ______ ____
ROOT
ATOM      1  C   UNL     1       5.190   4.495  17.403  0.00  0.00    +0.000 C 
ATOM      2  C   UNL     1       4.167   5.409  16.650  0.00  0.00    +0.000 C 
ATOM      3  C   UNL     1       4.724   6.768  16.228  0.00  0.00    +0.000 C 
ATOM      4  C   UNL     1       5.268   7.517  17.440  0.00  0.00    +0.000 C 
ATOM      5  N   UNL     1       6.160   6.667  18.224  0.00  0.00    +0.000 N 
ATOM      6  C   UNL     1       7.523   6.912  18.418  0.00  0.00    +0.000 C 
ATOM      7  O   UNL     1       8.231   6.195  19.129  0.00  0.00    +0.000 OA
ATOM      8  C   UNL     1       5.618   5.353  18.630  0.00  0.00    +0.000 C 
ENDROOT
BRANCH   1   9
ATOM      9  C   UNL     1       6.516   4.138  16.676  0.00  0.00    +0.000 C 
ATOM     10  O   UNL     1       7.632   4.357  17.082  0.00  0.00    +0.000 OA
BRANCH   9  11
ATOM     11  O   UNL     1       6.281   3.598  15.449  0.00  0.00    +0.000 OA
BRANCH  11  13
ATOM     12  C   UNL     1       6.147   3.806  13.127  0.00  0.00    +0.000 C 
ATOM     13  C   UNL     1       6.795   4.381  14.366  0.00  0.00    +0.000 C 
ENDBRANCH  11  13
ENDBRANCH   9  11
ENDBRANCH   1   9
BRANCH   1  14
ATOM     14  C   UNL     1       4.423   3.140  17.674  0.00  0.00    +0.000 C 
BRANCH  14  15
ATOM     15  C   UNL     1       3.416   3.103  18.818  0.00  0.00    +0.000 A 
ATOM     16  C   UNL     1       3.906   2.568  20.020  0.00  0.00    +0.000 A 
ATOM     17  C   UNL     1       3.116   2.421  21.150  0.00  0.00    +0.000 A 
ATOM     18  C   UNL     1       1.822   2.891  21.143  0.00  0.00    +0.000 A 
ATOM     19  C   UNL     1       1.316   3.470  19.981  0.00  0.00    +0.000 A 
ATOM     20  C   UNL     1       2.079   3.577  18.803  0.00  0.00    +0.000 A 
ATOM     21  C   UNL     1       1.299   4.110  17.622  0.00  0.00    +0.000 C 
ENDBRANCH  14  15
ENDBRANCH   1  14
BRANCH   6  22
ATOM     22  C   UNL     1       8.111   8.106  17.692  0.00  0.00    +0.000 C 
BRANCH  22  23
ATOM     23  C   UNL     1       8.819   9.071  18.633  0.00  0.00    +0.000 C 
BRANCH  23  24
ATOM     24  C   UNL     1       8.883  10.447  18.023  0.00  0.00    +0.000 C 
ATOM     25  O   UNL     1       7.931  11.051  17.545  0.00  0.00    +0.000 OA
BRANCH  24  26
ATOM     26  O   UNL     1      10.155  10.937  18.087  0.00  0.00    +0.000 OA
ATOM     27  C   UNL     1      10.431  11.710  19.252  0.00  0.00    +0.000 C 
ENDBRANCH  24  26
ENDBRANCH  23  24
ENDBRANCH  22  23
ENDBRANCH   6  22
TORSDOF 9
ENDMDL
MODEL 4
REMARK VINA RESULT:      -6.2      3.533      6.258
REMARK  Name = 
REMARK  12 active torsions:
REMARK  status: ('A' for Active; 'I' for Inactive)
REMARK    1  A    between atoms: C_1  and  C_2
REMARK    2  A    between atoms: C_2  and  O_3
REMARK    3  A    between atoms: O_3  and  C_4
REMARK    4  A    between atoms: C_4  and  C_6
REMARK    5  A    between atoms: C_6  and  C_7
REMARK    6  A    between atoms: C_7  and  C_8
REMARK    7  A    between atoms: C_13  and  C_14
REMARK    8  A    between atoms: C_19  and  C_21
REMARK    9  A    between atoms: C_21  and  C_22
REMARK   10  A    between atoms: C_22  and  C_23
REMARK   11  A    between atoms: C_23  and  O_25
REMARK   12  A    between atoms: O_25  and  C_26
REMARK                            x       y       z     vdW  Elec       q    Type
REMARK                         _______ _______ _______ _____ _____    ______ ____
ROOT
ATOM      1  C   UNL     1       3.965   4.976  17.634  0.00  0.00    +0.000 C 
ATOM      2  C   UNL     1       4.356   6.308  16.912  0.00  0.00    +0.000 C 
ATOM      3  C   UNL     1       4.108   7.571  17.736  0.00  0.00    +0.000 C 
ATOM      4  C   UNL     1       2.647   7.644  18.166  0.00  0.00    +0.000 C 
ATOM      5  N   UNL     1       2.214   6.385  18.766  0.00  0.00    +0.000 N 
ATOM      6  C   UNL     1       1.804   6.237  20.095  0.00  0.00    +0.000 C 
ATOM      7  O   UNL     1       1.398   5.165  20.548  0.00  0.00    +0.000 OA
ATOM      8  C   UNL     1       2.456   5.165  17.967  0.00  0.00    +0.000 C 
ENDROOT
BRANCH   1   9
ATOM      9  C   UNL     1       4.644   4.664  18.997  0.00  0.00    +0.000 C 
ATOM     10  O   UNL     1       5.106   5.474  19.764  0.00  0.00    +0.000 OA
BRANCH   9  11
ATOM     11  O   UNL     1       4.734   3.324  19.213  0.00  0.00    +0.000 OA
BRANCH  11  13
ATOM     12  C   UNL     1       2.906   1.883  19.408  0.00  0.00    +0.000 C 
ATOM     13  C   UNL     1       3.799   2.830  20.178  0.00  0.00    +0.000 C 
ENDBRANCH  11  13
ENDBRANCH   9  11
ENDBRANCH   1   9
BRANCH   1  14
ATOM     14  C   UNL     1       4.367   3.821  16.634  0.00  0.00    +0.000 C 
BRANCH  14  15
ATOM     15  C   UNL     1       5.427   4.122  15.580  0.00  0.00    +0.000 A 
ATOM     16  C   UNL     1       4.985   4.019  14.251  0.00  0.00    +0.000 A 
ATOM     17  C   UNL     1       5.825   4.217  13.166  0.00  0.00    +0.000 A 
ATOM     18  C   UNL     1       7.126   4.618  13.376  0.00  0.00    +0.000 A 
ATOM     19  C   UNL     1       7.586   4.775  14.681  0.00  0.00    +0.000 A 
ATOM     20  C   UNL     1       6.770   4.522  15.800  0.00  0.00    +0.000 A 
ATOM     21  C   UNL     1       7.502   4.620  17.120  0.00  0.00    +0.000 C 
ENDBRANCH  14  15
ENDBRANCH   1  14
BRANCH   6  22
ATOM     22  C   UNL     1       1.897   7.466  20.977  0.00  0.00    +0.000 C 
BRANCH  22  23
ATOM     23  C   UNL     1       0.550   8.150  21.170  0.00  0.00    +0.000 C 
BRANCH  23  24
ATOM     24  C   UNL     1       0.699   9.645  21.057  0.00  0.00    +0.000 C 
ATOM     25  O   UNL     1       0.939  10.402  21.990  0.00  0.00    +0.000 OA
BRANCH  24  26
ATOM     26  O   UNL     1       0.539  10.043  19.761  0.00  0.00    +0.000 OA
ATOM     27  C   UNL     1      -0.764  10.530  19.452  0.00  0.00    +0.000 C 
ENDBRANCH  24  26
ENDBRANCH  23  24
ENDBRANCH  22  23
ENDBRANCH   6  22
TORSDOF 9
ENDMDL
MODEL 5
REMARK VINA RESULT:      -6.2      1.901      2.958
REMARK  Name = 
REMARK  12 active torsions:
REMARK  status: ('A' for Active; 'I' for Inactive)
REMARK    1  A    between atoms: C_1  and  C_2
REMARK    2  A    between atoms: C_2  and  O_3
REMARK    3  A    between atoms: O_3  and  C_4
REMARK    4  A    between atoms: C_4  and  C_6
REMARK    5  A    between atoms: C_6  and  C_7
REMARK    6  A    between atoms: C_7  and  C_8
REMARK    7  A    between atoms: C_13  and  C_14
REMARK    8  A    between atoms: C_19  and  C_21
REMARK    9  A    between atoms: C_21  and  C_22
REMARK   10  A    between atoms: C_22  and  C_23
REMARK   11  A    between atoms: C_23  and  O_25
REMARK   12  A    between atoms: O_25  and  C_26
REMARK                            x       y       z     vdW  Elec       q    Type
REMARK                         _______ _______ _______ _____ _____    ______ ____
ROOT
ATOM      1  C   UNL     1       4.785   4.577  17.382  0.00  0.00    +0.000 C 
ATOM      2  C   UNL     1       3.713   5.660  17.021  0.00  0.00    +0.000 C 
ATOM      3  C   UNL     1       4.287   7.047  16.736  0.00  0.00    +0.000 C 
ATOM      4  C   UNL     1       5.109   7.534  17.924  0.00  0.00    +0.000 C 
ATOM      5  N   UNL     1       6.063   6.515  18.354  0.00  0.00    +0.000 N 
ATOM      6  C   UNL     1       7.453   6.660  18.308  0.00  0.00    +0.000 C 
ATOM      7  O   UNL     1       8.224   5.794  18.727  0.00  0.00    +0.000 OA
ATOM      8  C   UNL     1       5.506   5.174  18.627  0.00  0.00    +0.000 C 
ENDROOT
BRANCH   1   9
ATOM      9  C   UNL     1       5.915   4.304  16.352  0.00  0.00    +0.000 C 
ATOM     10  O   UNL     1       7.021   3.886  16.602  0.00  0.00    +0.000 OA
BRANCH   9  11
ATOM     11  O   UNL     1       5.542   4.667  15.095  0.00  0.00    +0.000 OA
BRANCH  11  13
ATOM     12  C   UNL     1       6.175   3.637  13.097  0.00  0.00    +0.000 C 
ATOM     13  C   UNL     1       6.611   4.638  14.144  0.00  0.00    +0.000 C 
ENDBRANCH  11  13
ENDBRANCH   9  11
ENDBRANCH   1   9
BRANCH   1  14
ATOM     14  C   UNL     1       3.978   3.231  17.565  0.00  0.00    +0.000 C 
BRANCH  14  15
ATOM     15  C   UNL     1       3.085   3.091  18.792  0.00  0.00    +0.000 A 
ATOM     16  C   UNL     1       1.775   3.569  18.627  0.00  0.00    +0.000 A 
ATOM     17  C   UNL     1       0.840   3.558  19.651  0.00  0.00    +0.000 A 
ATOM     18  C   UNL     1       1.160   2.981  20.860  0.00  0.00    +0.000 A 
ATOM     19  C   UNL     1       2.437   2.455  21.044  0.00  0.00    +0.000 A 
ATOM     20  C   UNL     1       3.422   2.507  20.041  0.00  0.00    +0.000 A 
ATOM     21  C   UNL     1       4.775   2.005  20.492  0.00  0.00    +0.000 C 
ENDBRANCH  14  15
ENDBRANCH   1  14
BRANCH   6  22
ATOM     22  C   UNL     1       7.986   7.940  17.696  0.00  0.00    +0.000 C 
BRANCH  22  23
ATOM     23  C   UNL     1       8.696   8.823  18.713  0.00  0.00    +0.000 C 
BRANCH  23  24
ATOM     24  C   UNL     1       8.808  10.234  18.196  0.00  0.00    +0.000 C 
ATOM     25  O   UNL     1       7.955  10.812  17.534  0.00  0.00    +0.000 OA
BRANCH  24  26
ATOM     26  O   UNL     1       9.995  10.788  18.580  0.00  0.00    +0.000 OA
ATOM     27  C   UNL     1       9.967  11.412  19.860  0.00  0.00    +0.000 C 
ENDBRANCH  24  26
ENDBRANCH  23  24
ENDBRANCH  22  23
ENDBRANCH   6  22
TORSDOF 9
ENDMDL
MODEL 6
REMARK VINA RESULT:      -6.0      2.879      6.468
REMARK  Name = 
REMARK  12 active torsions:
REMARK  status: ('A' for Active; 'I' for Inactive)
REMARK    1  A    between atoms: C_1  and  C_2
REMARK    2  A    between atoms: C_2  and  O_3
REMARK    3  A    between atoms: O_3  and  C_4
REMARK    4  A    between atoms: C_4  and  C_6
REMARK    5  A    between atoms: C_6  and  C_7
REMARK    6  A    between atoms: C_7  and  C_8
REMARK    7  A    between atoms: C_13  and  C_14
REMARK    8  A    between atoms: C_19  and  C_21
REMARK    9  A    between atoms: C_21  and  C_22
REMARK   10  A    between atoms: C_22  and  C_23
REMARK   11  A    between atoms: C_23  and  O_25
REMARK   12  A    between atoms: O_25  and  C_26
REMARK                            x       y       z     vdW  Elec       q    Type
REMARK                         _______ _______ _______ _____ _____    ______ ____
ROOT
ATOM      1  C   UNL     1       3.989   5.251  18.702  0.00  0.00    +0.000 C 
ATOM      2  C   UNL     1       3.299   3.852  18.823  0.00  0.00    +0.000 C 
ATOM      3  C   UNL     1       3.843   2.793  17.864  0.00  0.00    +0.000 C 
ATOM      4  C   UNL     1       3.738   3.280  16.423  0.00  0.00    +0.000 C 
ATOM      5  N   UNL     1       4.291   4.625  16.284  0.00  0.00    +0.000 N 
ATOM      6  C   UNL     1       5.409   4.947  15.507  0.00  0.00    +0.000 C 
ATOM      7  O   UNL     1       5.814   6.105  15.376  0.00  0.00    +0.000 OA
ATOM      8  C   UNL     1       3.764   5.647  17.213  0.00  0.00    +0.000 C 
ENDROOT
BRANCH   1   9
ATOM      9  C   UNL     1       5.527   5.321  18.911  0.00  0.00    +0.000 C 
ATOM     10  O   UNL     1       6.211   4.488  19.457  0.00  0.00    +0.000 OA
BRANCH   9  11
ATOM     11  O   UNL     1       6.037   6.501  18.464  0.00  0.00    +0.000 OA
BRANCH  11  13
ATOM     12  C   UNL     1       7.798   7.833  17.705  0.00  0.00    +0.000 C 
ATOM     13  C   UNL     1       7.464   6.507  18.349  0.00  0.00    +0.000 C 
ENDBRANCH  11  13
ENDBRANCH   9  11
ENDBRANCH   1   9
BRANCH   1  14
ATOM     14  C   UNL     1       3.321   6.148  19.818  0.00  0.00    +0.000 C 
BRANCH  14  15
ATOM     15  C   UNL     1       2.555   7.390  19.377  0.00  0.00    +0.000 A 
ATOM     16  C   UNL     1       2.821   7.813  18.065  0.00  0.00    +0.000 A 
ATOM     17  C   UNL     1       2.245   8.947  17.513  0.00  0.00    +0.000 A 
ATOM     18  C   UNL     1       1.306   9.652  18.232  0.00  0.00    +0.000 A 
ATOM     19  C   UNL     1       0.982   9.235  19.521  0.00  0.00    +0.000 A 
ATOM     20  C   UNL     1       1.597   8.122  20.125  0.00  0.00    +0.000 A 
ATOM     21  C   UNL     1       1.205   7.923  21.572  0.00  0.00    +0.000 C 
ENDBRANCH  14  15
ENDBRANCH   1  14
BRANCH   6  22
ATOM     22  C   UNL     1       6.126   3.794  14.834  0.00  0.00    +0.000 C 
BRANCH  22  23
ATOM     23  C   UNL     1       6.586   4.136  13.423  0.00  0.00    +0.000 C 
BRANCH  23  24
ATOM     24  C   UNL     1       5.842   3.302  12.412  0.00  0.00    +0.000 C 
ATOM     25  O   UNL     1       4.669   3.457  12.096  0.00  0.00    +0.000 OA
BRANCH  24  26
ATOM     26  O   UNL     1       6.665   2.348  11.886  0.00  0.00    +0.000 OA
ATOM     27  C   UNL     1       5.994   1.346  11.127  0.00  0.00    +0.000 C 
ENDBRANCH  24  26
ENDBRANCH  23  24
ENDBRANCH  22  23
ENDBRANCH   6  22
TORSDOF 9
ENDMDL
MODEL 7
REMARK VINA RESULT:      -6.0      3.214      7.023
REMARK  Name = 
REMARK  12 active torsions:
REMARK  status: ('A' for Active; 'I' for Inactive)
REMARK    1  A    between atoms: C_1  and  C_2
REMARK    2  A    between atoms: C_2  and  O_3
REMARK    3  A    between atoms: O_3  and  C_4
REMARK    4  A    between atoms: C_4  and  C_6
REMARK    5  A    between atoms: C_6  and  C_7
REMARK    6  A    between atoms: C_7  and  C_8
REMARK    7  A    between atoms: C_13  and  C_14
REMARK    8  A    between atoms: C_19  and  C_21
REMARK    9  A    between atoms: C_21  and  C_22
REMARK   10  A    between atoms: C_22  and  C_23
REMARK   11  A    between atoms: C_23  and  O_25
REMARK   12  A    between atoms: O_25  and  C_26
REMARK                            x       y       z     vdW  Elec       q    Type
REMARK                         _______ _______ _______ _____ _____    ______ ____
ROOT
ATOM      1  C   UNL     1       6.210   5.397  16.737  0.00  0.00    +0.000 C 
ATOM      2  C   UNL     1       5.094   6.388  16.265  0.00  0.00    +0.000 C 
ATOM      3  C   UNL     1       3.954   6.580  17.265  0.00  0.00    +0.000 C 
ATOM      4  C   UNL     1       3.319   5.237  17.609  0.00  0.00    +0.000 C 
ATOM      5  N   UNL     1       4.337   4.253  17.969  0.00  0.00    +0.000 N 
ATOM      6  C   UNL     1       4.455   3.657  19.228  0.00  0.00    +0.000 C 
ATOM      7  O   UNL     1       5.299   2.793  19.477  0.00  0.00    +0.000 OA
ATOM      8  C   UNL     1       5.439   4.070  17.000  0.00  0.00    +0.000 C 
ENDROOT
BRANCH   1   9
ATOM      9  C   UNL     1       6.941   5.711  18.071  0.00  0.00    +0.000 C 
ATOM     10  O   UNL     1       7.407   4.901  18.837  0.00  0.00    +0.000 OA
BRANCH   9  11
ATOM     11  O   UNL     1       6.940   7.046  18.337  0.00  0.00    +0.000 OA
BRANCH  11  13
ATOM     12  C   UNL     1       8.346   8.909  18.385  0.00  0.00    +0.000 C 
ATOM     13  C   UNL     1       7.820   7.803  17.500  0.00  0.00    +0.000 C 
ENDBRANCH  11  13
ENDBRANCH   9  11
ENDBRANCH   1   9
BRANCH   1  14
ATOM     14  C   UNL     1       7.296   5.410  15.590  0.00  0.00    +0.000 C 
BRANCH  14  15
ATOM     15  C   UNL     1       6.932   4.781  14.250  0.00  0.00    +0.000 A 
ATOM     16  C   UNL     1       5.871   3.864  14.297  0.00  0.00    +0.000 A 
ATOM     17  C   UNL     1       5.434   3.168  13.180  0.00  0.00    +0.000 A 
ATOM     18  C   UNL     1       5.990   3.436  11.949  0.00  0.00    +0.000 A 
ATOM     19  C   UNL     1       7.015   4.375  11.857  0.00  0.00    +0.000 A 
ATOM     20  C   UNL     1       7.516   5.051  12.985  0.00  0.00    +0.000 A 
ATOM     21  C   UNL     1       8.716   5.923  12.687  0.00  0.00    +0.000 C 
ENDBRANCH  14  15
ENDBRANCH   1  14
BRANCH   6  22
ATOM     22  C   UNL     1       3.498   4.136  20.301  0.00  0.00    +0.000 C 
BRANCH  22  23
ATOM     23  C   UNL     1       3.049   3.014  21.228  0.00  0.00    +0.000 C 
BRANCH  23  24
ATOM     24  C   UNL     1       1.545   2.957  21.294  0.00  0.00    +0.000 C 
ATOM     25  O   UNL     1       0.897   2.534  22.243  0.00  0.00    +0.000 OA
BRANCH  24  26
ATOM     26  O   UNL     1       0.999   3.456  20.147  0.00  0.00    +0.000 OA
ATOM     27  C   UNL     1       0.775   2.483  19.130  0.00  0.00    +0.000 C 
ENDBRANCH  24  26
ENDBRANCH  23  24
ENDBRANCH  22  23
ENDBRANCH   6  22
TORSDOF 9
ENDMDL
MODEL 8
REMARK VINA RESULT:      -6.0      3.189      7.065
REMARK  Name = 
REMARK  12 active torsions:
REMARK  status: ('A' for Active; 'I' for Inactive)
REMARK    1  A    between atoms: C_1  and  C_2
REMARK    2  A    between atoms: C_2  and  O_3
REMARK    3  A    between atoms: O_3  and  C_4
REMARK    4  A    between atoms: C_4  and  C_6
REMARK    5  A    between atoms: C_6  and  C_7
REMARK    6  A    between atoms: C_7  and  C_8
REMARK    7  A    between atoms: C_13  and  C_14
REMARK    8  A    between atoms: C_19  and  C_21
REMARK    9  A    between atoms: C_21  and  C_22
REMARK   10  A    between atoms: C_22  and  C_23
REMARK   11  A    between atoms: C_23  and  O_25
REMARK   12  A    between atoms: O_25  and  C_26
REMARK                            x       y       z     vdW  Elec       q    Type
REMARK                         _______ _______ _______ _____ _____    ______ ____
ROOT
ATOM      1  C   UNL     1       2.545   6.516  19.002  0.00  0.00    +0.000 C 
ATOM      2  C   UNL     1       1.883   6.383  20.414  0.00  0.00    +0.000 C 
ATOM      3  C   UNL     1       1.785   4.949  20.934  0.00  0.00    +0.000 C 
ATOM      4  C   UNL     1       1.026   4.076  19.941  0.00  0.00    +0.000 C 
ATOM      5  N   UNL     1       1.555   4.239  18.589  0.00  0.00    +0.000 N 
ATOM      6  C   UNL     1       2.167   3.223  17.848  0.00  0.00    +0.000 C 
ATOM      7  O   UNL     1       2.555   3.390  16.689  0.00  0.00    +0.000 OA
ATOM      8  C   UNL     1       1.650   5.627  18.089  0.00  0.00    +0.000 C 
ENDROOT
BRANCH   1   9
ATOM      9  C   UNL     1       3.985   5.960  18.821  0.00  0.00    +0.000 C 
ATOM     10  O   UNL     1       4.650   5.415  19.669  0.00  0.00    +0.000 OA
BRANCH   9  11
ATOM     11  O   UNL     1       4.469   6.227  17.577  0.00  0.00    +0.000 OA
BRANCH  11  13
ATOM     12  C   UNL     1       6.735   6.662  17.217  0.00  0.00    +0.000 C 
ATOM     13  C   UNL     1       5.701   5.561  17.282  0.00  0.00    +0.000 C 
ENDBRANCH  11  13
ENDBRANCH   9  11
ENDBRANCH   1   9
BRANCH   1  14
ATOM     14  C   UNL     1       2.599   8.067  18.706  0.00  0.00    +0.000 C 
BRANCH  14  15
ATOM     15  C   UNL     1       1.336   8.886  18.944  0.00  0.00    +0.000 A 
ATOM     16  C   UNL     1       0.590   9.170  17.788  0.00  0.00    +0.000 A 
ATOM     17  C   UNL     1      -0.564   9.937  17.813  0.00  0.00    +0.000 A 
ATOM     18  C   UNL     1      -1.065  10.376  19.018  0.00  0.00    +0.000 A 
ATOM     19  C   UNL     1      -0.376  10.074  20.190  0.00  0.00    +0.000 A 
ATOM     20  C   UNL     1       0.829   9.347  20.186  0.00  0.00    +0.000 A 
ATOM     21  C   UNL     1       1.483   9.248  21.546  0.00  0.00    +0.000 C 
ENDBRANCH  14  15
ENDBRANCH   1  14
BRANCH   6  22
ATOM     22  C   UNL     1       2.352   1.889  18.543  0.00  0.00    +0.000 C 
BRANCH  22  23
ATOM     23  C   UNL     1       3.818   1.501  18.682  0.00  0.00    +0.000 C 
BRANCH  23  24
ATOM     24  C   UNL     1       4.290   1.731  20.094  0.00  0.00    +0.000 C 
ATOM     25  O   UNL     1       3.727   2.439  20.919  0.00  0.00    +0.000 OA
BRANCH  24  26
ATOM     26  O   UNL     1       5.435   1.027  20.333  0.00  0.00    +0.000 OA
ATOM     27  C   UNL     1       5.638   0.679  21.700  0.00  0.00    +0.000 C 
ENDBRANCH  24  26
ENDBRANCH  23  24
ENDBRANCH  22  23
ENDBRANCH   6  22
TORSDOF 9
ENDMDL
MODEL 9
REMARK VINA RESULT:      -5.9      1.830      3.043
REMARK  Name = 
REMARK  12 active torsions:
REMARK  status: ('A' for Active; 'I' for Inactive)
REMARK    1  A    between atoms: C_1  and  C_2
REMARK    2  A    between atoms: C_2  and  O_3
REMARK    3  A    between atoms: O_3  and  C_4
REMARK    4  A    between atoms: C_4  and  C_6
REMARK    5  A    between atoms: C_6  and  C_7
REMARK    6  A    between atoms: C_7  and  C_8
REMARK    7  A    between atoms: C_13  and  C_14
REMARK    8  A    between atoms: C_19  and  C_21
REMARK    9  A    between atoms: C_21  and  C_22
REMARK   10  A    between atoms: C_22  and  C_23
REMARK   11  A    between atoms: C_23  and  O_25
REMARK   12  A    between atoms: O_25  and  C_26
REMARK                            x       y       z     vdW  Elec       q    Type
REMARK                         _______ _______ _______ _____ _____    ______ ____
ROOT
ATOM      1  C   UNL     1       5.590   4.813  16.977  0.00  0.00    +0.000 C 
ATOM      2  C   UNL     1       4.497   5.733  16.335  0.00  0.00    +0.000 C 
ATOM      3  C   UNL     1       4.941   7.177  16.106  0.00  0.00    +0.000 C 
ATOM      4  C   UNL     1       5.413   7.800  17.416  0.00  0.00    +0.000 C 
ATOM      5  N   UNL     1       6.370   6.929  18.094  0.00  0.00    +0.000 N 
ATOM      6  C   UNL     1       7.706   7.258  18.341  0.00  0.00    +0.000 C 
ATOM      7  O   UNL     1       8.469   6.514  18.962  0.00  0.00    +0.000 OA
ATOM      8  C   UNL     1       5.939   5.532  18.313  0.00  0.00    +0.000 C 
ENDROOT
BRANCH   1   9
ATOM      9  C   UNL     1       6.945   4.668  16.230  0.00  0.00    +0.000 C 
ATOM     10  O   UNL     1       7.938   4.126  16.654  0.00  0.00    +0.000 OA
BRANCH   9  11
ATOM     11  O   UNL     1       6.921   5.306  15.028  0.00  0.00    +0.000 OA
BRANCH  11  13
ATOM     12  C   UNL     1       7.711   5.070  12.843  0.00  0.00    +0.000 C 
ATOM     13  C   UNL     1       6.855   4.420  13.906  0.00  0.00    +0.000 C 
ENDBRANCH  11  13
ENDBRANCH   9  11
ENDBRANCH   1   9
BRANCH   1  14
ATOM     14  C   UNL     1       4.938   3.376  17.054  0.00  0.00    +0.000 C 
BRANCH  14  15
ATOM     15  C   UNL     1       3.681   3.203  17.898  0.00  0.00    +0.000 A 
ATOM     16  C   UNL     1       2.495   3.642  17.288  0.00  0.00    +0.000 A 
ATOM     17  C   UNL     1       1.265   3.598  17.927  0.00  0.00    +0.000 A 
ATOM     18  C   UNL     1       1.166   3.024  19.175  0.00  0.00    +0.000 A 
ATOM     19  C   UNL     1       2.315   2.536  19.792  0.00  0.00    +0.000 A 
ATOM     20  C   UNL     1       3.585   2.623  19.189  0.00  0.00    +0.000 A 
ATOM     21  C   UNL     1       4.714   2.160  20.082  0.00  0.00    +0.000 C 
ENDBRANCH  14  15
ENDBRANCH   1  14
BRANCH   6  22
ATOM     22  C   UNL     1       8.196   8.582  17.790  0.00  0.00    +0.000 C 
BRANCH  22  23
ATOM     23  C   UNL     1       8.807   9.472  18.864  0.00  0.00    +0.000 C 
BRANCH  23  24
ATOM     24  C   UNL     1       9.363  10.731  18.249  0.00  0.00    +0.000 C 
ATOM     25  O   UNL     1      10.314  10.778  17.479  0.00  0.00    +0.000 OA
BRANCH  24  26
ATOM     26  O   UNL     1       8.649  11.818  18.663  0.00  0.00    +0.000 OA
ATOM     27  C   UNL     1       9.252  12.547  19.728  0.00  0.00    +0.000 C 
ENDBRANCH  24  26
ENDBRANCH  23  24
ENDBRANCH  22  23
ENDBRANCH   6  22
TORSDOF 9
ENDMDL
