MODEL 1
REMARK VINA RESULT:      -6.8      0.000      0.000
REMARK  Name = 
REMARK  7 active torsions:
REMARK  status: ('A' for Active; 'I' for Inactive)
REMARK    1  A    between atoms: C_1  and  S_2
REMARK    2  A    between atoms: S_2  and  C_5
REMARK    3  A    between atoms: C_8  and  N_9
REMARK    4  A    between atoms: C_11  and  C_12
REMARK    5  A    between atoms: C_17  and  C_18
REMARK    6  A    between atoms: C_21  and  N_22
REMARK    7  A    between atoms: N_24  and  O_25
REMARK                            x       y       z     vdW  Elec       q    Type
REMARK                         _______ _______ _______ _____ _____    ______ ____
ROOT
ATOM      1  N   UNL     1       1.213  11.839  18.829  0.00  0.00    +0.000 N 
ATOM      2  N   UNL     1       2.283  12.639  19.074  0.00  0.00    +0.000 NA
ATOM      3  C   UNL     1       1.916  13.858  18.637  0.00  0.00    +0.000 A 
ATOM      4  C   UNL     1       0.543  13.870  18.295  0.00  0.00    +0.000 A 
ATOM      5  C   UNL     1       0.070  12.587  18.508  0.00  0.00    +0.000 A 
ENDROOT
BRANCH   1   9
ATOM      6  C   UNL     1       1.954   7.720  19.309  0.00  0.00    +0.000 A 
ATOM      7  C   UNL     1       2.180   8.325  18.068  0.00  0.00    +0.000 A 
ATOM      8  C   UNL     1       1.868   9.678  17.887  0.00  0.00    +0.000 A 
ATOM      9  C   UNL     1       1.350  10.425  18.956  0.00  0.00    +0.000 A 
ATOM     10  C   UNL     1       1.029   9.782  20.161  0.00  0.00    +0.000 A 
ATOM     11  C   UNL     1       1.345   8.435  20.344  0.00  0.00    +0.000 A 
BRANCH   6  13
ATOM     12  C   UNL     1       1.901   5.160  18.071  0.00  0.00    +0.000 C 
ATOM     13  S   UNL     1       2.353   6.005  19.558  0.00  0.00    +0.000 S 
ATOM     14  O   UNL     1       1.485   5.544  20.626  0.00  0.00    +0.000 OA
ATOM     15  O   UNL     1       3.792   5.901  19.671  0.00  0.00    +0.000 OA
ENDBRANCH   6  13
ENDBRANCH   1   9
BRANCH   5  16
ATOM     16  C   UNL     1      -1.322  12.098  18.475  0.00  0.00    +0.000 A 
ATOM     17  C   UNL     1      -2.230  12.451  19.483  0.00  0.00    +0.000 A 
ATOM     18  C   UNL     1      -3.568  12.039  19.416  0.00  0.00    +0.000 A 
ATOM     19  C   UNL     1      -4.038  11.289  18.324  0.00  0.00    +0.000 A 
ATOM     20  C   UNL     1      -3.137  10.938  17.318  0.00  0.00    +0.000 A 
ATOM     21  C   UNL     1      -1.786  11.275  17.438  0.00  0.00    +0.000 A 
BRANCH  19  22
ATOM     22  N   UNL     1      -5.489  11.011  18.233  0.00  0.00    +0.000 N 
ATOM     23  O   UNL     1      -5.891   9.907  18.741  0.00  0.00    +0.000 OA
ATOM     24  N   UNL     1      -6.354  11.804  17.701  0.00  0.00    +0.000 NA
BRANCH  24  25
ATOM     25  O   UNL     1      -5.804  12.911  17.047  0.00  0.00    +0.000 OA
ATOM     26  H   UNL     1      -6.465  13.082  16.351  0.00  0.00    +0.000 HD
ENDBRANCH  24  25
ENDBRANCH  19  22
ENDBRANCH   5  16
BRANCH   3  27
ATOM     27  C   UNL     1       2.846  15.041  18.578  0.00  0.00    +0.000 C 
ATOM     28  F   UNL     1       3.391  15.250  17.351  0.00  0.00    +0.000 F 
ATOM     29  F   UNL     1       2.202  16.193  18.918  0.00  0.00    +0.000 F 
ATOM     30  F   UNL     1       3.880  14.911  19.452  0.00  0.00    +0.000 F 
ENDBRANCH   3  27
TORSDOF 6
ENDMDL
MODEL 2
REMARK VINA RESULT:      -6.7      4.155      6.232
REMARK  Name = 
REMARK  7 active torsions:
REMARK  status: ('A' for Active; 'I' for Inactive)
REMARK    1  A    between atoms: C_1  and  S_2
REMARK    2  A    between atoms: S_2  and  C_5
REMARK    3  A    between atoms: C_8  and  N_9
REMARK    4  A    between atoms: C_11  and  C_12
REMARK    5  A    between atoms: C_17  and  C_18
REMARK    6  A    between atoms: C_21  and  N_22
REMARK    7  A    between atoms: N_24  and  O_25
REMARK                            x       y       z     vdW  Elec       q    Type
REMARK                         _______ _______ _______ _____ _____    ______ ____
ROOT
ATOM      1  N   UNL     1      -0.070  10.552  18.632  0.00  0.00    +0.000 N 
ATOM      2  N   UNL     1      -1.297  10.236  18.140  0.00  0.00    +0.000 NA
ATOM      3  C   UNL     1      -2.070  11.304  18.414  0.00  0.00    +0.000 A 
ATOM      4  C   UNL     1      -1.282  12.373  18.906  0.00  0.00    +0.000 A 
ATOM      5  C   UNL     1       0.022  11.914  18.958  0.00  0.00    +0.000 A 
ENDROOT
BRANCH   1   9
ATOM      6  C   UNL     1       2.641   7.332  18.788  0.00  0.00    +0.000 A 
ATOM      7  C   UNL     1       1.916   7.685  19.933  0.00  0.00    +0.000 A 
ATOM      8  C   UNL     1       1.067   8.797  19.902  0.00  0.00    +0.000 A 
ATOM      9  C   UNL     1       0.932   9.542  18.720  0.00  0.00    +0.000 A 
ATOM     10  C   UNL     1       1.743   9.243  17.615  0.00  0.00    +0.000 A 
ATOM     11  C   UNL     1       2.585   8.130  17.643  0.00  0.00    +0.000 A 
BRANCH   6  13
ATOM     12  C   UNL     1       3.007   4.725  17.711  0.00  0.00    +0.000 C 
ATOM     13  S   UNL     1       3.717   5.917  18.808  0.00  0.00    +0.000 S 
ATOM     14  O   UNL     1       3.655   5.387  20.158  0.00  0.00    +0.000 OA
ATOM     15  O   UNL     1       4.979   6.317  18.223  0.00  0.00    +0.000 OA
ENDBRANCH   6  13
ENDBRANCH   1   9
BRANCH   5  16
ATOM     16  C   UNL     1       1.258  12.672  19.229  0.00  0.00    +0.000 A 
ATOM     17  C   UNL     1       2.071  13.117  18.177  0.00  0.00    +0.000 A 
ATOM     18  C   UNL     1       3.210  13.893  18.433  0.00  0.00    +0.000 A 
ATOM     19  C   UNL     1       3.548  14.268  19.746  0.00  0.00    +0.000 A 
ATOM     20  C   UNL     1       2.739  13.828  20.794  0.00  0.00    +0.000 A 
ATOM     21  C   UNL     1       1.658  12.980  20.538  0.00  0.00    +0.000 A 
BRANCH  19  22
ATOM     22  N   UNL     1       4.673  15.209  19.942  0.00  0.00    +0.000 N 
ATOM     23  O   UNL     1       5.797  14.693  20.271  0.00  0.00    +0.000 OA
ATOM     24  N   UNL     1       4.594  16.485  19.786  0.00  0.00    +0.000 NA
BRANCH  24  25
ATOM     25  O   UNL     1       3.299  16.967  19.570  0.00  0.00    +0.000 OA
ATOM     26  H   UNL     1       3.015  16.442  18.798  0.00  0.00    +0.000 HD
ENDBRANCH  24  25
ENDBRANCH  19  22
ENDBRANCH   5  16
BRANCH   3  27
ATOM     27  C   UNL     1      -3.555  11.345  18.174  0.00  0.00    +0.000 C 
ATOM     28  F   UNL     1      -3.908  11.955  17.012  0.00  0.00    +0.000 F 
ATOM     29  F   UNL     1      -4.084  10.089  18.129  0.00  0.00    +0.000 F 
ATOM     30  F   UNL     1      -4.209  11.996  19.174  0.00  0.00    +0.000 F 
ENDBRANCH   3  27
TORSDOF 6
ENDMDL
MODEL 3
REMARK VINA RESULT:      -6.7      0.702      1.096
REMARK  Name = 
REMARK  7 active torsions:
REMARK  status: ('A' for Active; 'I' for Inactive)
REMARK    1  A    between atoms: C_1  and  S_2
REMARK    2  A    between atoms: S_2  and  C_5
REMARK    3  A    between atoms: C_8  and  N_9
REMARK    4  A    between atoms: C_11  and  C_12
REMARK    5  A    between atoms: C_17  and  C_18
REMARK    6  A    between atoms: C_21  and  N_22
REMARK    7  A    between atoms: N_24  and  O_25
REMARK                            x       y       z     vdW  Elec       q    Type
REMARK                         _______ _______ _______ _____ _____    ______ ____
ROOT
ATOM      1  N   UNL     1       1.214  11.886  18.903  0.00  0.00    +0.000 N 
ATOM      2  N   UNL     1       2.275  12.681  19.202  0.00  0.00    +0.000 NA
ATOM      3  C   UNL     1       1.895  13.922  18.844  0.00  0.00    +0.000 A 
ATOM      4  C   UNL     1       0.522  13.940  18.499  0.00  0.00    +0.000 A 
ATOM      5  C   UNL     1       0.064  12.641  18.627  0.00  0.00    +0.000 A 
ENDROOT
BRANCH   1   9
ATOM      6  C   UNL     1       2.006   7.754  19.105  0.00  0.00    +0.000 A 
ATOM      7  C   UNL     1       2.186   8.437  17.896  0.00  0.00    +0.000 A 
ATOM      8  C   UNL     1       1.857   9.795  17.809  0.00  0.00    +0.000 A 
ATOM      9  C   UNL     1       1.367  10.469  18.938  0.00  0.00    +0.000 A 
ATOM     10  C   UNL     1       1.092   9.750  20.111  0.00  0.00    +0.000 A 
ATOM     11  C   UNL     1       1.425   8.398  20.200  0.00  0.00    +0.000 A 
BRANCH   6  13
ATOM     12  C   UNL     1       1.562   5.403  20.643  0.00  0.00    +0.000 C 
ATOM     13  S   UNL     1       2.427   6.032  19.234  0.00  0.00    +0.000 S 
ATOM     14  O   UNL     1       3.850   5.989  19.518  0.00  0.00    +0.000 OA
ATOM     15  O   UNL     1       1.879   5.358  18.078  0.00  0.00    +0.000 OA
ENDBRANCH   6  13
ENDBRANCH   1   9
BRANCH   5  16
ATOM     16  C   UNL     1      -1.322  12.138  18.558  0.00  0.00    +0.000 A 
ATOM     17  C   UNL     1      -2.254  12.466  19.553  0.00  0.00    +0.000 A 
ATOM     18  C   UNL     1      -3.586  12.043  19.452  0.00  0.00    +0.000 A 
ATOM     19  C   UNL     1      -4.027  11.306  18.339  0.00  0.00    +0.000 A 
ATOM     20  C   UNL     1      -3.103  10.981  17.346  0.00  0.00    +0.000 A 
ATOM     21  C   UNL     1      -1.758  11.329  17.498  0.00  0.00    +0.000 A 
BRANCH  19  22
ATOM     22  N   UNL     1      -5.473  11.016  18.214  0.00  0.00    +0.000 N 
ATOM     23  O   UNL     1      -5.878   9.910  18.717  0.00  0.00    +0.000 OA
ATOM     24  N   UNL     1      -6.331  11.800  17.658  0.00  0.00    +0.000 NA
BRANCH  24  25
ATOM     25  O   UNL     1      -5.774  12.909  17.013  0.00  0.00    +0.000 OA
ATOM     26  H   UNL     1      -5.237  12.487  16.316  0.00  0.00    +0.000 HD
ENDBRANCH  24  25
ENDBRANCH  19  22
ENDBRANCH   5  16
BRANCH   3  27
ATOM     27  C   UNL     1       2.811  15.116  18.865  0.00  0.00    +0.000 C 
ATOM     28  F   UNL     1       3.893  14.965  19.674  0.00  0.00    +0.000 F 
ATOM     29  F   UNL     1       3.293  15.391  17.620  0.00  0.00    +0.000 F 
ATOM     30  F   UNL     1       2.164  16.239  19.278  0.00  0.00    +0.000 F 
ENDBRANCH   3  27
TORSDOF 6
ENDMDL
MODEL 4
REMARK VINA RESULT:      -6.5      5.061      7.248
REMARK  Name = 
REMARK  7 active torsions:
REMARK  status: ('A' for Active; 'I' for Inactive)
REMARK    1  A    between atoms: C_1  and  S_2
REMARK    2  A    between atoms: S_2  and  C_5
REMARK    3  A    between atoms: C_8  and  N_9
REMARK    4  A    between atoms: C_11  and  C_12
REMARK    5  A    between atoms: C_17  and  C_18
REMARK    6  A    between atoms: C_21  and  N_22
REMARK    7  A    between atoms: N_24  and  O_25
REMARK                            x       y       z     vdW  Elec       q    Type
REMARK                         _______ _______ _______ _____ _____    ______ ____
ROOT
ATOM      1  N   UNL     1       0.238  11.047  20.085  0.00  0.00    +0.000 N 
ATOM      2  N   UNL     1       0.665   9.758  20.023  0.00  0.00    +0.000 NA
ATOM      3  C   UNL     1       1.474   9.709  18.948  0.00  0.00    +0.000 A 
ATOM      4  C   UNL     1       1.712  11.011  18.446  0.00  0.00    +0.000 A 
ATOM      5  C   UNL     1       0.985  11.881  19.240  0.00  0.00    +0.000 A 
ENDROOT
BRANCH   1   9
ATOM      6  C   UNL     1      -2.729  12.375  22.764  0.00  0.00    +0.000 A 
ATOM      7  C   UNL     1      -1.650  11.622  23.241  0.00  0.00    +0.000 A 
ATOM      8  C   UNL     1      -0.700  11.121  22.343  0.00  0.00    +0.000 A 
ATOM      9  C   UNL     1      -0.824  11.392  20.972  0.00  0.00    +0.000 A 
ATOM     10  C   UNL     1      -1.964  12.056  20.495  0.00  0.00    +0.000 A 
ATOM     11  C   UNL     1      -2.908  12.561  21.391  0.00  0.00    +0.000 A 
BRANCH   6  13
ATOM     12  C   UNL     1      -5.255  13.677  22.905  0.00  0.00    +0.000 C 
ATOM     13  S   UNL     1      -3.939  13.026  23.892  0.00  0.00    +0.000 S 
ATOM     14  O   UNL     1      -3.293  14.132  24.576  0.00  0.00    +0.000 OA
ATOM     15  O   UNL     1      -4.491  11.913  24.634  0.00  0.00    +0.000 OA
ENDBRANCH   6  13
ENDBRANCH   1   9
BRANCH   5  16
ATOM     16  C   UNL     1       1.015  13.356  19.261  0.00  0.00    +0.000 A 
ATOM     17  C   UNL     1      -0.015  14.102  18.670  0.00  0.00    +0.000 A 
ATOM     18  C   UNL     1      -0.020  15.501  18.747  0.00  0.00    +0.000 A 
ATOM     19  C   UNL     1       0.991  16.188  19.443  0.00  0.00    +0.000 A 
ATOM     20  C   UNL     1       2.015  15.449  20.034  0.00  0.00    +0.000 A 
ATOM     21  C   UNL     1       2.061  14.061  19.875  0.00  0.00    +0.000 A 
BRANCH  19  22
ATOM     22  N   UNL     1       0.854  17.652  19.619  0.00  0.00    +0.000 N 
ATOM     23  O   UNL     1       0.140  18.043  20.606  0.00  0.00    +0.000 OA
ATOM     24  N   UNL     1       1.413  18.534  18.864  0.00  0.00    +0.000 NA
BRANCH  24  25
ATOM     25  O   UNL     1       2.048  18.014  17.732  0.00  0.00    +0.000 OA
ATOM     26  H   UNL     1       2.724  17.432  18.130  0.00  0.00    +0.000 HD
ENDBRANCH  24  25
ENDBRANCH  19  22
ENDBRANCH   5  16
BRANCH   3  27
ATOM     27  C   UNL     1       2.069   8.436  18.407  0.00  0.00    +0.000 C 
ATOM     28  F   UNL     1       3.313   8.592  17.883  0.00  0.00    +0.000 F 
ATOM     29  F   UNL     1       2.174   7.487  19.379  0.00  0.00    +0.000 F 
ATOM     30  F   UNL     1       1.294   7.895  17.429  0.00  0.00    +0.000 F 
ENDBRANCH   3  27
TORSDOF 6
ENDMDL
MODEL 5
REMARK VINA RESULT:      -6.5      5.557      7.085
REMARK  Name = 
REMARK  7 active torsions:
REMARK  status: ('A' for Active; 'I' for Inactive)
REMARK    1  A    between atoms: C_1  and  S_2
REMARK    2  A    between atoms: S_2  and  C_5
REMARK    3  A    between atoms: C_8  and  N_9
REMARK    4  A    between atoms: C_11  and  C_12
REMARK    5  A    between atoms: C_17  and  C_18
REMARK    6  A    between atoms: C_21  and  N_22
REMARK    7  A    between atoms: N_24  and  O_25
REMARK                            x       y       z     vdW  Elec       q    Type
REMARK                         _______ _______ _______ _____ _____    ______ ____
ROOT
ATOM      1  N   UNL     1      -0.815  12.782  18.554  0.00  0.00    +0.000 N 
ATOM      2  N   UNL     1      -1.208  12.331  17.335  0.00  0.00    +0.000 NA
ATOM      3  C   UNL     1      -2.271  11.542  17.579  0.00  0.00    +0.000 A 
ATOM      4  C   UNL     1      -2.667  11.649  18.934  0.00  0.00    +0.000 A 
ATOM      5  C   UNL     1      -1.780  12.523  19.538  0.00  0.00    +0.000 A 
ENDROOT
BRANCH   1   9
ATOM      6  C   UNL     1       2.885  14.795  18.577  0.00  0.00    +0.000 A 
ATOM      7  C   UNL     1       2.857  13.396  18.571  0.00  0.00    +0.000 A 
ATOM      8  C   UNL     1       1.630  12.725  18.634  0.00  0.00    +0.000 A 
ATOM      9  C   UNL     1       0.434  13.458  18.683  0.00  0.00    +0.000 A 
ATOM     10  C   UNL     1       0.481  14.855  18.796  0.00  0.00    +0.000 A 
ATOM     11  C   UNL     1       1.704  15.525  18.727  0.00  0.00    +0.000 A 
BRANCH   6  13
ATOM     12  C   UNL     1       5.150  15.587  20.105  0.00  0.00    +0.000 C 
ATOM     13  S   UNL     1       4.435  15.662  18.489  0.00  0.00    +0.000 S 
ATOM     14  O   UNL     1       4.103  17.045  18.201  0.00  0.00    +0.000 OA
ATOM     15  O   UNL     1       5.310  14.910  17.616  0.00  0.00    +0.000 OA
ENDBRANCH   6  13
ENDBRANCH   1   9
BRANCH   5  16
ATOM     16  C   UNL     1      -1.842  13.115  20.889  0.00  0.00    +0.000 A 
ATOM     17  C   UNL     1      -1.322  12.430  21.996  0.00  0.00    +0.000 A 
ATOM     18  C   UNL     1      -1.322  13.021  23.267  0.00  0.00    +0.000 A 
ATOM     19  C   UNL     1      -1.816  14.324  23.456  0.00  0.00    +0.000 A 
ATOM     20  C   UNL     1      -2.332  15.009  22.355  0.00  0.00    +0.000 A 
ATOM     21  C   UNL     1      -2.411  14.378  21.111  0.00  0.00    +0.000 A 
BRANCH  19  22
ATOM     22  N   UNL     1      -1.655  14.952  24.787  0.00  0.00    +0.000 N 
ATOM     23  O   UNL     1      -0.508  15.461  25.041  0.00  0.00    +0.000 OA
ATOM     24  N   UNL     1      -2.583  15.029  25.676  0.00  0.00    +0.000 NA
BRANCH  24  25
ATOM     25  O   UNL     1      -3.748  14.320  25.366  0.00  0.00    +0.000 OA
ATOM     26  H   UNL     1      -4.001  14.714  24.509  0.00  0.00    +0.000 HD
ENDBRANCH  24  25
ENDBRANCH  19  22
ENDBRANCH   5  16
BRANCH   3  27
ATOM     27  C   UNL     1      -2.954  10.708  16.528  0.00  0.00    +0.000 C 
ATOM     28  F   UNL     1      -2.436   9.459  16.394  0.00  0.00    +0.000 F 
ATOM     29  F   UNL     1      -4.279  10.550  16.806  0.00  0.00    +0.000 F 
ATOM     30  F   UNL     1      -2.891  11.295  15.302  0.00  0.00    +0.000 F 
ENDBRANCH   3  27
TORSDOF 6
ENDMDL
MODEL 6
REMARK VINA RESULT:      -6.5      4.936      7.323
REMARK  Name = 
REMARK  7 active torsions:
REMARK  status: ('A' for Active; 'I' for Inactive)
REMARK    1  A    between atoms: C_1  and  S_2
REMARK    2  A    between atoms: S_2  and  C_5
REMARK    3  A    between atoms: C_8  and  N_9
REMARK    4  A    between atoms: C_11  and  C_12
REMARK    5  A    between atoms: C_17  and  C_18
REMARK    6  A    between atoms: C_21  and  N_22
REMARK    7  A    between atoms: N_24  and  O_25
REMARK                            x       y       z     vdW  Elec       q    Type
REMARK                         _______ _______ _______ _____ _____    ______ ____
ROOT
ATOM      1  N   UNL     1       0.063  11.218  20.080  0.00  0.00    +0.000 N 
ATOM      2  N   UNL     1       0.507   9.935  20.008  0.00  0.00    +0.000 NA
ATOM      3  C   UNL     1       1.332   9.909  18.946  0.00  0.00    +0.000 A 
ATOM      4  C   UNL     1       1.561  11.220  18.462  0.00  0.00    +0.000 A 
ATOM      5  C   UNL     1       0.812  12.071  19.256  0.00  0.00    +0.000 A 
ENDROOT
BRANCH   1   9
ATOM      6  C   UNL     1      -2.973  12.488  22.709  0.00  0.00    +0.000 A 
ATOM      7  C   UNL     1      -1.848  11.827  23.216  0.00  0.00    +0.000 A 
ATOM      8  C   UNL     1      -0.872  11.343  22.337  0.00  0.00    +0.000 A 
ATOM      9  C   UNL     1      -1.016  11.539  20.955  0.00  0.00    +0.000 A 
ATOM     10  C   UNL     1      -2.196  12.107  20.454  0.00  0.00    +0.000 A 
ATOM     11  C   UNL     1      -3.167  12.595  21.329  0.00  0.00    +0.000 A 
BRANCH   6  13
ATOM     12  C   UNL     1      -3.425  14.317  24.840  0.00  0.00    +0.000 C 
ATOM     13  S   UNL     1      -4.218  13.116  23.812  0.00  0.00    +0.000 S 
ATOM     14  O   UNL     1      -4.616  11.995  24.644  0.00  0.00    +0.000 OA
ATOM     15  O   UNL     1      -5.190  13.832  23.014  0.00  0.00    +0.000 OA
ENDBRANCH   6  13
ENDBRANCH   1   9
BRANCH   5  16
ATOM     16  C   UNL     1       0.823  13.546  19.295  0.00  0.00    +0.000 A 
ATOM     17  C   UNL     1       1.871  14.240  19.915  0.00  0.00    +0.000 A 
ATOM     18  C   UNL     1       1.914  15.641  19.895  0.00  0.00    +0.000 A 
ATOM     19  C   UNL     1       0.923  16.382  19.227  0.00  0.00    +0.000 A 
ATOM     20  C   UNL     1      -0.121  15.695  18.607  0.00  0.00    +0.000 A 
ATOM     21  C   UNL     1      -0.204  14.303  18.710  0.00  0.00    +0.000 A 
BRANCH  19  22
ATOM     22  N   UNL     1       1.099  17.847  19.111  0.00  0.00    +0.000 N 
ATOM     23  O   UNL     1       0.555  18.560  20.025  0.00  0.00    +0.000 OA
ATOM     24  N   UNL     1       1.765  18.432  18.177  0.00  0.00    +0.000 NA
BRANCH  24  25
ATOM     25  O   UNL     1       2.195  17.585  17.151  0.00  0.00    +0.000 OA
ATOM     26  H   UNL     1       1.348  17.278  16.775  0.00  0.00    +0.000 HD
ENDBRANCH  24  25
ENDBRANCH  19  22
ENDBRANCH   5  16
BRANCH   3  27
ATOM     27  C   UNL     1       1.951   8.651  18.398  0.00  0.00    +0.000 C 
ATOM     28  F   UNL     1       2.152   7.685  19.333  0.00  0.00    +0.000 F 
ATOM     29  F   UNL     1       1.169   8.097  17.429  0.00  0.00    +0.000 F 
ATOM     30  F   UNL     1       3.158   8.895  17.818  0.00  0.00    +0.000 F 
ENDBRANCH   3  27
TORSDOF 6
ENDMDL
MODEL 7
REMARK VINA RESULT:      -6.5      4.934      7.280
REMARK  Name = 
REMARK  7 active torsions:
REMARK  status: ('A' for Active; 'I' for Inactive)
REMARK    1  A    between atoms: C_1  and  S_2
REMARK    2  A    between atoms: S_2  and  C_5
REMARK    3  A    between atoms: C_8  and  N_9
REMARK    4  A    between atoms: C_11  and  C_12
REMARK    5  A    between atoms: C_17  and  C_18
REMARK    6  A    between atoms: C_21  and  N_22
REMARK    7  A    between atoms: N_24  and  O_25
REMARK                            x       y       z     vdW  Elec       q    Type
REMARK                         _______ _______ _______ _____ _____    ______ ____
ROOT
ATOM      1  N   UNL     1       0.210  11.090  19.991  0.00  0.00    +0.000 N 
ATOM      2  N   UNL     1       0.614   9.794  19.941  0.00  0.00    +0.000 NA
ATOM      3  C   UNL     1       1.442   9.725  18.883  0.00  0.00    +0.000 A 
ATOM      4  C   UNL     1       1.714  11.021  18.381  0.00  0.00    +0.000 A 
ATOM      5  C   UNL     1       0.989  11.907  19.158  0.00  0.00    +0.000 A 
ENDROOT
BRANCH   1   9
ATOM      6  C   UNL     1      -2.795  12.494  22.588  0.00  0.00    +0.000 A 
ATOM      7  C   UNL     1      -1.697  11.800  23.109  0.00  0.00    +0.000 A 
ATOM      8  C   UNL     1      -0.732  11.273  22.241  0.00  0.00    +0.000 A 
ATOM      9  C   UNL     1      -0.862  11.458  20.857  0.00  0.00    +0.000 A 
ATOM     10  C   UNL     1      -2.019  12.061  20.342  0.00  0.00    +0.000 A 
ATOM     11  C   UNL     1      -2.978  12.592  21.206  0.00  0.00    +0.000 A 
BRANCH   6  13
ATOM     12  C   UNL     1      -3.189  14.341  24.715  0.00  0.00    +0.000 C 
ATOM     13  S   UNL     1      -4.023  13.177  23.676  0.00  0.00    +0.000 S 
ATOM     14  O   UNL     1      -4.482  12.075  24.503  0.00  0.00    +0.000 OA
ATOM     15  O   UNL     1      -4.952  13.937  22.868  0.00  0.00    +0.000 OA
ENDBRANCH   6  13
ENDBRANCH   1   9
BRANCH   5  16
ATOM     16  C   UNL     1       1.045  13.382  19.174  0.00  0.00    +0.000 A 
ATOM     17  C   UNL     1      -0.002  14.145  18.639  0.00  0.00    +0.000 A 
ATOM     18  C   UNL     1       0.022  15.544  18.714  0.00  0.00    +0.000 A 
ATOM     19  C   UNL     1       1.081  16.214  19.352  0.00  0.00    +0.000 A 
ATOM     20  C   UNL     1       2.123  15.457  19.887  0.00  0.00    +0.000 A 
ATOM     21  C   UNL     1       2.136  14.069  19.728  0.00  0.00    +0.000 A 
BRANCH  19  22
ATOM     22  N   UNL     1       0.980  17.680  19.532  0.00  0.00    +0.000 N 
ATOM     23  O   UNL     1       0.410  18.085  20.605  0.00  0.00    +0.000 OA
ATOM     24  N   UNL     1       1.436  18.551  18.701  0.00  0.00    +0.000 NA
BRANCH  24  25
ATOM     25  O   UNL     1       1.907  18.018  17.497  0.00  0.00    +0.000 OA
ATOM     26  H   UNL     1       2.865  18.193  17.561  0.00  0.00    +0.000 HD
ENDBRANCH  24  25
ENDBRANCH  19  22
ENDBRANCH   5  16
BRANCH   3  27
ATOM     27  C   UNL     1       2.024   8.440  18.357  0.00  0.00    +0.000 C 
ATOM     28  F   UNL     1       1.303   7.883  17.348  0.00  0.00    +0.000 F 
ATOM     29  F   UNL     1       3.284   8.630  17.873  0.00  0.00    +0.000 F 
ATOM     30  F   UNL     1       2.129   7.499  19.333  0.00  0.00    +0.000 F 
ENDBRANCH   3  27
TORSDOF 6
ENDMDL
MODEL 8
REMARK VINA RESULT:      -6.5      4.030      6.416
REMARK  Name = 
REMARK  7 active torsions:
REMARK  status: ('A' for Active; 'I' for Inactive)
REMARK    1  A    between atoms: C_1  and  S_2
REMARK    2  A    between atoms: S_2  and  C_5
REMARK    3  A    between atoms: C_8  and  N_9
REMARK    4  A    between atoms: C_11  and  C_12
REMARK    5  A    between atoms: C_17  and  C_18
REMARK    6  A    between atoms: C_21  and  N_22
REMARK    7  A    between atoms: N_24  and  O_25
REMARK                            x       y       z     vdW  Elec       q    Type
REMARK                         _______ _______ _______ _____ _____    ______ ____
ROOT
ATOM      1  N   UNL     1      -0.023  11.371  19.595  0.00  0.00    +0.000 N 
ATOM      2  N   UNL     1      -1.372  11.211  19.572  0.00  0.00    +0.000 NA
ATOM      3  C   UNL     1      -1.870  12.368  20.046  0.00  0.00    +0.000 A 
ATOM      4  C   UNL     1      -0.842  13.331  20.185  0.00  0.00    +0.000 A 
ATOM      5  C   UNL     1       0.335  12.712  19.804  0.00  0.00    +0.000 A 
ENDROOT
BRANCH   1   9
ATOM      6  C   UNL     1       2.178   7.853  18.870  0.00  0.00    +0.000 A 
ATOM      7  C   UNL     1       1.709   8.125  20.161  0.00  0.00    +0.000 A 
ATOM      8  C   UNL     1       1.038   9.326  20.418  0.00  0.00    +0.000 A 
ATOM      9  C   UNL     1       0.822  10.243  19.378  0.00  0.00    +0.000 A 
ATOM     10  C   UNL     1       1.389  10.008  18.116  0.00  0.00    +0.000 A 
ATOM     11  C   UNL     1       2.053   8.808  17.858  0.00  0.00    +0.000 A 
BRANCH   6  13
ATOM     12  C   UNL     1       4.314   6.713  17.377  0.00  0.00    +0.000 C 
ATOM     13  S   UNL     1       3.024   6.328  18.525  0.00  0.00    +0.000 S 
ATOM     14  O   UNL     1       2.057   5.478  17.855  0.00  0.00    +0.000 OA
ATOM     15  O   UNL     1       3.672   5.900  19.746  0.00  0.00    +0.000 OA
ENDBRANCH   6  13
ENDBRANCH   1   9
BRANCH   5  16
ATOM     16  C   UNL     1       1.669  13.309  19.596  0.00  0.00    +0.000 A 
ATOM     17  C   UNL     1       2.139  13.579  18.304  0.00  0.00    +0.000 A 
ATOM     18  C   UNL     1       3.378  14.206  18.110  0.00  0.00    +0.000 A 
ATOM     19  C   UNL     1       4.163  14.606  19.205  0.00  0.00    +0.000 A 
ATOM     20  C   UNL     1       3.696  14.341  20.493  0.00  0.00    +0.000 A 
ATOM     21  C   UNL     1       2.504  13.635  20.676  0.00  0.00    +0.000 A 
BRANCH  19  22
ATOM     22  N   UNL     1       5.387  15.395  18.943  0.00  0.00    +0.000 N 
ATOM     23  O   UNL     1       6.475  14.733  18.810  0.00  0.00    +0.000 OA
ATOM     24  N   UNL     1       5.419  16.677  18.826  0.00  0.00    +0.000 NA
BRANCH  24  25
ATOM     25  O   UNL     1       4.215  17.320  19.130  0.00  0.00    +0.000 OA
ATOM     26  H   UNL     1       4.302  17.465  20.091  0.00  0.00    +0.000 HD
ENDBRANCH  24  25
ENDBRANCH  19  22
ENDBRANCH   5  16
BRANCH   3  27
ATOM     27  C   UNL     1      -3.331  12.595  20.333  0.00  0.00    +0.000 C 
ATOM     28  F   UNL     1      -4.166  11.950  19.476  0.00  0.00    +0.000 F 
ATOM     29  F   UNL     1      -3.660  12.172  21.586  0.00  0.00    +0.000 F 
ATOM     30  F   UNL     1      -3.654  13.915  20.281  0.00  0.00    +0.000 F 
ENDBRANCH   3  27
TORSDOF 6
ENDMDL
MODEL 9
REMARK VINA RESULT:      -6.4      4.229      6.351
REMARK  Name = 
REMARK  7 active torsions:
REMARK  status: ('A' for Active; 'I' for Inactive)
REMARK    1  A    between atoms: C_1  and  S_2
REMARK    2  A    between atoms: S_2  and  C_5
REMARK    3  A    between atoms: C_8  and  N_9
REMARK    4  A    between atoms: C_11  and  C_12
REMARK    5  A    between atoms: C_17  and  C_18
REMARK    6  A    between atoms: C_21  and  N_22
REMARK    7  A    between atoms: N_24  and  O_25
REMARK                            x       y       z     vdW  Elec       q    Type
REMARK                         _______ _______ _______ _____ _____    ______ ____
ROOT
ATOM      1  N   UNL     1      -0.127  10.492  18.656  0.00  0.00    +0.000 N 
ATOM      2  N   UNL     1      -1.333  10.183  18.111  0.00  0.00    +0.000 NA
ATOM      3  C   UNL     1      -2.115  11.249  18.364  0.00  0.00    +0.000 A 
ATOM      4  C   UNL     1      -1.347  12.312  18.899  0.00  0.00    +0.000 A 
ATOM      5  C   UNL     1      -0.047  11.850  18.999  0.00  0.00    +0.000 A 
ENDROOT
BRANCH   1   9
ATOM      6  C   UNL     1       2.561   7.261  18.933  0.00  0.00    +0.000 A 
ATOM      7  C   UNL     1       1.901   7.714  20.081  0.00  0.00    +0.000 A 
ATOM      8  C   UNL     1       1.061   8.832  20.004  0.00  0.00    +0.000 A 
ATOM      9  C   UNL     1       0.870   9.479  18.774  0.00  0.00    +0.000 A 
ATOM     10  C   UNL     1       1.618   9.081  17.656  0.00  0.00    +0.000 A 
ATOM     11  C   UNL     1       2.451   7.964  17.731  0.00  0.00    +0.000 A 
BRANCH   6  13
ATOM     12  C   UNL     1       3.096   4.738  17.732  0.00  0.00    +0.000 C 
ATOM     13  S   UNL     1       3.624   5.838  19.013  0.00  0.00    +0.000 S 
ATOM     14  O   UNL     1       3.355   5.209  20.293  0.00  0.00    +0.000 OA
ATOM     15  O   UNL     1       4.960   6.269  18.661  0.00  0.00    +0.000 OA
ENDBRANCH   6  13
ENDBRANCH   1   9
BRANCH   5  16
ATOM     16  C   UNL     1       1.179  12.603  19.329  0.00  0.00    +0.000 A 
ATOM     17  C   UNL     1       2.129  12.895  18.341  0.00  0.00    +0.000 A 
ATOM     18  C   UNL     1       3.260  13.666  18.641  0.00  0.00    +0.000 A 
ATOM     19  C   UNL     1       3.453  14.190  19.931  0.00  0.00    +0.000 A 
ATOM     20  C   UNL     1       2.508  13.904  20.917  0.00  0.00    +0.000 A 
ATOM     21  C   UNL     1       1.432  13.060  20.632  0.00  0.00    +0.000 A 
BRANCH  19  22
ATOM     22  N   UNL     1       4.585  15.119  20.151  0.00  0.00    +0.000 N 
ATOM     23  O   UNL     1       4.710  16.074  19.309  0.00  0.00    +0.000 OA
ATOM     24  N   UNL     1       5.420  15.035  21.128  0.00  0.00    +0.000 NA
BRANCH  24  25
ATOM     25  O   UNL     1       5.290  13.881  21.908  0.00  0.00    +0.000 OA
ATOM     26  H   UNL     1       6.023  13.330  21.574  0.00  0.00    +0.000 HD
ENDBRANCH  24  25
ENDBRANCH  19  22
ENDBRANCH   5  16
BRANCH   3  27
ATOM     27  C   UNL     1      -3.589  11.295  18.064  0.00  0.00    +0.000 C 
ATOM     28  F   UNL     1      -4.174  10.070  17.994  0.00  0.00    +0.000 F 
ATOM     29  F   UNL     1      -4.266  11.994  19.019  0.00  0.00    +0.000 F 
ATOM     30  F   UNL     1      -3.843  11.921  16.884  0.00  0.00    +0.000 F 
ENDBRANCH   3  27
TORSDOF 6
ENDMDL
