MODEL 1
REMARK VINA RESULT:      -7.7      0.000      0.000
REMARK  Name = 
REMARK  9 active torsions:
REMARK  status: ('A' for Active; 'I' for Inactive)
REMARK    1  A    between atoms: C_1  and  C_2
REMARK    2  A    between atoms: C_2  and  C_4
REMARK    3  A    between atoms: C_4  and  C_5
REMARK    4  A    between atoms: C_7  and  O_8
REMARK    5  A    between atoms: C_7  and  C_9
REMARK    6  A    between atoms: C_9  and  S_10
REMARK    7  A    between atoms: S_10  and  C_11
REMARK    8  A    between atoms: N_15  and  C_16
REMARK    9  A    between atoms: C_20  and  C_21
REMARK                            x       y       z     vdW  Elec       q    Type
REMARK                         _______ _______ _______ _____ _____    ______ ____
ROOT
ATOM      1  C   UNL     1       6.774   6.237  17.539  0.00  0.00    +0.000 A 
ATOM      2  N   UNL     1       6.741   7.307  16.782  0.00  0.00    +0.000 NA
ATOM      3  N   UNL     1       7.593   8.282  17.237  0.00  0.00    +0.000 NA
ATOM      4  C   UNL     1       8.232   7.952  18.343  0.00  0.00    +0.000 A 
ATOM      5  N   UNL     1       9.088   8.733  19.054  0.00  0.00    +0.000 N 
ATOM      6  S   UNL     1       7.880   6.332  18.845  0.00  0.00    +0.000 S 
ATOM      7  H   UNL     1       9.628   8.299  19.790  0.00  0.00    +0.000 HD
ENDROOT
BRANCH   5   8
ATOM      8  C   UNL     1       9.094  10.147  19.087  0.00  0.00    +0.000 A 
ATOM      9  C   UNL     1       8.946  10.938  17.938  0.00  0.00    +0.000 A 
ATOM     10  C   UNL     1       9.016  12.331  17.995  0.00  0.00    +0.000 A 
ATOM     11  C   UNL     1       9.246  12.968  19.208  0.00  0.00    +0.000 A 
ATOM     12  C   UNL     1       9.403  12.214  20.375  0.00  0.00    +0.000 A 
ATOM     13  C   UNL     1       9.656  12.900  21.685  0.00  0.00    +0.000 C 
ATOM     14  C   UNL     1       9.329  10.810  20.303  0.00  0.00    +0.000 A 
ENDBRANCH   5   8
BRANCH   1  15
ATOM     15  S   UNL     1       5.752   4.850  17.221  0.00  0.00    +0.000 S 
BRANCH  15  16
ATOM     16  C   UNL     1       5.367   4.358  18.933  0.00  0.00    +0.000 C 
BRANCH  16  18
ATOM     17  C   UNL     1       3.556   2.787  19.784  0.00  0.00    +0.000 C 
ATOM     18  C   UNL     1       3.947   3.837  19.023  0.00  0.00    +0.000 C 
BRANCH  17  20
ATOM     19  C   UNL     1       1.266   2.808  21.023  0.00  0.00    +0.000 C 
ATOM     20  C   UNL     1       2.103   2.396  19.828  0.00  0.00    +0.000 C 
ATOM     21  N   UNL     1       1.556   1.716  18.860  0.00  0.00    +0.000 NA
ATOM     22  H   UNL     1       0.560   1.539  19.055  0.00  0.00    +0.000 HD
ENDBRANCH  17  20
BRANCH  17  23
ATOM     23  C   UNL     1       4.492   2.025  20.549  0.00  0.00    +0.000 C 
ATOM     24  N   UNL     1       5.258   1.420  21.174  0.00  0.00    +0.000 NA
ENDBRANCH  17  23
BRANCH  18  25
ATOM     25  O   UNL     1       3.049   4.600  18.282  0.00  0.00    +0.000 OA
ATOM     26  H   UNL     1       3.505   4.894  17.453  0.00  0.00    +0.000 HD
ENDBRANCH  18  25
ENDBRANCH  16  18
ENDBRANCH  15  16
ENDBRANCH   1  15
TORSDOF 7
ENDMDL
MODEL 2
REMARK VINA RESULT:      -7.5      1.421      1.714
REMARK  Name = 
REMARK  9 active torsions:
REMARK  status: ('A' for Active; 'I' for Inactive)
REMARK    1  A    between atoms: C_1  and  C_2
REMARK    2  A    between atoms: C_2  and  C_4
REMARK    3  A    between atoms: C_4  and  C_5
REMARK    4  A    between atoms: C_7  and  O_8
REMARK    5  A    between atoms: C_7  and  C_9
REMARK    6  A    between atoms: C_9  and  S_10
REMARK    7  A    between atoms: S_10  and  C_11
REMARK    8  A    between atoms: N_15  and  C_16
REMARK    9  A    between atoms: C_20  and  C_21
REMARK                            x       y       z     vdW  Elec       q    Type
REMARK                         _______ _______ _______ _____ _____    ______ ____
ROOT
ATOM      1  C   UNL     1       6.698   6.122  17.472  0.00  0.00    +0.000 A 
ATOM      2  N   UNL     1       6.734   7.176  16.692  0.00  0.00    +0.000 NA
ATOM      3  N   UNL     1       7.592   8.135  17.168  0.00  0.00    +0.000 NA
ATOM      4  C   UNL     1       8.167   7.811  18.310  0.00  0.00    +0.000 A 
ATOM      5  N   UNL     1       9.011   8.583  19.045  0.00  0.00    +0.000 N 
ATOM      6  S   UNL     1       7.742   6.214  18.829  0.00  0.00    +0.000 S 
ATOM      7  H   UNL     1       9.502   8.149  19.816  0.00  0.00    +0.000 HD
ENDROOT
BRANCH   5   8
ATOM      8  C   UNL     1       9.059   9.996  19.049  0.00  0.00    +0.000 A 
ATOM      9  C   UNL     1       8.917  10.767  17.887  0.00  0.00    +0.000 A 
ATOM     10  C   UNL     1       9.028  12.159  17.914  0.00  0.00    +0.000 A 
ATOM     11  C   UNL     1       9.294  12.813  19.109  0.00  0.00    +0.000 A 
ATOM     12  C   UNL     1       9.446  12.079  20.290  0.00  0.00    +0.000 A 
ATOM     13  C   UNL     1       9.739  12.783  21.582  0.00  0.00    +0.000 C 
ATOM     14  C   UNL     1       9.331  10.676  20.248  0.00  0.00    +0.000 A 
ENDBRANCH   5   8
BRANCH   1  15
ATOM     15  S   UNL     1       5.650   4.759  17.134  0.00  0.00    +0.000 S 
BRANCH  15  16
ATOM     16  C   UNL     1       5.413   4.130  18.829  0.00  0.00    +0.000 C 
BRANCH  16  18
ATOM     17  C   UNL     1       2.892   4.103  19.161  0.00  0.00    +0.000 C 
ATOM     18  C   UNL     1       4.063   3.455  18.954  0.00  0.00    +0.000 C 
BRANCH  17  20
ATOM     19  C   UNL     1       0.874   3.204  20.539  0.00  0.00    +0.000 C 
ATOM     20  C   UNL     1       1.605   3.322  19.217  0.00  0.00    +0.000 C 
ATOM     21  N   UNL     1       1.112   2.754  18.154  0.00  0.00    +0.000 NA
ATOM     22  H   UNL     1       0.232   2.266  18.374  0.00  0.00    +0.000 HD
ENDBRANCH  17  20
BRANCH  17  23
ATOM     23  C   UNL     1       2.838   5.520  19.337  0.00  0.00    +0.000 C 
ATOM     24  N   UNL     1       2.806   6.668  19.491  0.00  0.00    +0.000 NA
ENDBRANCH  17  23
BRANCH  18  25
ATOM     25  O   UNL     1       4.134   2.077  18.766  0.00  0.00    +0.000 OA
ATOM     26  H   UNL     1       4.322   1.656  19.643  0.00  0.00    +0.000 HD
ENDBRANCH  18  25
ENDBRANCH  16  18
ENDBRANCH  15  16
ENDBRANCH   1  15
TORSDOF 7
ENDMDL
MODEL 3
REMARK VINA RESULT:      -7.5      4.970      7.075
REMARK  Name = 
REMARK  9 active torsions:
REMARK  status: ('A' for Active; 'I' for Inactive)
REMARK    1  A    between atoms: C_1  and  C_2
REMARK    2  A    between atoms: C_2  and  C_4
REMARK    3  A    between atoms: C_4  and  C_5
REMARK    4  A    between atoms: C_7  and  O_8
REMARK    5  A    between atoms: C_7  and  C_9
REMARK    6  A    between atoms: C_9  and  S_10
REMARK    7  A    between atoms: S_10  and  C_11
REMARK    8  A    between atoms: N_15  and  C_16
REMARK    9  A    between atoms: C_20  and  C_21
REMARK                            x       y       z     vdW  Elec       q    Type
REMARK                         _______ _______ _______ _____ _____    ______ ____
ROOT
ATOM      1  C   UNL     1       2.557   4.740  18.904  0.00  0.00    +0.000 A 
ATOM      2  N   UNL     1       2.457   5.814  18.158  0.00  0.00    +0.000 NA
ATOM      3  N   UNL     1       2.178   6.931  18.905  0.00  0.00    +0.000 NA
ATOM      4  C   UNL     1       2.041   6.686  20.193  0.00  0.00    +0.000 A 
ATOM      5  N   UNL     1       1.705   7.579  21.162  0.00  0.00    +0.000 N 
ATOM      6  S   UNL     1       2.354   5.027  20.582  0.00  0.00    +0.000 S 
ATOM      7  H   UNL     1       1.792   7.289  22.127  0.00  0.00    +0.000 HD
ENDROOT
BRANCH   5   8
ATOM      8  C   UNL     1       0.962   8.767  20.978  0.00  0.00    +0.000 A 
ATOM      9  C   UNL     1       0.987   9.507  19.788  0.00  0.00    +0.000 A 
ATOM     10  C   UNL     1       0.288  10.709  19.658  0.00  0.00    +0.000 A 
ATOM     11  C   UNL     1      -0.449  11.205  20.726  0.00  0.00    +0.000 A 
ATOM     12  C   UNL     1      -0.496  10.499  21.931  0.00  0.00    +0.000 A 
ATOM     13  C   UNL     1      -1.287  11.035  23.088  0.00  0.00    +0.000 C 
ATOM     14  C   UNL     1       0.214   9.288  22.048  0.00  0.00    +0.000 A 
ENDBRANCH   5   8
BRANCH   1  15
ATOM     15  S   UNL     1       2.861   3.160  18.211  0.00  0.00    +0.000 S 
BRANCH  15  16
ATOM     16  C   UNL     1       4.284   3.564  17.146  0.00  0.00    +0.000 C 
BRANCH  16  18
ATOM     17  C   UNL     1       5.986   5.372  17.697  0.00  0.00    +0.000 C 
ATOM     18  C   UNL     1       5.396   4.182  17.967  0.00  0.00    +0.000 C 
BRANCH  17  20
ATOM     19  C   UNL     1       7.897   7.076  18.166  0.00  0.00    +0.000 C 
ATOM     20  C   UNL     1       7.049   5.905  18.620  0.00  0.00    +0.000 C 
ATOM     21  N   UNL     1       7.248   5.382  19.797  0.00  0.00    +0.000 NA
ATOM     22  H   UNL     1       8.009   5.870  20.291  0.00  0.00    +0.000 HD
ENDBRANCH  17  20
BRANCH  17  23
ATOM     23  C   UNL     1       5.634   6.140  16.546  0.00  0.00    +0.000 C 
ATOM     24  N   UNL     1       5.346   6.750  15.603  0.00  0.00    +0.000 NA
ENDBRANCH  17  23
BRANCH  18  25
ATOM     25  O   UNL     1       5.716   3.426  19.091  0.00  0.00    +0.000 OA
ATOM     26  H   UNL     1       4.980   2.782  19.250  0.00  0.00    +0.000 HD
ENDBRANCH  18  25
ENDBRANCH  16  18
ENDBRANCH  15  16
ENDBRANCH   1  15
TORSDOF 7
ENDMDL
MODEL 4
REMARK VINA RESULT:      -7.4      5.669      7.285
REMARK  Name = 
REMARK  9 active torsions:
REMARK  status: ('A' for Active; 'I' for Inactive)
REMARK    1  A    between atoms: C_1  and  C_2
REMARK    2  A    between atoms: C_2  and  C_4
REMARK    3  A    between atoms: C_4  and  C_5
REMARK    4  A    between atoms: C_7  and  O_8
REMARK    5  A    between atoms: C_7  and  C_9
REMARK    6  A    between atoms: C_9  and  S_10
REMARK    7  A    between atoms: S_10  and  C_11
REMARK    8  A    between atoms: N_15  and  C_16
REMARK    9  A    between atoms: C_20  and  C_21
REMARK                            x       y       z     vdW  Elec       q    Type
REMARK                         _______ _______ _______ _____ _____    ______ ____
ROOT
ATOM      1  C   UNL     1       2.291   5.947  19.395  0.00  0.00    +0.000 A 
ATOM      2  N   UNL     1       2.544   6.772  18.407  0.00  0.00    +0.000 NA
ATOM      3  N   UNL     1       2.165   8.057  18.704  0.00  0.00    +0.000 NA
ATOM      4  C   UNL     1       1.607   8.183  19.892  0.00  0.00    +0.000 A 
ATOM      5  N   UNL     1       1.082   9.316  20.430  0.00  0.00    +0.000 N 
ATOM      6  S   UNL     1       1.604   6.693  20.777  0.00  0.00    +0.000 S 
ATOM      7  H   UNL     1       0.831   9.305  21.410  0.00  0.00    +0.000 HD
ENDROOT
BRANCH   5   8
ATOM      8  C   UNL     1       0.564  10.417  19.711  0.00  0.00    +0.000 A 
ATOM      9  C   UNL     1       1.182  11.676  19.693  0.00  0.00    +0.000 A 
ATOM     10  C   UNL     1       0.614  12.760  19.021  0.00  0.00    +0.000 A 
ATOM     11  C   UNL     1      -0.596  12.612  18.357  0.00  0.00    +0.000 A 
ATOM     12  C   UNL     1      -1.246  11.374  18.355  0.00  0.00    +0.000 A 
ATOM     13  C   UNL     1      -2.556  11.213  17.642  0.00  0.00    +0.000 C 
ATOM     14  C   UNL     1      -0.662  10.289  19.035  0.00  0.00    +0.000 A 
ENDBRANCH   5   8
BRANCH   1  15
ATOM     15  S   UNL     1       2.627   4.232  19.275  0.00  0.00    +0.000 S 
BRANCH  15  16
ATOM     16  C   UNL     1       3.615   4.223  17.743  0.00  0.00    +0.000 C 
BRANCH  16  18
ATOM     17  C   UNL     1       5.973   5.131  17.452  0.00  0.00    +0.000 C 
ATOM     18  C   UNL     1       5.091   4.308  18.070  0.00  0.00    +0.000 C 
BRANCH  17  20
ATOM     19  C   UNL     1       7.934   6.398  18.602  0.00  0.00    +0.000 C 
ATOM     20  C   UNL     1       7.409   5.161  17.902  0.00  0.00    +0.000 C 
ATOM     21  N   UNL     1       8.202   4.146  17.704  0.00  0.00    +0.000 NA
ATOM     22  H   UNL     1       9.143   4.338  18.076  0.00  0.00    +0.000 HD
ENDBRANCH  17  20
BRANCH  17  23
ATOM     23  C   UNL     1       5.580   5.974  16.368  0.00  0.00    +0.000 C 
ATOM     24  N   UNL     1       5.268   6.648  15.478  0.00  0.00    +0.000 NA
ENDBRANCH  17  23
BRANCH  18  25
ATOM     25  O   UNL     1       5.452   3.490  19.136  0.00  0.00    +0.000 OA
ATOM     26  H   UNL     1       6.437   3.521  19.230  0.00  0.00    +0.000 HD
ENDBRANCH  18  25
ENDBRANCH  16  18
ENDBRANCH  15  16
ENDBRANCH   1  15
TORSDOF 7
ENDMDL
MODEL 5
REMARK VINA RESULT:      -7.3      1.587      1.999
REMARK  Name = 
REMARK  9 active torsions:
REMARK  status: ('A' for Active; 'I' for Inactive)
REMARK    1  A    between atoms: C_1  and  C_2
REMARK    2  A    between atoms: C_2  and  C_4
REMARK    3  A    between atoms: C_4  and  C_5
REMARK    4  A    between atoms: C_7  and  O_8
REMARK    5  A    between atoms: C_7  and  C_9
REMARK    6  A    between atoms: C_9  and  S_10
REMARK    7  A    between atoms: S_10  and  C_11
REMARK    8  A    between atoms: N_15  and  C_16
REMARK    9  A    between atoms: C_20  and  C_21
REMARK                            x       y       z     vdW  Elec       q    Type
REMARK                         _______ _______ _______ _____ _____    ______ ____
ROOT
ATOM      1  C   UNL     1       6.758   5.565  17.114  0.00  0.00    +0.000 A 
ATOM      2  N   UNL     1       7.171   6.463  16.251  0.00  0.00    +0.000 NA
ATOM      3  N   UNL     1       7.910   7.449  16.854  0.00  0.00    +0.000 NA
ATOM      4  C   UNL     1       8.022   7.305  18.160  0.00  0.00    +0.000 A 
ATOM      5  N   UNL     1       8.639   8.153  19.024  0.00  0.00    +0.000 N 
ATOM      6  S   UNL     1       7.278   5.844  18.724  0.00  0.00    +0.000 S 
ATOM      7  H   UNL     1       8.788   7.839  19.975  0.00  0.00    +0.000 HD
ENDROOT
BRANCH   5   8
ATOM      8  C   UNL     1       8.832   9.540  18.836  0.00  0.00    +0.000 A 
ATOM      9  C   UNL     1       8.203  10.267  17.814  0.00  0.00    +0.000 A 
ATOM     10  C   UNL     1       8.460  11.625  17.617  0.00  0.00    +0.000 A 
ATOM     11  C   UNL     1       9.364  12.289  18.436  0.00  0.00    +0.000 A 
ATOM     12  C   UNL     1      10.015  11.599  19.464  0.00  0.00    +0.000 A 
ATOM     13  C   UNL     1      10.995  12.313  20.347  0.00  0.00    +0.000 C 
ATOM     14  C   UNL     1       9.746  10.230  19.651  0.00  0.00    +0.000 A 
ENDBRANCH   5   8
BRANCH   1  15
ATOM     15  S   UNL     1       5.752   4.215  16.631  0.00  0.00    +0.000 S 
BRANCH  15  16
ATOM     16  C   UNL     1       4.182   4.712  17.413  0.00  0.00    +0.000 C 
BRANCH  16  18
ATOM     17  C   UNL     1       3.100   4.108  19.634  0.00  0.00    +0.000 C 
ATOM     18  C   UNL     1       3.842   3.772  18.551  0.00  0.00    +0.000 C 
BRANCH  17  20
ATOM     19  C   UNL     1       1.350   2.874  21.115  0.00  0.00    +0.000 C 
ATOM     20  C   UNL     1       2.787   3.068  20.677  0.00  0.00    +0.000 C 
ATOM     21  N   UNL     1       3.727   2.334  21.203  0.00  0.00    +0.000 NA
ATOM     22  H   UNL     1       3.335   1.678  21.895  0.00  0.00    +0.000 HD
ENDBRANCH  17  20
BRANCH  17  23
ATOM     23  C   UNL     1       2.605   5.434  19.824  0.00  0.00    +0.000 C 
ATOM     24  N   UNL     1       2.199   6.507  19.992  0.00  0.00    +0.000 NA
ENDBRANCH  17  23
BRANCH  18  25
ATOM     25  O   UNL     1       4.321   2.482  18.342  0.00  0.00    +0.000 OA
ATOM     26  H   UNL     1       4.681   2.144  19.200  0.00  0.00    +0.000 HD
ENDBRANCH  18  25
ENDBRANCH  16  18
ENDBRANCH  15  16
ENDBRANCH   1  15
TORSDOF 7
ENDMDL
MODEL 6
REMARK VINA RESULT:      -7.2      1.151      1.248
REMARK  Name = 
REMARK  9 active torsions:
REMARK  status: ('A' for Active; 'I' for Inactive)
REMARK    1  A    between atoms: C_1  and  C_2
REMARK    2  A    between atoms: C_2  and  C_4
REMARK    3  A    between atoms: C_4  and  C_5
REMARK    4  A    between atoms: C_7  and  O_8
REMARK    5  A    between atoms: C_7  and  C_9
REMARK    6  A    between atoms: C_9  and  S_10
REMARK    7  A    between atoms: S_10  and  C_11
REMARK    8  A    between atoms: N_15  and  C_16
REMARK    9  A    between atoms: C_20  and  C_21
REMARK                            x       y       z     vdW  Elec       q    Type
REMARK                         _______ _______ _______ _____ _____    ______ ____
ROOT
ATOM      1  C   UNL     1       6.426   6.493  17.431  0.00  0.00    +0.000 A 
ATOM      2  N   UNL     1       6.449   7.619  16.758  0.00  0.00    +0.000 NA
ATOM      3  N   UNL     1       7.416   8.473  17.225  0.00  0.00    +0.000 NA
ATOM      4  C   UNL     1       8.087   8.001  18.257  0.00  0.00    +0.000 A 
ATOM      5  N   UNL     1       9.055   8.642  18.964  0.00  0.00    +0.000 N 
ATOM      6  S   UNL     1       7.613   6.384  18.662  0.00  0.00    +0.000 S 
ATOM      7  H   UNL     1       9.595   8.104  19.628  0.00  0.00    +0.000 HD
ENDROOT
BRANCH   5   8
ATOM      8  C   UNL     1       9.198  10.042  19.100  0.00  0.00    +0.000 A 
ATOM      9  C   UNL     1       9.410  10.897  18.009  0.00  0.00    +0.000 A 
ATOM     10  C   UNL     1       9.607  12.269  18.182  0.00  0.00    +0.000 A 
ATOM     11  C   UNL     1       9.604  12.818  19.458  0.00  0.00    +0.000 A 
ATOM     12  C   UNL     1       9.400  11.997  20.572  0.00  0.00    +0.000 A 
ATOM     13  C   UNL     1       9.402  12.587  21.951  0.00  0.00    +0.000 C 
ATOM     14  C   UNL     1       9.202  10.616  20.382  0.00  0.00    +0.000 A 
ENDBRANCH   5   8
BRANCH   1  15
ATOM     15  S   UNL     1       5.258   5.234  17.082  0.00  0.00    +0.000 S 
BRANCH  15  16
ATOM     16  C   UNL     1       5.455   4.214  18.580  0.00  0.00    +0.000 C 
BRANCH  16  18
ATOM     17  C   UNL     1       3.379   3.266  19.703  0.00  0.00    +0.000 C 
ATOM     18  C   UNL     1       4.212   4.302  19.441  0.00  0.00    +0.000 C 
BRANCH  17  20
ATOM     19  C   UNL     1       0.903   3.997  20.040  0.00  0.00    +0.000 C 
ATOM     20  C   UNL     1       2.200   3.468  20.618  0.00  0.00    +0.000 C 
ATOM     21  N   UNL     1       2.276   3.193  21.889  0.00  0.00    +0.000 NA
ATOM     22  H   UNL     1       1.380   3.389  22.360  0.00  0.00    +0.000 HD
ENDBRANCH  17  20
BRANCH  17  23
ATOM     23  C   UNL     1       3.581   1.976  19.125  0.00  0.00    +0.000 C 
ATOM     24  N   UNL     1       3.761   0.931  18.657  0.00  0.00    +0.000 NA
ENDBRANCH  17  23
BRANCH  18  25
ATOM     25  O   UNL     1       4.040   5.563  20.006  0.00  0.00    +0.000 OA
ATOM     26  H   UNL     1       4.903   6.045  19.954  0.00  0.00    +0.000 HD
ENDBRANCH  18  25
ENDBRANCH  16  18
ENDBRANCH  15  16
ENDBRANCH   1  15
TORSDOF 7
ENDMDL
MODEL 7
REMARK VINA RESULT:      -7.2      1.538      1.720
REMARK  Name = 
REMARK  9 active torsions:
REMARK  status: ('A' for Active; 'I' for Inactive)
REMARK    1  A    between atoms: C_1  and  C_2
REMARK    2  A    between atoms: C_2  and  C_4
REMARK    3  A    between atoms: C_4  and  C_5
REMARK    4  A    between atoms: C_7  and  O_8
REMARK    5  A    between atoms: C_7  and  C_9
REMARK    6  A    between atoms: C_9  and  S_10
REMARK    7  A    between atoms: S_10  and  C_11
REMARK    8  A    between atoms: N_15  and  C_16
REMARK    9  A    between atoms: C_20  and  C_21
REMARK                            x       y       z     vdW  Elec       q    Type
REMARK                         _______ _______ _______ _____ _____    ______ ____
ROOT
ATOM      1  C   UNL     1       6.585   6.104  17.686  0.00  0.00    +0.000 A 
ATOM      2  N   UNL     1       6.490   7.179  16.940  0.00  0.00    +0.000 NA
ATOM      3  N   UNL     1       7.389   8.144  17.317  0.00  0.00    +0.000 NA
ATOM      4  C   UNL     1       8.127   7.803  18.355  0.00  0.00    +0.000 A 
ATOM      5  N   UNL     1       9.054   8.573  18.986  0.00  0.00    +0.000 N 
ATOM      6  S   UNL     1       7.811   6.183  18.882  0.00  0.00    +0.000 S 
ATOM      7  H   UNL     1       9.658   8.131  19.665  0.00  0.00    +0.000 HD
ENDROOT
BRANCH   5   8
ATOM      8  C   UNL     1       9.075   9.986  19.024  0.00  0.00    +0.000 A 
ATOM      9  C   UNL     1       8.950  10.783  17.877  0.00  0.00    +0.000 A 
ATOM     10  C   UNL     1       9.035  12.176  17.941  0.00  0.00    +0.000 A 
ATOM     11  C   UNL     1       9.257  12.805  19.159  0.00  0.00    +0.000 A 
ATOM     12  C   UNL     1       9.391  12.045  20.325  0.00  0.00    +0.000 A 
ATOM     13  C   UNL     1       9.636  12.723  21.641  0.00  0.00    +0.000 C 
ATOM     14  C   UNL     1       9.303  10.642  20.246  0.00  0.00    +0.000 A 
ENDBRANCH   5   8
BRANCH   1  15
ATOM     15  S   UNL     1       5.525   4.727  17.460  0.00  0.00    +0.000 S 
BRANCH  15  16
ATOM     16  C   UNL     1       3.911   5.569  17.548  0.00  0.00    +0.000 C 
BRANCH  16  18
ATOM     17  C   UNL     1       2.524   3.991  18.982  0.00  0.00    +0.000 C 
ATOM     18  C   UNL     1       3.177   5.166  18.810  0.00  0.00    +0.000 C 
BRANCH  17  20
ATOM     19  C   UNL     1       2.611   2.815  21.303  0.00  0.00    +0.000 C 
ATOM     20  C   UNL     1       1.873   3.684  20.305  0.00  0.00    +0.000 C 
ATOM     21  N   UNL     1       0.695   4.155  20.604  0.00  0.00    +0.000 NA
ATOM     22  H   UNL     1       0.407   3.847  21.544  0.00  0.00    +0.000 HD
ENDBRANCH  17  20
BRANCH  17  23
ATOM     23  C   UNL     1       2.425   3.027  17.933  0.00  0.00    +0.000 C 
ATOM     24  N   UNL     1       2.358   2.250  17.075  0.00  0.00    +0.000 NA
ENDBRANCH  17  23
BRANCH  18  25
ATOM     25  O   UNL     1       3.296   6.112  19.824  0.00  0.00    +0.000 OA
ATOM     26  H   UNL     1       3.577   5.644  20.651  0.00  0.00    +0.000 HD
ENDBRANCH  18  25
ENDBRANCH  16  18
ENDBRANCH  15  16
ENDBRANCH   1  15
TORSDOF 7
ENDMDL
MODEL 8
REMARK VINA RESULT:      -7.1      6.584      8.643
REMARK  Name = 
REMARK  9 active torsions:
REMARK  status: ('A' for Active; 'I' for Inactive)
REMARK    1  A    between atoms: C_1  and  C_2
REMARK    2  A    between atoms: C_2  and  C_4
REMARK    3  A    between atoms: C_4  and  C_5
REMARK    4  A    between atoms: C_7  and  O_8
REMARK    5  A    between atoms: C_7  and  C_9
REMARK    6  A    between atoms: C_9  and  S_10
REMARK    7  A    between atoms: S_10  and  C_11
REMARK    8  A    between atoms: N_15  and  C_16
REMARK    9  A    between atoms: C_20  and  C_21
REMARK                            x       y       z     vdW  Elec       q    Type
REMARK                         _______ _______ _______ _____ _____    ______ ____
ROOT
ATOM      1  C   UNL     1       1.608   8.145  19.877  0.00  0.00    +0.000 A 
ATOM      2  N   UNL     1       2.200   8.362  18.727  0.00  0.00    +0.000 NA
ATOM      3  N   UNL     1       2.971   7.295  18.338  0.00  0.00    +0.000 NA
ATOM      4  C   UNL     1       2.977   6.303  19.207  0.00  0.00    +0.000 A 
ATOM      5  N   UNL     1       3.693   5.150  19.122  0.00  0.00    +0.000 N 
ATOM      6  S   UNL     1       1.923   6.600  20.549  0.00  0.00    +0.000 S 
ATOM      7  H   UNL     1       3.480   4.409  19.777  0.00  0.00    +0.000 HD
ENDROOT
BRANCH   5   8
ATOM      8  C   UNL     1       4.906   4.972  18.419  0.00  0.00    +0.000 A 
ATOM      9  C   UNL     1       6.159   5.280  18.969  0.00  0.00    +0.000 A 
ATOM     10  C   UNL     1       7.335   5.149  18.228  0.00  0.00    +0.000 A 
ATOM     11  C   UNL     1       7.284   4.713  16.910  0.00  0.00    +0.000 A 
ATOM     12  C   UNL     1       6.054   4.400  16.325  0.00  0.00    +0.000 A 
ATOM     13  C   UNL     1       5.995   3.934  14.900  0.00  0.00    +0.000 C 
ATOM     14  C   UNL     1       4.876   4.536  17.084  0.00  0.00    +0.000 A 
ENDBRANCH   5   8
BRANCH   1  15
ATOM     15  S   UNL     1       0.598   9.357  20.639  0.00  0.00    +0.000 S 
BRANCH  15  16
ATOM     16  C   UNL     1       0.772  10.705  19.424  0.00  0.00    +0.000 C 
BRANCH  16  18
ATOM     17  C   UNL     1      -1.460  11.572  18.566  0.00  0.00    +0.000 C 
ATOM     18  C   UNL     1      -0.412  10.717  18.480  0.00  0.00    +0.000 C 
BRANCH  17  20
ATOM     19  C   UNL     1      -3.995  11.420  17.997  0.00  0.00    +0.000 C 
ATOM     20  C   UNL     1      -2.555  11.517  17.535  0.00  0.00    +0.000 C 
ATOM     21  N   UNL     1      -2.287  11.557  16.261  0.00  0.00    +0.000 NA
ATOM     22  H   UNL     1      -3.153  11.511  15.703  0.00  0.00    +0.000 HD
ENDBRANCH  17  20
BRANCH  17  23
ATOM     23  C   UNL     1      -1.562  12.529  19.622  0.00  0.00    +0.000 C 
ATOM     24  N   UNL     1      -1.659  13.312  20.471  0.00  0.00    +0.000 NA
ENDBRANCH  17  23
BRANCH  18  25
ATOM     25  O   UNL     1      -0.287   9.786  17.452  0.00  0.00    +0.000 OA
ATOM     26  H   UNL     1       0.423  10.099  16.837  0.00  0.00    +0.000 HD
ENDBRANCH  18  25
ENDBRANCH  16  18
ENDBRANCH  15  16
ENDBRANCH   1  15
TORSDOF 7
ENDMDL
MODEL 9
REMARK VINA RESULT:      -7.1      1.760      2.652
REMARK  Name = 
REMARK  9 active torsions:
REMARK  status: ('A' for Active; 'I' for Inactive)
REMARK    1  A    between atoms: C_1  and  C_2
REMARK    2  A    between atoms: C_2  and  C_4
REMARK    3  A    between atoms: C_4  and  C_5
REMARK    4  A    between atoms: C_7  and  O_8
REMARK    5  A    between atoms: C_7  and  C_9
REMARK    6  A    between atoms: C_9  and  S_10
REMARK    7  A    between atoms: S_10  and  C_11
REMARK    8  A    between atoms: N_15  and  C_16
REMARK    9  A    between atoms: C_20  and  C_21
REMARK                            x       y       z     vdW  Elec       q    Type
REMARK                         _______ _______ _______ _____ _____    ______ ____
ROOT
ATOM      1  C   UNL     1       7.433   6.562  17.584  0.00  0.00    +0.000 A 
ATOM      2  N   UNL     1       8.252   6.624  18.607  0.00  0.00    +0.000 NA
ATOM      3  N   UNL     1       8.579   7.919  18.923  0.00  0.00    +0.000 NA
ATOM      4  C   UNL     1       8.033   8.813  18.122  0.00  0.00    +0.000 A 
ATOM      5  N   UNL     1       8.224  10.159  18.152  0.00  0.00    +0.000 N 
ATOM      6  S   UNL     1       6.974   8.090  16.957  0.00  0.00    +0.000 S 
ATOM      7  H   UNL     1       7.620  10.738  17.584  0.00  0.00    +0.000 HD
ENDROOT
BRANCH   5   8
ATOM      8  C   UNL     1       9.363  10.828  18.655  0.00  0.00    +0.000 A 
ATOM      9  C   UNL     1       9.643  10.936  20.024  0.00  0.00    +0.000 A 
ATOM     10  C   UNL     1      10.745  11.654  20.492  0.00  0.00    +0.000 A 
ATOM     11  C   UNL     1      11.592  12.292  19.595  0.00  0.00    +0.000 A 
ATOM     12  C   UNL     1      11.345  12.212  18.221  0.00  0.00    +0.000 A 
ATOM     13  C   UNL     1      12.255  12.905  17.250  0.00  0.00    +0.000 C 
ATOM     14  C   UNL     1      10.230  11.484  17.764  0.00  0.00    +0.000 A 
ENDBRANCH   5   8
BRANCH   1  15
ATOM     15  S   UNL     1       6.885   5.031  16.932  0.00  0.00    +0.000 S 
BRANCH  15  16
ATOM     16  C   UNL     1       5.160   5.051  17.519  0.00  0.00    +0.000 C 
BRANCH  16  18
ATOM     17  C   UNL     1       4.090   3.253  18.965  0.00  0.00    +0.000 C 
ATOM     18  C   UNL     1       5.024   4.216  18.775  0.00  0.00    +0.000 C 
BRANCH  17  20
ATOM     19  C   UNL     1       2.905   2.570  21.181  0.00  0.00    +0.000 C 
ATOM     20  C   UNL     1       4.089   2.454  20.242  0.00  0.00    +0.000 C 
ATOM     21  N   UNL     1       5.082   1.667  20.548  0.00  0.00    +0.000 NA
ATOM     22  H   UNL     1       4.913   1.201  21.452  0.00  0.00    +0.000 HD
ENDBRANCH  17  20
BRANCH  17  23
ATOM     23  C   UNL     1       3.090   2.973  17.985  0.00  0.00    +0.000 C 
ATOM     24  N   UNL     1       2.267   2.752  17.199  0.00  0.00    +0.000 NA
ENDBRANCH  17  23
BRANCH  18  25
ATOM     25  O   UNL     1       6.015   4.494  19.713  0.00  0.00    +0.000 OA
ATOM     26  H   UNL     1       5.723   4.132  20.587  0.00  0.00    +0.000 HD
ENDBRANCH  18  25
ENDBRANCH  16  18
ENDBRANCH  15  16
ENDBRANCH   1  15
TORSDOF 7
ENDMDL
