MODEL 1
REMARK VINA RESULT:      -6.6      0.000      0.000
REMARK  Name = 
REMARK  7 active torsions:
REMARK  status: ('A' for Active; 'I' for Inactive)
REMARK    1  A    between atoms: C_1  and  S_2
REMARK    2  A    between atoms: S_2  and  C_3
REMARK    3  A    between atoms: C_3  and  C_4
REMARK    4  A    between atoms: N_6  and  C_7
REMARK    5  A    between atoms: N_11  and  C_12
REMARK    6  A    between atoms: C_12  and  C_13
REMARK    7  A    between atoms: C_13  and  C_14
REMARK                            x       y       z     vdW  Elec       q    Type
REMARK                         _______ _______ _______ _____ _____    ______ ____
ROOT
ATOM      1  C   UNL     1       7.165   5.586  16.397  0.00  0.00    +0.000 C 
ATOM      2  C   UNL     1       7.360   4.645  17.586  0.00  0.00    +0.000 C 
ATOM      3  C   UNL     1       6.026   4.697  18.294  0.00  0.00    +0.000 C 
ATOM      4  O   UNL     1       5.683   3.958  19.200  0.00  0.00    +0.000 OA
ATOM      5  N   UNL     1       5.299   5.766  17.779  0.00  0.00    +0.000 N 
ATOM      6  C   UNL     1       6.120   6.573  16.905  0.00  0.00    +0.000 C 
ENDROOT
BRANCH   1   9
ATOM      7  C   UNL     1       7.358   4.986  14.003  0.00  0.00    +0.000 C 
ATOM      8  O   UNL     1       8.342   5.709  13.849  0.00  0.00    +0.000 OA
ATOM      9  N   UNL     1       6.702   4.869  15.210  0.00  0.00    +0.000 N 
ATOM     10  H   UNL     1       5.949   4.192  15.307  0.00  0.00    +0.000 HD
BRANCH   7  11
ATOM     11  C   UNL     1       6.759   4.182  12.865  0.00  0.00    +0.000 C 
BRANCH  11  13
ATOM     12  C   UNL     1       4.469   3.232  11.624  0.00  0.00    +0.000 C 
ATOM     13  S   UNL     1       5.087   3.597  13.291  0.00  0.00    +0.000 S 
ENDBRANCH  11  13
ENDBRANCH   7  11
ENDBRANCH   1   9
BRANCH   5  14
ATOM     14  C   UNL     1       4.106   6.281  18.436  0.00  0.00    +0.000 C 
BRANCH  14  15
ATOM     15  C   UNL     1       2.786   5.815  17.807  0.00  0.00    +0.000 C 
BRANCH  15  16
ATOM     16  C   UNL     1       2.241   4.494  18.309  0.00  0.00    +0.000 A 
ATOM     17  C   UNL     1       2.464   3.284  17.637  0.00  0.00    +0.000 A 
ATOM     18  C   UNL     1       1.956   2.086  18.140  0.00  0.00    +0.000 A 
ATOM     19  C   UNL     1       1.231   2.077  19.328  0.00  0.00    +0.000 A 
ATOM     20  C   UNL     1       1.017   3.267  20.018  0.00  0.00    +0.000 A 
ATOM     21  C   UNL     1       1.523   4.467  19.515  0.00  0.00    +0.000 A 
ENDBRANCH  15  16
ENDBRANCH  14  15
ENDBRANCH   5  14
TORSDOF 6
ENDMDL
MODEL 2
REMARK VINA RESULT:      -6.5      1.065      1.493
REMARK  Name = 
REMARK  7 active torsions:
REMARK  status: ('A' for Active; 'I' for Inactive)
REMARK    1  A    between atoms: C_1  and  S_2
REMARK    2  A    between atoms: S_2  and  C_3
REMARK    3  A    between atoms: C_3  and  C_4
REMARK    4  A    between atoms: N_6  and  C_7
REMARK    5  A    between atoms: N_11  and  C_12
REMARK    6  A    between atoms: C_12  and  C_13
REMARK    7  A    between atoms: C_13  and  C_14
REMARK                            x       y       z     vdW  Elec       q    Type
REMARK                         _______ _______ _______ _____ _____    ______ ____
ROOT
ATOM      1  C   UNL     1       6.580   5.819  16.607  0.00  0.00    +0.000 C 
ATOM      2  C   UNL     1       6.860   5.181  17.968  0.00  0.00    +0.000 C 
ATOM      3  C   UNL     1       5.557   5.361  18.712  0.00  0.00    +0.000 C 
ATOM      4  O   UNL     1       5.281   4.843  19.780  0.00  0.00    +0.000 OA
ATOM      5  N   UNL     1       4.770   6.265  18.004  0.00  0.00    +0.000 N 
ATOM      6  C   UNL     1       5.522   6.869  16.928  0.00  0.00    +0.000 C 
ENDROOT
BRANCH   1   9
ATOM      7  C   UNL     1       6.694   4.685  14.410  0.00  0.00    +0.000 C 
ATOM      8  O   UNL     1       7.646   5.373  14.046  0.00  0.00    +0.000 OA
ATOM      9  N   UNL     1       6.092   4.836  15.640  0.00  0.00    +0.000 N 
ATOM     10  H   UNL     1       5.365   4.184  15.927  0.00  0.00    +0.000 HD
BRANCH   7  11
ATOM     11  C   UNL     1       6.074   3.626  13.517  0.00  0.00    +0.000 C 
BRANCH  11  13
ATOM     12  C   UNL     1       6.344   1.929  11.341  0.00  0.00    +0.000 C 
ATOM     13  S   UNL     1       6.923   3.553  11.907  0.00  0.00    +0.000 S 
ENDBRANCH  11  13
ENDBRANCH   7  11
ENDBRANCH   1   9
BRANCH   5  14
ATOM     14  C   UNL     1       3.588   6.887  18.585  0.00  0.00    +0.000 C 
BRANCH  14  15
ATOM     15  C   UNL     1       2.260   6.262  18.139  0.00  0.00    +0.000 C 
BRANCH  15  16
ATOM     16  C   UNL     1       1.902   4.936  18.777  0.00  0.00    +0.000 A 
ATOM     17  C   UNL     1       1.615   4.812  20.143  0.00  0.00    +0.000 A 
ATOM     18  C   UNL     1       1.274   3.575  20.691  0.00  0.00    +0.000 A 
ATOM     19  C   UNL     1       1.202   2.446  19.879  0.00  0.00    +0.000 A 
ATOM     20  C   UNL     1       1.464   2.556  18.515  0.00  0.00    +0.000 A 
ATOM     21  C   UNL     1       1.807   3.793  17.968  0.00  0.00    +0.000 A 
ENDBRANCH  15  16
ENDBRANCH  14  15
ENDBRANCH   5  14
TORSDOF 6
ENDMDL
MODEL 3
REMARK VINA RESULT:      -6.5      3.035      4.373
REMARK  Name = 
REMARK  7 active torsions:
REMARK  status: ('A' for Active; 'I' for Inactive)
REMARK    1  A    between atoms: C_1  and  S_2
REMARK    2  A    between atoms: S_2  and  C_3
REMARK    3  A    between atoms: C_3  and  C_4
REMARK    4  A    between atoms: N_6  and  C_7
REMARK    5  A    between atoms: N_11  and  C_12
REMARK    6  A    between atoms: C_12  and  C_13
REMARK    7  A    between atoms: C_13  and  C_14
REMARK                            x       y       z     vdW  Elec       q    Type
REMARK                         _______ _______ _______ _____ _____    ______ ____
ROOT
ATOM      1  C   UNL     1       7.401   5.258  16.741  0.00  0.00    +0.000 C 
ATOM      2  C   UNL     1       7.289   4.714  15.317  0.00  0.00    +0.000 C 
ATOM      3  C   UNL     1       5.801   4.529  15.130  0.00  0.00    +0.000 C 
ATOM      4  O   UNL     1       5.253   4.277  14.072  0.00  0.00    +0.000 OA
ATOM      5  N   UNL     1       5.188   4.629  16.376  0.00  0.00    +0.000 N 
ATOM      6  C   UNL     1       6.174   4.673  17.432  0.00  0.00    +0.000 C 
ENDROOT
BRANCH   1   9
ATOM      7  C   UNL     1       7.863   7.421  17.853  0.00  0.00    +0.000 C 
ATOM      8  O   UNL     1       8.291   6.868  18.865  0.00  0.00    +0.000 OA
ATOM      9  N   UNL     1       7.391   6.720  16.764  0.00  0.00    +0.000 N 
ATOM     10  H   UNL     1       7.130   7.223  15.919  0.00  0.00    +0.000 HD
BRANCH   7  11
ATOM     11  C   UNL     1       7.786   8.931  17.728  0.00  0.00    +0.000 C 
BRANCH  11  13
ATOM     12  C   UNL     1       9.022  11.386  18.091  0.00  0.00    +0.000 C 
ATOM     13  S   UNL     1       8.972   9.738  18.850  0.00  0.00    +0.000 S 
ENDBRANCH  11  13
ENDBRANCH   7  11
ENDBRANCH   1   9
BRANCH   5  14
ATOM     14  C   UNL     1       3.813   4.208  16.599  0.00  0.00    +0.000 C 
BRANCH  14  15
ATOM     15  C   UNL     1       3.061   5.034  17.651  0.00  0.00    +0.000 C 
BRANCH  15  16
ATOM     16  C   UNL     1       2.439   4.254  18.790  0.00  0.00    +0.000 A 
ATOM     17  C   UNL     1       2.456   2.854  18.839  0.00  0.00    +0.000 A 
ATOM     18  C   UNL     1       1.884   2.171  19.913  0.00  0.00    +0.000 A 
ATOM     19  C   UNL     1       1.302   2.878  20.962  0.00  0.00    +0.000 A 
ATOM     20  C   UNL     1       1.296   4.271  20.938  0.00  0.00    +0.000 A 
ATOM     21  C   UNL     1       1.865   4.954  19.863  0.00  0.00    +0.000 A 
ENDBRANCH  15  16
ENDBRANCH  14  15
ENDBRANCH   5  14
TORSDOF 6
ENDMDL
MODEL 4
REMARK VINA RESULT:      -6.3      2.626      4.681
REMARK  Name = 
REMARK  7 active torsions:
REMARK  status: ('A' for Active; 'I' for Inactive)
REMARK    1  A    between atoms: C_1  and  S_2
REMARK    2  A    between atoms: S_2  and  C_3
REMARK    3  A    between atoms: C_3  and  C_4
REMARK    4  A    between atoms: N_6  and  C_7
REMARK    5  A    between atoms: N_11  and  C_12
REMARK    6  A    between atoms: C_12  and  C_13
REMARK    7  A    between atoms: C_13  and  C_14
REMARK                            x       y       z     vdW  Elec       q    Type
REMARK                         _______ _______ _______ _____ _____    ______ ____
ROOT
ATOM      1  C   UNL     1       4.394   2.987  18.612  0.00  0.00    +0.000 C 
ATOM      2  C   UNL     1       3.195   2.208  18.070  0.00  0.00    +0.000 C 
ATOM      3  C   UNL     1       2.015   3.067  18.461  0.00  0.00    +0.000 C 
ATOM      4  O   UNL     1       0.871   2.907  18.074  0.00  0.00    +0.000 OA
ATOM      5  N   UNL     1       2.451   4.016  19.382  0.00  0.00    +0.000 N 
ATOM      6  C   UNL     1       3.808   3.742  19.800  0.00  0.00    +0.000 C 
ENDROOT
BRANCH   1   9
ATOM      7  C   UNL     1       6.170   4.501  17.789  0.00  0.00    +0.000 C 
ATOM      8  O   UNL     1       6.852   4.334  18.799  0.00  0.00    +0.000 OA
ATOM      9  N   UNL     1       4.945   3.897  17.609  0.00  0.00    +0.000 N 
ATOM     10  H   UNL     1       4.461   3.999  16.720  0.00  0.00    +0.000 HD
BRANCH   7  11
ATOM     11  C   UNL     1       6.606   5.419  16.662  0.00  0.00    +0.000 C 
BRANCH  11  13
ATOM     12  C   UNL     1       6.564   4.363  14.099  0.00  0.00    +0.000 C 
ATOM     13  S   UNL     1       5.484   5.277  15.235  0.00  0.00    +0.000 S 
ENDBRANCH  11  13
ENDBRANCH   7  11
ENDBRANCH   1   9
BRANCH   5  14
ATOM     14  C   UNL     1       1.524   4.803  20.183  0.00  0.00    +0.000 C 
BRANCH  14  15
ATOM     15  C   UNL     1       2.106   6.121  20.711  0.00  0.00    +0.000 C 
BRANCH  15  16
ATOM     16  C   UNL     1       1.928   7.331  19.819  0.00  0.00    +0.000 A 
ATOM     17  C   UNL     1       1.234   8.476  20.236  0.00  0.00    +0.000 A 
ATOM     18  C   UNL     1       1.104   9.578  19.390  0.00  0.00    +0.000 A 
ATOM     19  C   UNL     1       1.677   9.558  18.121  0.00  0.00    +0.000 A 
ATOM     20  C   UNL     1       2.387   8.436  17.700  0.00  0.00    +0.000 A 
ATOM     21  C   UNL     1       2.516   7.333  18.545  0.00  0.00    +0.000 A 
ENDBRANCH  15  16
ENDBRANCH  14  15
ENDBRANCH   5  14
TORSDOF 6
ENDMDL
MODEL 5
REMARK VINA RESULT:      -6.3      3.400      4.636
REMARK  Name = 
REMARK  7 active torsions:
REMARK  status: ('A' for Active; 'I' for Inactive)
REMARK    1  A    between atoms: C_1  and  S_2
REMARK    2  A    between atoms: S_2  and  C_3
REMARK    3  A    between atoms: C_3  and  C_4
REMARK    4  A    between atoms: N_6  and  C_7
REMARK    5  A    between atoms: N_11  and  C_12
REMARK    6  A    between atoms: C_12  and  C_13
REMARK    7  A    between atoms: C_13  and  C_14
REMARK                            x       y       z     vdW  Elec       q    Type
REMARK                         _______ _______ _______ _____ _____    ______ ____
ROOT
ATOM      1  C   UNL     1       7.263   5.993  17.399  0.00  0.00    +0.000 C 
ATOM      2  C   UNL     1       7.118   5.265  16.062  0.00  0.00    +0.000 C 
ATOM      3  C   UNL     1       5.622   5.192  15.865  0.00  0.00    +0.000 C 
ATOM      4  O   UNL     1       5.066   4.843  14.838  0.00  0.00    +0.000 OA
ATOM      5  N   UNL     1       5.005   5.522  17.068  0.00  0.00    +0.000 N 
ATOM      6  C   UNL     1       5.977   5.626  18.133  0.00  0.00    +0.000 C 
ENDROOT
BRANCH   1   9
ATOM      7  C   UNL     1       8.146   8.203  18.078  0.00  0.00    +0.000 C 
ATOM      8  O   UNL     1       8.730   7.728  19.051  0.00  0.00    +0.000 OA
ATOM      9  N   UNL     1       7.390   7.438  17.217  0.00  0.00    +0.000 N 
ATOM     10  H   UNL     1       7.000   7.864  16.379  0.00  0.00    +0.000 HD
BRANCH   7  11
ATOM     11  C   UNL     1       8.181   9.686  17.760  0.00  0.00    +0.000 C 
BRANCH  11  13
ATOM     12  C   UNL     1      10.372  11.383  17.809  0.00  0.00    +0.000 C 
ATOM     13  S   UNL     1       9.217  10.585  18.958  0.00  0.00    +0.000 S 
ENDBRANCH  11  13
ENDBRANCH   7  11
ENDBRANCH   1   9
BRANCH   5  14
ATOM     14  C   UNL     1       3.593   5.265  17.313  0.00  0.00    +0.000 C 
BRANCH  14  15
ATOM     15  C   UNL     1       3.255   3.791  17.572  0.00  0.00    +0.000 C 
BRANCH  15  16
ATOM     16  C   UNL     1       2.699   3.467  18.943  0.00  0.00    +0.000 A 
ATOM     17  C   UNL     1       3.498   2.966  19.979  0.00  0.00    +0.000 A 
ATOM     18  C   UNL     1       2.951   2.694  21.234  0.00  0.00    +0.000 A 
ATOM     19  C   UNL     1       1.600   2.932  21.475  0.00  0.00    +0.000 A 
ATOM     20  C   UNL     1       0.797   3.449  20.461  0.00  0.00    +0.000 A 
ATOM     21  C   UNL     1       1.344   3.719  19.206  0.00  0.00    +0.000 A 
ENDBRANCH  15  16
ENDBRANCH  14  15
ENDBRANCH   5  14
TORSDOF 6
ENDMDL
MODEL 6
REMARK VINA RESULT:      -6.3      1.860      2.210
REMARK  Name = 
REMARK  7 active torsions:
REMARK  status: ('A' for Active; 'I' for Inactive)
REMARK    1  A    between atoms: C_1  and  S_2
REMARK    2  A    between atoms: S_2  and  C_3
REMARK    3  A    between atoms: C_3  and  C_4
REMARK    4  A    between atoms: N_6  and  C_7
REMARK    5  A    between atoms: N_11  and  C_12
REMARK    6  A    between atoms: C_12  and  C_13
REMARK    7  A    between atoms: C_13  and  C_14
REMARK                            x       y       z     vdW  Elec       q    Type
REMARK                         _______ _______ _______ _____ _____    ______ ____
ROOT
ATOM      1  C   UNL     1       5.938   5.190  14.472  0.00  0.00    +0.000 C 
ATOM      2  C   UNL     1       7.368   5.054  14.994  0.00  0.00    +0.000 C 
ATOM      3  C   UNL     1       7.179   4.520  16.395  0.00  0.00    +0.000 C 
ATOM      4  O   UNL     1       8.070   4.101  17.113  0.00  0.00    +0.000 OA
ATOM      5  N   UNL     1       5.836   4.656  16.737  0.00  0.00    +0.000 N 
ATOM      6  C   UNL     1       5.127   5.428  15.741  0.00  0.00    +0.000 C 
ENDROOT
BRANCH   1   9
ATOM      7  C   UNL     1       6.082   3.603  12.577  0.00  0.00    +0.000 C 
ATOM      8  O   UNL     1       6.969   4.257  12.031  0.00  0.00    +0.000 OA
ATOM      9  N   UNL     1       5.502   3.984  13.768  0.00  0.00    +0.000 N 
ATOM     10  H   UNL     1       4.836   3.364  14.222  0.00  0.00    +0.000 HD
BRANCH   7  11
ATOM     11  C   UNL     1       5.523   2.331  11.968  0.00  0.00    +0.000 C 
BRANCH  11  13
ATOM     12  C   UNL     1       6.112  -0.281  11.253  0.00  0.00    +0.000 C 
ATOM     13  S   UNL     1       6.832   1.380  11.132  0.00  0.00    +0.000 S 
ENDBRANCH  11  13
ENDBRANCH   7  11
ENDBRANCH   1   9
BRANCH   5  14
ATOM     14  C   UNL     1       5.368   4.520  18.109  0.00  0.00    +0.000 C 
BRANCH  14  15
ATOM     15  C   UNL     1       4.114   5.343  18.434  0.00  0.00    +0.000 C 
BRANCH  15  16
ATOM     16  C   UNL     1       2.898   4.556  18.876  0.00  0.00    +0.000 A 
ATOM     17  C   UNL     1       2.314   3.563  18.077  0.00  0.00    +0.000 A 
ATOM     18  C   UNL     1       1.202   2.849  18.526  0.00  0.00    +0.000 A 
ATOM     19  C   UNL     1       0.667   3.107  19.785  0.00  0.00    +0.000 A 
ATOM     20  C   UNL     1       1.249   4.076  20.599  0.00  0.00    +0.000 A 
ATOM     21  C   UNL     1       2.359   4.791  20.150  0.00  0.00    +0.000 A 
ENDBRANCH  15  16
ENDBRANCH  14  15
ENDBRANCH   5  14
TORSDOF 6
ENDMDL
MODEL 7
REMARK VINA RESULT:      -6.3      3.369      4.661
REMARK  Name = 
REMARK  7 active torsions:
REMARK  status: ('A' for Active; 'I' for Inactive)
REMARK    1  A    between atoms: C_1  and  S_2
REMARK    2  A    between atoms: S_2  and  C_3
REMARK    3  A    between atoms: C_3  and  C_4
REMARK    4  A    between atoms: N_6  and  C_7
REMARK    5  A    between atoms: N_11  and  C_12
REMARK    6  A    between atoms: C_12  and  C_13
REMARK    7  A    between atoms: C_13  and  C_14
REMARK                            x       y       z     vdW  Elec       q    Type
REMARK                         _______ _______ _______ _____ _____    ______ ____
ROOT
ATOM      1  C   UNL     1       7.278   5.965  17.365  0.00  0.00    +0.000 C 
ATOM      2  C   UNL     1       7.191   5.220  16.032  0.00  0.00    +0.000 C 
ATOM      3  C   UNL     1       5.703   5.083  15.807  0.00  0.00    +0.000 C 
ATOM      4  O   UNL     1       5.182   4.703  14.773  0.00  0.00    +0.000 OA
ATOM      5  N   UNL     1       5.049   5.398  16.995  0.00  0.00    +0.000 N 
ATOM      6  C   UNL     1       5.995   5.552  18.077  0.00  0.00    +0.000 C 
ENDROOT
BRANCH   1   9
ATOM      7  C   UNL     1       8.078   8.213  18.024  0.00  0.00    +0.000 C 
ATOM      8  O   UNL     1       8.683   7.768  18.998  0.00  0.00    +0.000 OA
ATOM      9  N   UNL     1       7.349   7.413  17.171  0.00  0.00    +0.000 N 
ATOM     10  H   UNL     1       6.940   7.817  16.332  0.00  0.00    +0.000 HD
BRANCH   7  11
ATOM     11  C   UNL     1       8.055   9.694  17.694  0.00  0.00    +0.000 C 
BRANCH  11  13
ATOM     12  C   UNL     1       9.084  12.255  17.948  0.00  0.00    +0.000 C 
ATOM     13  S   UNL     1       9.393  10.575  18.560  0.00  0.00    +0.000 S 
ENDBRANCH  11  13
ENDBRANCH   7  11
ENDBRANCH   1   9
BRANCH   5  14
ATOM     14  C   UNL     1       3.645   5.084  17.215  0.00  0.00    +0.000 C 
BRANCH  14  15
ATOM     15  C   UNL     1       3.374   3.619  17.583  0.00  0.00    +0.000 C 
BRANCH  15  16
ATOM     16  C   UNL     1       2.714   3.383  18.925  0.00  0.00    +0.000 A 
ATOM     17  C   UNL     1       1.334   3.534  19.121  0.00  0.00    +0.000 A 
ATOM     18  C   UNL     1       0.760   3.292  20.370  0.00  0.00    +0.000 A 
ATOM     19  C   UNL     1       1.555   2.882  21.437  0.00  0.00    +0.000 A 
ATOM     20  C   UNL     1       2.925   2.708  21.254  0.00  0.00    +0.000 A 
ATOM     21  C   UNL     1       3.499   2.951  20.006  0.00  0.00    +0.000 A 
ENDBRANCH  15  16
ENDBRANCH  14  15
ENDBRANCH   5  14
TORSDOF 6
ENDMDL
MODEL 8
REMARK VINA RESULT:      -6.2      1.227      1.665
REMARK  Name = 
REMARK  7 active torsions:
REMARK  status: ('A' for Active; 'I' for Inactive)
REMARK    1  A    between atoms: C_1  and  S_2
REMARK    2  A    between atoms: S_2  and  C_3
REMARK    3  A    between atoms: C_3  and  C_4
REMARK    4  A    between atoms: N_6  and  C_7
REMARK    5  A    between atoms: N_11  and  C_12
REMARK    6  A    between atoms: C_12  and  C_13
REMARK    7  A    between atoms: C_13  and  C_14
REMARK                            x       y       z     vdW  Elec       q    Type
REMARK                         _______ _______ _______ _____ _____    ______ ____
ROOT
ATOM      1  C   UNL     1       6.006   6.423  16.208  0.00  0.00    +0.000 C 
ATOM      2  C   UNL     1       7.253   6.168  17.056  0.00  0.00    +0.000 C 
ATOM      3  C   UNL     1       6.692   5.607  18.341  0.00  0.00    +0.000 C 
ATOM      4  O   UNL     1       7.352   5.103  19.234  0.00  0.00    +0.000 OA
ATOM      5  N   UNL     1       5.318   5.828  18.353  0.00  0.00    +0.000 N 
ATOM      6  C   UNL     1       4.925   6.679  17.252  0.00  0.00    +0.000 C 
ENDROOT
BRANCH   1   9
ATOM      7  C   UNL     1       6.564   4.823  14.404  0.00  0.00    +0.000 C 
ATOM      8  O   UNL     1       7.646   5.366  14.187  0.00  0.00    +0.000 OA
ATOM      9  N   UNL     1       5.683   5.274  15.363  0.00  0.00    +0.000 N 
ATOM     10  H   UNL     1       4.842   4.739  15.563  0.00  0.00    +0.000 HD
BRANCH   7  11
ATOM     11  C   UNL     1       6.087   3.623  13.607  0.00  0.00    +0.000 C 
BRANCH  11  13
ATOM     12  C   UNL     1       6.377   1.931  11.431  0.00  0.00    +0.000 C 
ATOM     13  S   UNL     1       6.821   3.615  11.940  0.00  0.00    +0.000 S 
ENDBRANCH  11  13
ENDBRANCH   7  11
ENDBRANCH   1   9
BRANCH   5  14
ATOM     14  C   UNL     1       4.519   5.684  19.561  0.00  0.00    +0.000 C 
BRANCH  14  15
ATOM     15  C   UNL     1       3.009   5.847  19.344  0.00  0.00    +0.000 C 
BRANCH  15  16
ATOM     16  C   UNL     1       2.210   4.565  19.236  0.00  0.00    +0.000 A 
ATOM     17  C   UNL     1       1.210   4.222  20.157  0.00  0.00    +0.000 A 
ATOM     18  C   UNL     1       0.486   3.038  20.015  0.00  0.00    +0.000 A 
ATOM     19  C   UNL     1       0.740   2.186  18.944  0.00  0.00    +0.000 A 
ATOM     20  C   UNL     1       1.717   2.523  18.009  0.00  0.00    +0.000 A 
ATOM     21  C   UNL     1       2.442   3.706  18.151  0.00  0.00    +0.000 A 
ENDBRANCH  15  16
ENDBRANCH  14  15
ENDBRANCH   5  14
TORSDOF 6
ENDMDL
MODEL 9
REMARK VINA RESULT:      -6.1      4.193      7.797
REMARK  Name = 
REMARK  7 active torsions:
REMARK  status: ('A' for Active; 'I' for Inactive)
REMARK    1  A    between atoms: C_1  and  S_2
REMARK    2  A    between atoms: S_2  and  C_3
REMARK    3  A    between atoms: C_3  and  C_4
REMARK    4  A    between atoms: N_6  and  C_7
REMARK    5  A    between atoms: N_11  and  C_12
REMARK    6  A    between atoms: C_12  and  C_13
REMARK    7  A    between atoms: C_13  and  C_14
REMARK                            x       y       z     vdW  Elec       q    Type
REMARK                         _______ _______ _______ _____ _____    ______ ____
ROOT
ATOM      1  C   UNL     1       5.044   5.836  17.368  0.00  0.00    +0.000 C 
ATOM      2  C   UNL     1       6.005   4.654  17.493  0.00  0.00    +0.000 C 
ATOM      3  C   UNL     1       7.233   5.269  18.123  0.00  0.00    +0.000 C 
ATOM      4  O   UNL     1       8.184   4.645  18.560  0.00  0.00    +0.000 OA
ATOM      5  N   UNL     1       7.115   6.654  18.051  0.00  0.00    +0.000 N 
ATOM      6  C   UNL     1       5.981   7.032  17.239  0.00  0.00    +0.000 C 
ENDROOT
BRANCH   1   9
ATOM      7  C   UNL     1       3.295   4.946  18.877  0.00  0.00    +0.000 C 
ATOM      8  O   UNL     1       3.172   3.919  18.212  0.00  0.00    +0.000 OA
ATOM      9  N   UNL     1       4.174   5.952  18.538  0.00  0.00    +0.000 N 
ATOM     10  H   UNL     1       4.300   6.741  19.167  0.00  0.00    +0.000 HD
BRANCH   7  11
ATOM     11  C   UNL     1       2.460   5.213  20.115  0.00  0.00    +0.000 C 
BRANCH  11  13
ATOM     12  C   UNL     1       1.758   2.947  21.550  0.00  0.00    +0.000 C 
ATOM     13  S   UNL     1       1.091   4.019  20.247  0.00  0.00    +0.000 S 
ENDBRANCH  11  13
ENDBRANCH   7  11
ENDBRANCH   1   9
BRANCH   5  14
ATOM     14  C   UNL     1       8.243   7.542  18.292  0.00  0.00    +0.000 C 
BRANCH  14  15
ATOM     15  C   UNL     1       7.972   9.014  17.955  0.00  0.00    +0.000 C 
BRANCH  15  16
ATOM     16  C   UNL     1       8.933  10.021  18.552  0.00  0.00    +0.000 A 
ATOM     17  C   UNL     1       9.119  10.154  19.935  0.00  0.00    +0.000 A 
ATOM     18  C   UNL     1      10.024  11.084  20.447  0.00  0.00    +0.000 A 
ATOM     19  C   UNL     1      10.769  11.884  19.583  0.00  0.00    +0.000 A 
ATOM     20  C   UNL     1      10.611  11.749  18.206  0.00  0.00    +0.000 A 
ATOM     21  C   UNL     1       9.704  10.821  17.694  0.00  0.00    +0.000 A 
ENDBRANCH  15  16
ENDBRANCH  14  15
ENDBRANCH   5  14
TORSDOF 6
ENDMDL
