MODEL 1
REMARK VINA RESULT:      -7.6      0.000      0.000
REMARK  Name = 
REMARK  4 active torsions:
REMARK  status: ('A' for Active; 'I' for Inactive)
REMARK    1  A    between atoms: C_1  and  C_2
REMARK    2  A    between atoms: C_8  and  C_10
REMARK    3  A    between atoms: C_14  and  O_15
REMARK    4  A    between atoms: C_16  and  C_17
REMARK                            x       y       z     vdW  Elec       q    Type
REMARK                         _______ _______ _______ _____ _____    ______ ____
ROOT
ATOM      1  C   UNL     1       7.490   6.462  17.033  0.00  0.00    +0.000 C 
ATOM      2  C   UNL     1       6.676   5.405  17.735  0.00  0.00    +0.000 C 
ATOM      3  O   UNL     1       7.205   4.374  18.137  0.00  0.00    +0.000 OA
ATOM      4  N   UNL     1       5.327   5.661  17.929  0.00  0.00    +0.000 N 
ATOM      5  C   UNL     1       4.607   6.794  17.364  0.00  0.00    +0.000 C 
ATOM      6  C   UNL     1       3.672   7.418  18.393  0.00  0.00    +0.000 C 
ATOM      7  N   UNL     1       2.833   6.504  19.194  0.00  0.00    +0.000 N 
ATOM      8  C   UNL     1       1.764   7.036  19.984  0.00  0.00    +0.000 C 
ATOM      9  O   UNL     1       1.153   6.359  20.805  0.00  0.00    +0.000 OA
ATOM     10  C   UNL     1       3.522   5.264  19.666  0.00  0.00    +0.000 C 
ATOM     11  C   UNL     1       2.678   4.048  20.093  0.00  0.00    +0.000 C 
ATOM     12  S   UNL     1       2.409   3.080  18.624  0.00  0.00    +0.000 S 
ATOM     13  O   UNL     1       2.869   1.732  18.868  0.00  0.00    +0.000 OA
ATOM     14  O   UNL     1       1.093   3.356  18.089  0.00  0.00    +0.000 OA
ATOM     15  C   UNL     1       3.603   3.898  17.604  0.00  0.00    +0.000 C 
ATOM     16  C   UNL     1       4.486   4.658  18.593  0.00  0.00    +0.000 C 
ENDROOT
BRANCH   8  17
ATOM     17  C   UNL     1       1.371   8.486  19.850  0.00  0.00    +0.000 A 
ATOM     18  C   UNL     1       1.210   9.006  18.553  0.00  0.00    +0.000 A 
ATOM     19  C   UNL     1       0.602  10.238  18.337  0.00  0.00    +0.000 A 
ATOM     20  C   UNL     1       0.265  11.031  19.425  0.00  0.00    +0.000 A 
ATOM     21  C   UNL     1       0.599  10.606  20.711  0.00  0.00    +0.000 A 
ATOM     22  C   UNL     1       1.181   9.345  20.952  0.00  0.00    +0.000 A 
ATOM     23  C   UNL     1       1.582   8.964  22.353  0.00  0.00    +0.000 C 
BRANCH  21  24
ATOM     24  O   UNL     1       0.345  11.440  21.765  0.00  0.00    +0.000 OA
ATOM     25  H   UNL     1       0.400  10.936  22.594  0.00  0.00    +0.000 HD
ENDBRANCH  21  24
ENDBRANCH   8  17
TORSDOF 2
ENDMDL
MODEL 2
REMARK VINA RESULT:      -7.2      3.958      5.880
REMARK  Name = 
REMARK  4 active torsions:
REMARK  status: ('A' for Active; 'I' for Inactive)
REMARK    1  A    between atoms: C_1  and  C_2
REMARK    2  A    between atoms: C_8  and  C_10
REMARK    3  A    between atoms: C_14  and  O_15
REMARK    4  A    between atoms: C_16  and  C_17
REMARK                            x       y       z     vdW  Elec       q    Type
REMARK                         _______ _______ _______ _____ _____    ______ ____
ROOT
ATOM      1  C   UNL     1       6.013   3.124  13.060  0.00  0.00    +0.000 C 
ATOM      2  C   UNL     1       6.281   4.442  13.742  0.00  0.00    +0.000 C 
ATOM      3  O   UNL     1       6.648   5.417  13.094  0.00  0.00    +0.000 OA
ATOM      4  N   UNL     1       6.070   4.508  15.110  0.00  0.00    +0.000 N 
ATOM      5  C   UNL     1       5.768   3.365  15.961  0.00  0.00    +0.000 C 
ATOM      6  C   UNL     1       4.665   3.699  16.958  0.00  0.00    +0.000 C 
ATOM      7  N   UNL     1       4.766   4.983  17.682  0.00  0.00    +0.000 N 
ATOM      8  C   UNL     1       3.910   5.232  18.802  0.00  0.00    +0.000 C 
ATOM      9  O   UNL     1       3.819   6.337  19.327  0.00  0.00    +0.000 OA
ATOM     10  C   UNL     1       5.211   6.143  16.850  0.00  0.00    +0.000 C 
ATOM     11  C   UNL     1       5.791   7.390  17.544  0.00  0.00    +0.000 C 
ATOM     12  S   UNL     1       7.542   7.110  17.704  0.00  0.00    +0.000 S 
ATOM     13  O   UNL     1       8.244   8.213  17.088  0.00  0.00    +0.000 OA
ATOM     14  O   UNL     1       7.845   6.660  19.045  0.00  0.00    +0.000 OA
ATOM     15  C   UNL     1       7.638   5.715  16.618  0.00  0.00    +0.000 C 
ATOM     16  C   UNL     1       6.331   5.762  15.826  0.00  0.00    +0.000 C 
ENDROOT
BRANCH   8  17
ATOM     17  C   UNL     1       3.053   4.125  19.362  0.00  0.00    +0.000 A 
ATOM     18  C   UNL     1       3.557   3.389  20.450  0.00  0.00    +0.000 A 
ATOM     19  C   UNL     1       2.741   2.539  21.190  0.00  0.00    +0.000 A 
ATOM     20  C   UNL     1       1.439   2.310  20.771  0.00  0.00    +0.000 A 
ATOM     21  C   UNL     1       0.992   2.887  19.582  0.00  0.00    +0.000 A 
ATOM     22  C   UNL     1       1.790   3.779  18.839  0.00  0.00    +0.000 A 
ATOM     23  C   UNL     1       1.283   4.320  17.528  0.00  0.00    +0.000 C 
BRANCH  21  24
ATOM     24  O   UNL     1      -0.263   2.577  19.133  0.00  0.00    +0.000 OA
ATOM     25  H   UNL     1      -0.462   1.651  19.351  0.00  0.00    +0.000 HD
ENDBRANCH  21  24
ENDBRANCH   8  17
TORSDOF 2
ENDMDL
MODEL 3
REMARK VINA RESULT:      -7.0      0.968      1.690
REMARK  Name = 
REMARK  4 active torsions:
REMARK  status: ('A' for Active; 'I' for Inactive)
REMARK    1  A    between atoms: C_1  and  C_2
REMARK    2  A    between atoms: C_8  and  C_10
REMARK    3  A    between atoms: C_14  and  O_15
REMARK    4  A    between atoms: C_16  and  C_17
REMARK                            x       y       z     vdW  Elec       q    Type
REMARK                         _______ _______ _______ _____ _____    ______ ____
ROOT
ATOM      1  C   UNL     1       7.780   6.760  17.397  0.00  0.00    +0.000 C 
ATOM      2  C   UNL     1       6.984   5.561  17.846  0.00  0.00    +0.000 C 
ATOM      3  O   UNL     1       7.541   4.492  18.076  0.00  0.00    +0.000 OA
ATOM      4  N   UNL     1       5.618   5.727  18.011  0.00  0.00    +0.000 N 
ATOM      5  C   UNL     1       4.873   6.919  17.630  0.00  0.00    +0.000 C 
ATOM      6  C   UNL     1       3.865   7.304  18.706  0.00  0.00    +0.000 C 
ATOM      7  N   UNL     1       3.032   6.225  19.276  0.00  0.00    +0.000 N 
ATOM      8  C   UNL     1       1.905   6.560  20.093  0.00  0.00    +0.000 C 
ATOM      9  O   UNL     1       1.288   5.718  20.739  0.00  0.00    +0.000 OA
ATOM     10  C   UNL     1       3.754   4.944  19.544  0.00  0.00    +0.000 C 
ATOM     11  C   UNL     1       2.947   3.640  19.691  0.00  0.00    +0.000 C 
ATOM     12  S   UNL     1       2.791   2.957  18.054  0.00  0.00    +0.000 S 
ATOM     13  O   UNL     1       3.300   1.605  18.067  0.00  0.00    +0.000 OA
ATOM     14  O   UNL     1       1.490   3.282  17.511  0.00  0.00    +0.000 OA
ATOM     15  C   UNL     1       3.992   3.995  17.271  0.00  0.00    +0.000 C 
ATOM     16  C   UNL     1       4.793   4.587  18.430  0.00  0.00    +0.000 C 
ENDROOT
BRANCH   8  17
ATOM     17  C   UNL     1       1.453   7.994  20.211  0.00  0.00    +0.000 A 
ATOM     18  C   UNL     1       1.194   8.497  21.499  0.00  0.00    +0.000 A 
ATOM     19  C   UNL     1       1.033   9.861  21.725  0.00  0.00    +0.000 A 
ATOM     20  C   UNL     1       0.996  10.730  20.645  0.00  0.00    +0.000 A 
ATOM     21  C   UNL     1       1.059  10.214  19.349  0.00  0.00    +0.000 A 
ATOM     22  C   UNL     1       1.260   8.842  19.101  0.00  0.00    +0.000 A 
ATOM     23  C   UNL     1       1.253   8.331  17.685  0.00  0.00    +0.000 C 
BRANCH  21  24
ATOM     24  O   UNL     1       0.927  11.075  18.293  0.00  0.00    +0.000 OA
ATOM     25  H   UNL     1       0.362  10.668  17.616  0.00  0.00    +0.000 HD
ENDBRANCH  21  24
ENDBRANCH   8  17
TORSDOF 2
ENDMDL
MODEL 4
REMARK VINA RESULT:      -7.0      3.723      5.476
REMARK  Name = 
REMARK  4 active torsions:
REMARK  status: ('A' for Active; 'I' for Inactive)
REMARK    1  A    between atoms: C_1  and  C_2
REMARK    2  A    between atoms: C_8  and  C_10
REMARK    3  A    between atoms: C_14  and  O_15
REMARK    4  A    between atoms: C_16  and  C_17
REMARK                            x       y       z     vdW  Elec       q    Type
REMARK                         _______ _______ _______ _____ _____    ______ ____
ROOT
ATOM      1  C   UNL     1       6.177   3.237  13.024  0.00  0.00    +0.000 C 
ATOM      2  C   UNL     1       6.509   4.477  13.814  0.00  0.00    +0.000 C 
ATOM      3  O   UNL     1       7.119   5.405  13.292  0.00  0.00    +0.000 OA
ATOM      4  N   UNL     1       6.076   4.532  15.130  0.00  0.00    +0.000 N 
ATOM      5  C   UNL     1       5.471   3.421  15.852  0.00  0.00    +0.000 C 
ATOM      6  C   UNL     1       4.272   3.887  16.669  0.00  0.00    +0.000 C 
ATOM      7  N   UNL     1       4.429   5.118  17.471  0.00  0.00    +0.000 N 
ATOM      8  C   UNL     1       3.438   5.458  18.446  0.00  0.00    +0.000 C 
ATOM      9  O   UNL     1       3.417   6.548  19.009  0.00  0.00    +0.000 OA
ATOM     10  C   UNL     1       5.174   6.223  16.792  0.00  0.00    +0.000 C 
ATOM     11  C   UNL     1       5.798   7.345  17.642  0.00  0.00    +0.000 C 
ATOM     12  S   UNL     1       7.436   6.799  18.074  0.00  0.00    +0.000 S 
ATOM     13  O   UNL     1       8.385   7.802  17.648  0.00  0.00    +0.000 OA
ATOM     14  O   UNL     1       7.435   6.267  19.420  0.00  0.00    +0.000 OA
ATOM     15  C   UNL     1       7.517   5.441  16.943  0.00  0.00    +0.000 C 
ATOM     16  C   UNL     1       6.388   5.709  15.949  0.00  0.00    +0.000 C 
ENDROOT
BRANCH   8  17
ATOM     17  C   UNL     1       2.347   4.476  18.792  0.00  0.00    +0.000 A 
ATOM     18  C   UNL     1       1.599   3.925  17.735  0.00  0.00    +0.000 A 
ATOM     19  C   UNL     1       0.764   2.830  17.933  0.00  0.00    +0.000 A 
ATOM     20  C   UNL     1       0.563   2.351  19.218  0.00  0.00    +0.000 A 
ATOM     21  C   UNL     1       1.150   3.015  20.296  0.00  0.00    +0.000 A 
ATOM     22  C   UNL     1       2.028   4.102  20.113  0.00  0.00    +0.000 A 
ATOM     23  C   UNL     1       2.582   4.824  21.314  0.00  0.00    +0.000 C 
BRANCH  21  24
ATOM     24  O   UNL     1       0.866   2.588  21.564  0.00  0.00    +0.000 OA
ATOM     25  H   UNL     1       0.693   1.632  21.550  0.00  0.00    +0.000 HD
ENDBRANCH  21  24
ENDBRANCH   8  17
TORSDOF 2
ENDMDL
MODEL 5
REMARK VINA RESULT:      -6.9      4.569      8.562
REMARK  Name = 
REMARK  4 active torsions:
REMARK  status: ('A' for Active; 'I' for Inactive)
REMARK    1  A    between atoms: C_1  and  C_2
REMARK    2  A    between atoms: C_8  and  C_10
REMARK    3  A    between atoms: C_14  and  O_15
REMARK    4  A    between atoms: C_16  and  C_17
REMARK                            x       y       z     vdW  Elec       q    Type
REMARK                         _______ _______ _______ _____ _____    ______ ____
ROOT
ATOM      1  C   UNL     1       3.629  16.097  17.982  0.00  0.00    +0.000 C 
ATOM      2  C   UNL     1       2.322  16.125  18.734  0.00  0.00    +0.000 C 
ATOM      3  O   UNL     1       1.625  17.135  18.736  0.00  0.00    +0.000 OA
ATOM      4  N   UNL     1       1.937  14.967  19.391  0.00  0.00    +0.000 N 
ATOM      5  C   UNL     1       2.771  13.783  19.545  0.00  0.00    +0.000 C 
ATOM      6  C   UNL     1       1.970  12.511  19.297  0.00  0.00    +0.000 C 
ATOM      7  N   UNL     1       0.643  12.406  19.938  0.00  0.00    +0.000 N 
ATOM      8  C   UNL     1      -0.037  11.146  19.952  0.00  0.00    +0.000 C 
ATOM      9  O   UNL     1      -1.208  11.035  20.303  0.00  0.00    +0.000 OA
ATOM     10  C   UNL     1      -0.173  13.658  19.910  0.00  0.00    +0.000 C 
ATOM     11  C   UNL     1      -1.333  13.825  20.911  0.00  0.00    +0.000 C 
ATOM     12  S   UNL     1      -0.637  14.568  22.370  0.00  0.00    +0.000 S 
ATOM     13  O   UNL     1      -1.372  15.775  22.671  0.00  0.00    +0.000 OA
ATOM     14  O   UNL     1      -0.393  13.550  23.369  0.00  0.00    +0.000 OA
ATOM     15  C   UNL     1       0.918  15.028  21.659  0.00  0.00    +0.000 C 
ATOM     16  C   UNL     1       0.682  14.946  20.151  0.00  0.00    +0.000 C 
ENDROOT
BRANCH   8  17
ATOM     17  C   UNL     1       0.672   9.897  19.495  0.00  0.00    +0.000 A 
ATOM     18  C   UNL     1       0.938   9.757  18.120  0.00  0.00    +0.000 A 
ATOM     19  C   UNL     1       1.808   8.781  17.646  0.00  0.00    +0.000 A 
ATOM     20  C   UNL     1       2.324   7.842  18.528  0.00  0.00    +0.000 A 
ATOM     21  C   UNL     1       1.912   7.857  19.861  0.00  0.00    +0.000 A 
ATOM     22  C   UNL     1       1.061   8.859  20.368  0.00  0.00    +0.000 A 
ATOM     23  C   UNL     1       0.594   8.789  21.797  0.00  0.00    +0.000 C 
BRANCH  21  24
ATOM     24  O   UNL     1       2.356   6.869  20.696  0.00  0.00    +0.000 OA
ATOM     25  H   UNL     1       1.601   6.330  20.987  0.00  0.00    +0.000 HD
ENDBRANCH  21  24
ENDBRANCH   8  17
TORSDOF 2
ENDMDL
MODEL 6
REMARK VINA RESULT:      -6.8      1.961      3.827
REMARK  Name = 
REMARK  4 active torsions:
REMARK  status: ('A' for Active; 'I' for Inactive)
REMARK    1  A    between atoms: C_1  and  C_2
REMARK    2  A    between atoms: C_8  and  C_10
REMARK    3  A    between atoms: C_14  and  O_15
REMARK    4  A    between atoms: C_16  and  C_17
REMARK                            x       y       z     vdW  Elec       q    Type
REMARK                         _______ _______ _______ _____ _____    ______ ____
ROOT
ATOM      1  C   UNL     1       2.046   1.641  19.692  0.00  0.00    +0.000 C 
ATOM      2  C   UNL     1       2.857   2.396  18.670  0.00  0.00    +0.000 C 
ATOM      3  O   UNL     1       3.261   1.836  17.656  0.00  0.00    +0.000 OA
ATOM      4  N   UNL     1       3.097   3.740  18.910  0.00  0.00    +0.000 N 
ATOM      5  C   UNL     1       2.767   4.435  20.147  0.00  0.00    +0.000 C 
ATOM      6  C   UNL     1       2.154   5.800  19.863  0.00  0.00    +0.000 C 
ATOM      7  N   UNL     1       2.816   6.647  18.850  0.00  0.00    +0.000 N 
ATOM      8  C   UNL     1       2.443   8.024  18.726  0.00  0.00    +0.000 C 
ATOM      9  O   UNL     1       2.820   8.726  17.793  0.00  0.00    +0.000 OA
ATOM     10  C   UNL     1       3.287   5.922  17.630  0.00  0.00    +0.000 C 
ATOM     11  C   UNL     1       4.367   6.565  16.740  0.00  0.00    +0.000 C 
ATOM     12  S   UNL     1       5.937   6.041  17.393  0.00  0.00    +0.000 S 
ATOM     13  O   UNL     1       6.692   5.413  16.334  0.00  0.00    +0.000 OA
ATOM     14  O   UNL     1       6.499   7.089  18.218  0.00  0.00    +0.000 OA
ATOM     15  C   UNL     1       5.315   4.772  18.459  0.00  0.00    +0.000 C 
ATOM     16  C   UNL     1       3.895   4.517  17.955  0.00  0.00    +0.000 C 
ENDROOT
BRANCH   8  17
ATOM     17  C   UNL     1       1.528   8.655  19.745  0.00  0.00    +0.000 A 
ATOM     18  C   UNL     1       1.684   8.279  21.092  0.00  0.00    +0.000 A 
ATOM     19  C   UNL     1       1.075   8.993  22.119  0.00  0.00    +0.000 A 
ATOM     20  C   UNL     1       0.192  10.015  21.807  0.00  0.00    +0.000 A 
ATOM     21  C   UNL     1      -0.117  10.268  20.469  0.00  0.00    +0.000 A 
ATOM     22  C   UNL     1       0.517   9.581  19.415  0.00  0.00    +0.000 A 
ATOM     23  C   UNL     1       0.097   9.846  17.993  0.00  0.00    +0.000 C 
BRANCH  21  24
ATOM     24  O   UNL     1      -1.060  11.216  20.181  0.00  0.00    +0.000 OA
ATOM     25  H   UNL     1      -1.928  10.913  20.497  0.00  0.00    +0.000 HD
ENDBRANCH  21  24
ENDBRANCH   8  17
TORSDOF 2
ENDMDL
MODEL 7
REMARK VINA RESULT:      -6.7      3.288      7.710
REMARK  Name = 
REMARK  4 active torsions:
REMARK  status: ('A' for Active; 'I' for Inactive)
REMARK    1  A    between atoms: C_1  and  C_2
REMARK    2  A    between atoms: C_8  and  C_10
REMARK    3  A    between atoms: C_14  and  O_15
REMARK    4  A    between atoms: C_16  and  C_17
REMARK                            x       y       z     vdW  Elec       q    Type
REMARK                         _______ _______ _______ _____ _____    ______ ____
ROOT
ATOM      1  C   UNL     1      -3.433  10.803  16.541  0.00  0.00    +0.000 C 
ATOM      2  C   UNL     1      -3.059  11.174  17.954  0.00  0.00    +0.000 C 
ATOM      3  O   UNL     1      -3.889  11.671  18.709  0.00  0.00    +0.000 OA
ATOM      4  N   UNL     1      -1.763  10.904  18.364  0.00  0.00    +0.000 N 
ATOM      5  C   UNL     1      -0.693  10.444  17.489  0.00  0.00    +0.000 C 
ATOM      6  C   UNL     1       0.116   9.335  18.149  0.00  0.00    +0.000 C 
ATOM      7  N   UNL     1       0.526   9.534  19.554  0.00  0.00    +0.000 N 
ATOM      8  C   UNL     1       1.494   8.656  20.140  0.00  0.00    +0.000 C 
ATOM      9  O   UNL     1       1.738   8.655  21.343  0.00  0.00    +0.000 OA
ATOM     10  C   UNL     1      -0.518  10.138  20.437  0.00  0.00    +0.000 C 
ATOM     11  C   UNL     1      -0.094  10.810  21.757  0.00  0.00    +0.000 C 
ATOM     12  S   UNL     1       0.251  12.513  21.367  0.00  0.00    +0.000 S 
ATOM     13  O   UNL     1      -0.552  13.355  22.223  0.00  0.00    +0.000 OA
ATOM     14  O   UNL     1       1.679  12.702  21.225  0.00  0.00    +0.000 OA
ATOM     15  C   UNL     1      -0.470  12.515  19.750  0.00  0.00    +0.000 C 
ATOM     16  C   UNL     1      -1.342  11.261  19.724  0.00  0.00    +0.000 C 
ENDROOT
BRANCH   8  17
ATOM     17  C   UNL     1       2.233   7.662  19.280  0.00  0.00    +0.000 A 
ATOM     18  C   UNL     1       2.807   8.127  18.083  0.00  0.00    +0.000 A 
ATOM     19  C   UNL     1       3.718   7.356  17.369  0.00  0.00    +0.000 A 
ATOM     20  C   UNL     1       3.970   6.053  17.772  0.00  0.00    +0.000 A 
ATOM     21  C   UNL     1       3.258   5.519  18.847  0.00  0.00    +0.000 A 
ATOM     22  C   UNL     1       2.359   6.296  19.605  0.00  0.00    +0.000 A 
ATOM     23  C   UNL     1       1.568   5.652  20.712  0.00  0.00    +0.000 C 
BRANCH  21  24
ATOM     24  O   UNL     1       3.449   4.204  19.173  0.00  0.00    +0.000 OA
ATOM     25  H   UNL     1       4.137   4.139  19.855  0.00  0.00    +0.000 HD
ENDBRANCH  21  24
ENDBRANCH   8  17
TORSDOF 2
ENDMDL
MODEL 8
REMARK VINA RESULT:      -6.7      6.439     10.226
REMARK  Name = 
REMARK  4 active torsions:
REMARK  status: ('A' for Active; 'I' for Inactive)
REMARK    1  A    between atoms: C_1  and  C_2
REMARK    2  A    between atoms: C_8  and  C_10
REMARK    3  A    between atoms: C_14  and  O_15
REMARK    4  A    between atoms: C_16  and  C_17
REMARK                            x       y       z     vdW  Elec       q    Type
REMARK                         _______ _______ _______ _____ _____    ______ ____
ROOT
ATOM      1  C   UNL     1      -6.649  11.361  19.472  0.00  0.00    +0.000 C 
ATOM      2  C   UNL     1      -6.165  11.978  20.760  0.00  0.00    +0.000 C 
ATOM      3  O   UNL     1      -6.914  12.073  21.727  0.00  0.00    +0.000 OA
ATOM      4  N   UNL     1      -4.846  12.400  20.810  0.00  0.00    +0.000 N 
ATOM      5  C   UNL     1      -3.943  12.444  19.667  0.00  0.00    +0.000 C 
ATOM      6  C   UNL     1      -2.562  11.919  20.039  0.00  0.00    +0.000 C 
ATOM      7  N   UNL     1      -1.966  12.403  21.301  0.00  0.00    +0.000 N 
ATOM      8  C   UNL     1      -0.583  12.149  21.573  0.00  0.00    +0.000 C 
ATOM      9  O   UNL     1      -0.079  12.363  22.671  0.00  0.00    +0.000 OA
ATOM     10  C   UNL     1      -2.915  12.497  22.453  0.00  0.00    +0.000 C 
ATOM     11  C   UNL     1      -2.558  13.394  23.653  0.00  0.00    +0.000 C 
ATOM     12  S   UNL     1      -3.192  15.015  23.278  0.00  0.00    +0.000 S 
ATOM     13  O   UNL     1      -4.061  15.432  24.354  0.00  0.00    +0.000 OA
ATOM     14  O   UNL     1      -2.122  15.857  22.785  0.00  0.00    +0.000 OA
ATOM     15  C   UNL     1      -4.199  14.540  21.902  0.00  0.00    +0.000 C 
ATOM     16  C   UNL     1      -4.328  13.023  22.034  0.00  0.00    +0.000 C 
ENDROOT
BRANCH   8  17
ATOM     17  C   UNL     1       0.305  11.569  20.501  0.00  0.00    +0.000 A 
ATOM     18  C   UNL     1       0.423  10.169  20.432  0.00  0.00    +0.000 A 
ATOM     19  C   UNL     1       0.999   9.544  19.331  0.00  0.00    +0.000 A 
ATOM     20  C   UNL     1       1.587  10.316  18.340  0.00  0.00    +0.000 A 
ATOM     21  C   UNL     1       1.645  11.702  18.497  0.00  0.00    +0.000 A 
ATOM     22  C   UNL     1       1.035  12.356  19.586  0.00  0.00    +0.000 A 
ATOM     23  C   UNL     1       1.185  13.846  19.740  0.00  0.00    +0.000 C 
BRANCH  21  24
ATOM     24  O   UNL     1       2.310  12.441  17.557  0.00  0.00    +0.000 OA
ATOM     25  H   UNL     1       3.146  12.000  17.334  0.00  0.00    +0.000 HD
ENDBRANCH  21  24
ENDBRANCH   8  17
TORSDOF 2
ENDMDL
MODEL 9
REMARK VINA RESULT:      -6.6      6.353      9.221
REMARK  Name = 
REMARK  4 active torsions:
REMARK  status: ('A' for Active; 'I' for Inactive)
REMARK    1  A    between atoms: C_1  and  C_2
REMARK    2  A    between atoms: C_8  and  C_10
REMARK    3  A    between atoms: C_14  and  O_15
REMARK    4  A    between atoms: C_16  and  C_17
REMARK                            x       y       z     vdW  Elec       q    Type
REMARK                         _______ _______ _______ _____ _____    ______ ____
ROOT
ATOM      1  C   UNL     1       5.763  15.277  19.404  0.00  0.00    +0.000 C 
ATOM      2  C   UNL     1       4.435  15.901  19.056  0.00  0.00    +0.000 C 
ATOM      3  O   UNL     1       4.371  16.825  18.251  0.00  0.00    +0.000 OA
ATOM      4  N   UNL     1       3.303  15.372  19.656  0.00  0.00    +0.000 N 
ATOM      5  C   UNL     1       3.314  14.374  20.717  0.00  0.00    +0.000 C 
ATOM      6  C   UNL     1       2.255  13.305  20.475  0.00  0.00    +0.000 C 
ATOM      7  N   UNL     1       0.904  13.760  20.085  0.00  0.00    +0.000 N 
ATOM      8  C   UNL     1      -0.185  12.832  20.096  0.00  0.00    +0.000 C 
ATOM      9  O   UNL     1      -1.281  13.098  19.613  0.00  0.00    +0.000 OA
ATOM     10  C   UNL     1       0.877  14.884  19.099  0.00  0.00    +0.000 C 
ATOM     11  C   UNL     1      -0.397  15.739  18.965  0.00  0.00    +0.000 C 
ATOM     12  S   UNL     1      -0.241  17.064  20.143  0.00  0.00    +0.000 S 
ATOM     13  O   UNL     1      -0.388  18.321  19.446  0.00  0.00    +0.000 OA
ATOM     14  O   UNL     1      -1.003  16.754  21.333  0.00  0.00    +0.000 OA
ATOM     15  C   UNL     1       1.475  16.828  20.508  0.00  0.00    +0.000 C 
ATOM     16  C   UNL     1       1.987  15.953  19.365  0.00  0.00    +0.000 C 
ENDROOT
BRANCH   8  17
ATOM     17  C   UNL     1      -0.002  11.456  20.685  0.00  0.00    +0.000 A 
ATOM     18  C   UNL     1       0.529  10.451  19.856  0.00  0.00    +0.000 A 
ATOM     19  C   UNL     1       0.975   9.241  20.378  0.00  0.00    +0.000 A 
ATOM     20  C   UNL     1       0.773   8.964  21.722  0.00  0.00    +0.000 A 
ATOM     21  C   UNL     1       0.072   9.877  22.511  0.00  0.00    +0.000 A 
ATOM     22  C   UNL     1      -0.354  11.124  22.010  0.00  0.00    +0.000 A 
ATOM     23  C   UNL     1      -1.164  12.042  22.885  0.00  0.00    +0.000 C 
BRANCH  21  24
ATOM     24  O   UNL     1      -0.201   9.549  23.811  0.00  0.00    +0.000 OA
ATOM     25  H   UNL     1       0.477   8.933  24.135  0.00  0.00    +0.000 HD
ENDBRANCH  21  24
ENDBRANCH   8  17
TORSDOF 2
ENDMDL
