MODEL 1
REMARK VINA RESULT:      -8.3      0.000      0.000
REMARK  Name = 
REMARK  8 active torsions:
REMARK  status: ('A' for Active; 'I' for Inactive)
REMARK    1  A    between atoms: C_1  and  C_2
REMARK    2  A    between atoms: C_5  and  C_6
REMARK    3  A    between atoms: C_6  and  O_7
REMARK    4  A    between atoms: C_6  and  C_8
REMARK    5  A    between atoms: C_8  and  N_9
REMARK    6  A    between atoms: C_10  and  C_12
REMARK    7  A    between atoms: C_13  and  C_14
REMARK    8  A    between atoms: C_19  and  O_20
REMARK                            x       y       z     vdW  Elec       q    Type
REMARK                         _______ _______ _______ _____ _____    ______ ____
ROOT
ATOM      1  N   UNL     1       7.415   6.934  16.602  0.00  0.00    +0.000 N 
ATOM      2  C   UNL     1       7.807   7.308  17.863  0.00  0.00    +0.000 C 
ATOM      3  O   UNL     1       7.789   6.560  18.838  0.00  0.00    +0.000 OA
ATOM      4  H   UNL     1       7.384   7.619  15.860  0.00  0.00    +0.000 HD
ENDROOT
BRANCH   2   5
ATOM      5  C   UNL     1       8.270   8.714  17.923  0.00  0.00    +0.000 C 
ATOM      6  C   UNL     1       8.906   9.184  19.005  0.00  0.00    +0.000 C 
BRANCH   6   7
ATOM      7  C   UNL     1       9.404  10.566  19.154  0.00  0.00    +0.000 A 
ATOM      8  C   UNL     1       9.659  11.284  17.974  0.00  0.00    +0.000 A 
ATOM      9  C   UNL     1      10.121  12.604  18.014  0.00  0.00    +0.000 A 
ATOM     10  C   UNL     1      10.323  13.235  19.238  0.00  0.00    +0.000 A 
ATOM     11  C   UNL     1      10.060  12.550  20.422  0.00  0.00    +0.000 A 
ATOM     12  C   UNL     1       9.601  11.228  20.379  0.00  0.00    +0.000 A 
BRANCH  12  13
ATOM     13  O   UNL     1       9.334  10.591  21.564  0.00  0.00    +0.000 OA
ATOM     14  H   UNL     1       9.738  11.097  22.287  0.00  0.00    +0.000 HD
ENDBRANCH  12  13
ENDBRANCH   6   7
ENDBRANCH   2   5
BRANCH   1  15
ATOM     15  C   UNL     1       6.931   5.585  16.324  0.00  0.00    +0.000 C 
BRANCH  15  16
ATOM     16  C   UNL     1       5.502   5.554  15.732  0.00  0.00    +0.000 C 
BRANCH  16  21
ATOM     17  C   UNL     1       1.478   4.206  19.745  0.00  0.00    +0.000 C 
ATOM     18  C   UNL     1       2.523   4.559  18.727  0.00  0.00    +0.000 A 
ATOM     19  C   UNL     1       2.961   5.878  18.569  0.00  0.00    +0.000 A 
ATOM     20  C   UNL     1       3.930   6.192  17.611  0.00  0.00    +0.000 A 
ATOM     21  C   UNL     1       4.470   5.196  16.781  0.00  0.00    +0.000 A 
ATOM     22  C   UNL     1       4.034   3.874  16.957  0.00  0.00    +0.000 A 
ATOM     23  C   UNL     1       3.069   3.560  17.918  0.00  0.00    +0.000 A 
ENDBRANCH  16  21
BRANCH  16  24
ATOM     24  O   UNL     1       5.127   6.796  15.132  0.00  0.00    +0.000 OA
ATOM     25  H   UNL     1       5.645   6.895  14.316  0.00  0.00    +0.000 HD
ENDBRANCH  16  24
ENDBRANCH  15  16
ENDBRANCH   1  15
TORSDOF 7
ENDMDL
MODEL 2
REMARK VINA RESULT:      -8.2      0.112      1.033
REMARK  Name = 
REMARK  8 active torsions:
REMARK  status: ('A' for Active; 'I' for Inactive)
REMARK    1  A    between atoms: C_1  and  C_2
REMARK    2  A    between atoms: C_5  and  C_6
REMARK    3  A    between atoms: C_6  and  O_7
REMARK    4  A    between atoms: C_6  and  C_8
REMARK    5  A    between atoms: C_8  and  N_9
REMARK    6  A    between atoms: C_10  and  C_12
REMARK    7  A    between atoms: C_13  and  C_14
REMARK    8  A    between atoms: C_19  and  O_20
REMARK                            x       y       z     vdW  Elec       q    Type
REMARK                         _______ _______ _______ _____ _____    ______ ____
ROOT
ATOM      1  N   UNL     1       7.386   6.975  16.619  0.00  0.00    +0.000 N 
ATOM      2  C   UNL     1       7.780   7.344  17.881  0.00  0.00    +0.000 C 
ATOM      3  O   UNL     1       7.790   6.584  18.846  0.00  0.00    +0.000 OA
ATOM      4  H   UNL     1       7.332   7.669  15.885  0.00  0.00    +0.000 HD
ENDROOT
BRANCH   2   5
ATOM      5  C   UNL     1       8.210   8.760  17.953  0.00  0.00    +0.000 C 
ATOM      6  C   UNL     1       8.937   9.207  18.986  0.00  0.00    +0.000 C 
BRANCH   6   7
ATOM      7  C   UNL     1       9.412  10.596  19.143  0.00  0.00    +0.000 A 
ATOM      8  C   UNL     1       9.637  11.332  17.966  0.00  0.00    +0.000 A 
ATOM      9  C   UNL     1      10.074  12.660  18.015  0.00  0.00    +0.000 A 
ATOM     10  C   UNL     1      10.280  13.282  19.242  0.00  0.00    +0.000 A 
ATOM     11  C   UNL     1      10.046  12.580  20.423  0.00  0.00    +0.000 A 
ATOM     12  C   UNL     1       9.612  11.250  20.371  0.00  0.00    +0.000 A 
BRANCH  12  13
ATOM     13  O   UNL     1       9.374  10.596  21.553  0.00  0.00    +0.000 OA
ATOM     14  H   UNL     1       9.680   9.679  21.469  0.00  0.00    +0.000 HD
ENDBRANCH  12  13
ENDBRANCH   6   7
ENDBRANCH   2   5
BRANCH   1  15
ATOM     15  C   UNL     1       6.933   5.618  16.329  0.00  0.00    +0.000 C 
BRANCH  15  16
ATOM     16  C   UNL     1       5.499   5.560  15.750  0.00  0.00    +0.000 C 
BRANCH  16  21
ATOM     17  C   UNL     1       1.586   4.422  19.935  0.00  0.00    +0.000 C 
ATOM     18  C   UNL     1       2.580   4.708  18.847  0.00  0.00    +0.000 A 
ATOM     19  C   UNL     1       3.041   3.692  18.004  0.00  0.00    +0.000 A 
ATOM     20  C   UNL     1       3.972   3.974  16.999  0.00  0.00    +0.000 A 
ATOM     21  C   UNL     1       4.473   5.274  16.827  0.00  0.00    +0.000 A 
ATOM     22  C   UNL     1       3.995   6.289  17.670  0.00  0.00    +0.000 A 
ATOM     23  C   UNL     1       3.060   6.008  18.670  0.00  0.00    +0.000 A 
ENDBRANCH  16  21
BRANCH  16  24
ATOM     24  O   UNL     1       5.126   6.764  15.077  0.00  0.00    +0.000 OA
ATOM     25  H   UNL     1       4.444   7.201  15.616  0.00  0.00    +0.000 HD
ENDBRANCH  16  24
ENDBRANCH  15  16
ENDBRANCH   1  15
TORSDOF 7
ENDMDL
MODEL 3
REMARK VINA RESULT:      -7.9      1.422      1.731
REMARK  Name = 
REMARK  8 active torsions:
REMARK  status: ('A' for Active; 'I' for Inactive)
REMARK    1  A    between atoms: C_1  and  C_2
REMARK    2  A    between atoms: C_5  and  C_6
REMARK    3  A    between atoms: C_6  and  O_7
REMARK    4  A    between atoms: C_6  and  C_8
REMARK    5  A    between atoms: C_8  and  N_9
REMARK    6  A    between atoms: C_10  and  C_12
REMARK    7  A    between atoms: C_13  and  C_14
REMARK    8  A    between atoms: C_19  and  O_20
REMARK                            x       y       z     vdW  Elec       q    Type
REMARK                         _______ _______ _______ _____ _____    ______ ____
ROOT
ATOM      1  N   UNL     1       7.215   7.615  16.955  0.00  0.00    +0.000 N 
ATOM      2  C   UNL     1       8.019   8.185  17.910  0.00  0.00    +0.000 C 
ATOM      3  O   UNL     1       8.497   7.572  18.861  0.00  0.00    +0.000 OA
ATOM      4  H   UNL     1       6.796   8.192  16.239  0.00  0.00    +0.000 HD
ENDROOT
BRANCH   2   5
ATOM      5  C   UNL     1       8.263   9.626  17.663  0.00  0.00    +0.000 C 
ATOM      6  C   UNL     1       9.302  10.255  18.229  0.00  0.00    +0.000 C 
BRANCH   6   7
ATOM      7  C   UNL     1       9.626  11.683  18.041  0.00  0.00    +0.000 A 
ATOM      8  C   UNL     1       8.583  12.606  18.230  0.00  0.00    +0.000 A 
ATOM      9  C   UNL     1       8.796  13.981  18.086  0.00  0.00    +0.000 A 
ATOM     10  C   UNL     1      10.063  14.459  17.765  0.00  0.00    +0.000 A 
ATOM     11  C   UNL     1      11.118  13.567  17.591  0.00  0.00    +0.000 A 
ATOM     12  C   UNL     1      10.900  12.191  17.732  0.00  0.00    +0.000 A 
BRANCH  12  13
ATOM     13  O   UNL     1      11.966  11.343  17.572  0.00  0.00    +0.000 OA
ATOM     14  H   UNL     1      12.785  11.862  17.606  0.00  0.00    +0.000 HD
ENDBRANCH  12  13
ENDBRANCH   6   7
ENDBRANCH   2   5
BRANCH   1  15
ATOM     15  C   UNL     1       6.858   6.201  17.007  0.00  0.00    +0.000 C 
BRANCH  15  16
ATOM     16  C   UNL     1       5.698   5.825  16.055  0.00  0.00    +0.000 C 
BRANCH  16  21
ATOM     17  C   UNL     1       1.189   3.450  18.910  0.00  0.00    +0.000 C 
ATOM     18  C   UNL     1       2.354   4.067  18.193  0.00  0.00    +0.000 A 
ATOM     19  C   UNL     1       2.580   5.447  18.233  0.00  0.00    +0.000 A 
ATOM     20  C   UNL     1       3.665   6.007  17.553  0.00  0.00    +0.000 A 
ATOM     21  C   UNL     1       4.539   5.201  16.806  0.00  0.00    +0.000 A 
ATOM     22  C   UNL     1       4.313   3.816  16.782  0.00  0.00    +0.000 A 
ATOM     23  C   UNL     1       3.230   3.257  17.467  0.00  0.00    +0.000 A 
ENDBRANCH  16  21
BRANCH  16  24
ATOM     24  O   UNL     1       5.208   6.944  15.314  0.00  0.00    +0.000 OA
ATOM     25  H   UNL     1       4.586   6.603  14.648  0.00  0.00    +0.000 HD
ENDBRANCH  16  24
ENDBRANCH  15  16
ENDBRANCH   1  15
TORSDOF 7
ENDMDL
MODEL 4
REMARK VINA RESULT:      -7.9      1.018      1.195
REMARK  Name = 
REMARK  8 active torsions:
REMARK  status: ('A' for Active; 'I' for Inactive)
REMARK    1  A    between atoms: C_1  and  C_2
REMARK    2  A    between atoms: C_5  and  C_6
REMARK    3  A    between atoms: C_6  and  O_7
REMARK    4  A    between atoms: C_6  and  C_8
REMARK    5  A    between atoms: C_8  and  N_9
REMARK    6  A    between atoms: C_10  and  C_12
REMARK    7  A    between atoms: C_13  and  C_14
REMARK    8  A    between atoms: C_19  and  O_20
REMARK                            x       y       z     vdW  Elec       q    Type
REMARK                         _______ _______ _______ _____ _____    ______ ____
ROOT
ATOM      1  N   UNL     1       6.746   7.416  17.060  0.00  0.00    +0.000 N 
ATOM      2  C   UNL     1       7.738   7.547  17.999  0.00  0.00    +0.000 C 
ATOM      3  O   UNL     1       8.078   6.652  18.769  0.00  0.00    +0.000 OA
ATOM      4  H   UNL     1       6.466   8.215  16.507  0.00  0.00    +0.000 HD
ENDROOT
BRANCH   2   5
ATOM      5  C   UNL     1       8.372   8.886  17.975  0.00  0.00    +0.000 C 
ATOM      6  C   UNL     1       8.963   9.387  19.068  0.00  0.00    +0.000 C 
BRANCH   6   7
ATOM      7  C   UNL     1       9.620  10.708  19.139  0.00  0.00    +0.000 A 
ATOM      8  C   UNL     1      10.040  11.279  17.926  0.00  0.00    +0.000 A 
ATOM      9  C   UNL     1      10.660  12.533  17.891  0.00  0.00    +0.000 A 
ATOM     10  C   UNL     1      10.859  13.245  19.070  0.00  0.00    +0.000 A 
ATOM     11  C   UNL     1      10.435  12.708  20.284  0.00  0.00    +0.000 A 
ATOM     12  C   UNL     1       9.818  11.452  20.316  0.00  0.00    +0.000 A 
BRANCH  12  13
ATOM     13  O   UNL     1       9.397  10.963  21.526  0.00  0.00    +0.000 OA
ATOM     14  H   UNL     1       8.444  11.126  21.613  0.00  0.00    +0.000 HD
ENDBRANCH  12  13
ENDBRANCH   6   7
ENDBRANCH   2   5
BRANCH   1  15
ATOM     15  C   UNL     1       5.999   6.171  16.911  0.00  0.00    +0.000 C 
BRANCH  15  16
ATOM     16  C   UNL     1       4.469   6.379  16.813  0.00  0.00    +0.000 C 
BRANCH  16  21
ATOM     17  C   UNL     1       1.484   1.850  18.980  0.00  0.00    +0.000 C 
ATOM     18  C   UNL     1       2.252   3.022  18.440  0.00  0.00    +0.000 A 
ATOM     19  C   UNL     1       1.758   4.325  18.557  0.00  0.00    +0.000 A 
ATOM     20  C   UNL     1       2.482   5.405  18.042  0.00  0.00    +0.000 A 
ATOM     21  C   UNL     1       3.707   5.202  17.386  0.00  0.00    +0.000 A 
ATOM     22  C   UNL     1       4.200   3.892  17.286  0.00  0.00    +0.000 A 
ATOM     23  C   UNL     1       3.478   2.815  17.805  0.00  0.00    +0.000 A 
ENDBRANCH  16  21
BRANCH  16  24
ATOM     24  O   UNL     1       4.031   7.568  17.474  0.00  0.00    +0.000 OA
ATOM     25  H   UNL     1       4.082   8.296  16.830  0.00  0.00    +0.000 HD
ENDBRANCH  16  24
ENDBRANCH  15  16
ENDBRANCH   1  15
TORSDOF 7
ENDMDL
MODEL 5
REMARK VINA RESULT:      -7.9      1.027      1.486
REMARK  Name = 
REMARK  8 active torsions:
REMARK  status: ('A' for Active; 'I' for Inactive)
REMARK    1  A    between atoms: C_1  and  C_2
REMARK    2  A    between atoms: C_5  and  C_6
REMARK    3  A    between atoms: C_6  and  O_7
REMARK    4  A    between atoms: C_6  and  C_8
REMARK    5  A    between atoms: C_8  and  N_9
REMARK    6  A    between atoms: C_10  and  C_12
REMARK    7  A    between atoms: C_13  and  C_14
REMARK    8  A    between atoms: C_19  and  O_20
REMARK                            x       y       z     vdW  Elec       q    Type
REMARK                         _______ _______ _______ _____ _____    ______ ____
ROOT
ATOM      1  N   UNL     1       6.719   7.527  17.067  0.00  0.00    +0.000 N 
ATOM      2  C   UNL     1       7.740   7.645  17.977  0.00  0.00    +0.000 C 
ATOM      3  O   UNL     1       8.111   6.736  18.715  0.00  0.00    +0.000 OA
ATOM      4  H   UNL     1       6.415   8.336  16.542  0.00  0.00    +0.000 HD
ENDROOT
BRANCH   2   5
ATOM      5  C   UNL     1       8.359   8.991  17.966  0.00  0.00    +0.000 C 
ATOM      6  C   UNL     1       9.007   9.459  19.042  0.00  0.00    +0.000 C 
BRANCH   6   7
ATOM      7  C   UNL     1       9.657  10.783  19.123  0.00  0.00    +0.000 A 
ATOM      8  C   UNL     1      10.068  11.369  17.913  0.00  0.00    +0.000 A 
ATOM      9  C   UNL     1      10.680  12.627  17.889  0.00  0.00    +0.000 A 
ATOM     10  C   UNL     1      10.879  13.329  19.074  0.00  0.00    +0.000 A 
ATOM     11  C   UNL     1      10.464  12.778  20.284  0.00  0.00    +0.000 A 
ATOM     12  C   UNL     1       9.854  11.517  20.306  0.00  0.00    +0.000 A 
BRANCH  12  13
ATOM     13  O   UNL     1       9.442  11.014  21.513  0.00  0.00    +0.000 OA
ATOM     14  H   UNL     1       9.683  10.075  21.557  0.00  0.00    +0.000 HD
ENDBRANCH  12  13
ENDBRANCH   6   7
ENDBRANCH   2   5
BRANCH   1  15
ATOM     15  C   UNL     1       5.980   6.278  16.912  0.00  0.00    +0.000 C 
BRANCH  15  16
ATOM     16  C   UNL     1       4.449   6.478  16.813  0.00  0.00    +0.000 C 
BRANCH  16  21
ATOM     17  C   UNL     1       1.583   1.888  19.013  0.00  0.00    +0.000 C 
ATOM     18  C   UNL     1       2.318   3.060  18.430  0.00  0.00    +0.000 A 
ATOM     19  C   UNL     1       3.511   2.886  17.721  0.00  0.00    +0.000 A 
ATOM     20  C   UNL     1       4.187   3.989  17.191  0.00  0.00    +0.000 A 
ATOM     21  C   UNL     1       3.693   5.290  17.372  0.00  0.00    +0.000 A 
ATOM     22  C   UNL     1       2.489   5.454  18.074  0.00  0.00    +0.000 A 
ATOM     23  C   UNL     1       1.812   4.351  18.599  0.00  0.00    +0.000 A 
ENDBRANCH  16  21
BRANCH  16  24
ATOM     24  O   UNL     1       4.002   7.657  17.485  0.00  0.00    +0.000 OA
ATOM     25  H   UNL     1       4.343   7.621  18.395  0.00  0.00    +0.000 HD
ENDBRANCH  16  24
ENDBRANCH  15  16
ENDBRANCH   1  15
TORSDOF 7
ENDMDL
MODEL 6
REMARK VINA RESULT:      -7.9      1.475      2.062
REMARK  Name = 
REMARK  8 active torsions:
REMARK  status: ('A' for Active; 'I' for Inactive)
REMARK    1  A    between atoms: C_1  and  C_2
REMARK    2  A    between atoms: C_5  and  C_6
REMARK    3  A    between atoms: C_6  and  O_7
REMARK    4  A    between atoms: C_6  and  C_8
REMARK    5  A    between atoms: C_8  and  N_9
REMARK    6  A    between atoms: C_10  and  C_12
REMARK    7  A    between atoms: C_13  and  C_14
REMARK    8  A    between atoms: C_19  and  O_20
REMARK                            x       y       z     vdW  Elec       q    Type
REMARK                         _______ _______ _______ _____ _____    ______ ____
ROOT
ATOM      1  N   UNL     1       7.143   7.708  17.118  0.00  0.00    +0.000 N 
ATOM      2  C   UNL     1       8.043   8.268  17.990  0.00  0.00    +0.000 C 
ATOM      3  O   UNL     1       8.604   7.649  18.890  0.00  0.00    +0.000 OA
ATOM      4  H   UNL     1       6.663   8.290  16.445  0.00  0.00    +0.000 HD
ENDROOT
BRANCH   2   5
ATOM      5  C   UNL     1       8.280   9.705  17.718  0.00  0.00    +0.000 C 
ATOM      6  C   UNL     1       9.338  10.339  18.243  0.00  0.00    +0.000 C 
BRANCH   6   7
ATOM      7  C   UNL     1       9.656  11.765  18.027  0.00  0.00    +0.000 A 
ATOM      8  C   UNL     1       8.615  12.689  18.224  0.00  0.00    +0.000 A 
ATOM      9  C   UNL     1       8.825  14.062  18.057  0.00  0.00    +0.000 A 
ATOM     10  C   UNL     1      10.084  14.538  17.704  0.00  0.00    +0.000 A 
ATOM     11  C   UNL     1      11.136  13.644  17.521  0.00  0.00    +0.000 A 
ATOM     12  C   UNL     1      10.923  12.270  17.686  0.00  0.00    +0.000 A 
BRANCH  12  13
ATOM     13  O   UNL     1      11.987  11.420  17.516  0.00  0.00    +0.000 OA
ATOM     14  H   UNL     1      12.391  11.251  18.382  0.00  0.00    +0.000 HD
ENDBRANCH  12  13
ENDBRANCH   6   7
ENDBRANCH   2   5
BRANCH   1  15
ATOM     15  C   UNL     1       6.775   6.298  17.206  0.00  0.00    +0.000 C 
BRANCH  15  16
ATOM     16  C   UNL     1       5.704   5.877  16.173  0.00  0.00    +0.000 C 
BRANCH  16  21
ATOM     17  C   UNL     1       1.102   3.411  18.793  0.00  0.00    +0.000 C 
ATOM     18  C   UNL     1       2.278   4.038  18.103  0.00  0.00    +0.000 A 
ATOM     19  C   UNL     1       3.180   3.265  17.365  0.00  0.00    +0.000 A 
ATOM     20  C   UNL     1       4.276   3.864  16.735  0.00  0.00    +0.000 A 
ATOM     21  C   UNL     1       4.500   5.245  16.842  0.00  0.00    +0.000 A 
ATOM     22  C   UNL     1       3.582   6.015  17.573  0.00  0.00    +0.000 A 
ATOM     23  C   UNL     1       2.485   5.416  18.199  0.00  0.00    +0.000 A 
ENDBRANCH  16  21
BRANCH  16  24
ATOM     24  O   UNL     1       5.254   6.969  15.368  0.00  0.00    +0.000 OA
ATOM     25  H   UNL     1       5.285   7.770  15.919  0.00  0.00    +0.000 HD
ENDBRANCH  16  24
ENDBRANCH  15  16
ENDBRANCH   1  15
TORSDOF 7
ENDMDL
MODEL 7
REMARK VINA RESULT:      -7.9      1.290      1.519
REMARK  Name = 
REMARK  8 active torsions:
REMARK  status: ('A' for Active; 'I' for Inactive)
REMARK    1  A    between atoms: C_1  and  C_2
REMARK    2  A    between atoms: C_5  and  C_6
REMARK    3  A    between atoms: C_6  and  O_7
REMARK    4  A    between atoms: C_6  and  C_8
REMARK    5  A    between atoms: C_8  and  N_9
REMARK    6  A    between atoms: C_10  and  C_12
REMARK    7  A    between atoms: C_13  and  C_14
REMARK    8  A    between atoms: C_19  and  O_20
REMARK                            x       y       z     vdW  Elec       q    Type
REMARK                         _______ _______ _______ _____ _____    ______ ____
ROOT
ATOM      1  N   UNL     1       6.530   7.311  17.067  0.00  0.00    +0.000 N 
ATOM      2  C   UNL     1       7.664   7.441  17.828  0.00  0.00    +0.000 C 
ATOM      3  O   UNL     1       8.228   6.502  18.386  0.00  0.00    +0.000 OA
ATOM      4  H   UNL     1       6.075   8.134  16.696  0.00  0.00    +0.000 HD
ENDROOT
BRANCH   2   5
ATOM      5  C   UNL     1       8.149   8.839  17.895  0.00  0.00    +0.000 C 
ATOM      6  C   UNL     1       8.890   9.262  18.929  0.00  0.00    +0.000 C 
BRANCH   6   7
ATOM      7  C   UNL     1       9.418  10.632  19.081  0.00  0.00    +0.000 A 
ATOM      8  C   UNL     1       9.662  11.358  17.903  0.00  0.00    +0.000 A 
ATOM      9  C   UNL     1      10.150  12.669  17.947  0.00  0.00    +0.000 A 
ATOM     10  C   UNL     1      10.389  13.282  19.172  0.00  0.00    +0.000 A 
ATOM     11  C   UNL     1      10.139  12.591  20.355  0.00  0.00    +0.000 A 
ATOM     12  C   UNL     1       9.653  11.279  20.308  0.00  0.00    +0.000 A 
BRANCH  12  13
ATOM     13  O   UNL     1       9.400  10.635  21.492  0.00  0.00    +0.000 OA
ATOM     14  H   UNL     1       8.603  10.091  21.387  0.00  0.00    +0.000 HD
ENDBRANCH  12  13
ENDBRANCH   6   7
ENDBRANCH   2   5
BRANCH   1  15
ATOM     15  C   UNL     1       5.893   6.014  16.865  0.00  0.00    +0.000 C 
BRANCH  15  16
ATOM     16  C   UNL     1       5.852   5.144  18.144  0.00  0.00    +0.000 C 
BRANCH  16  21
ATOM     17  C   UNL     1       0.610   2.665  18.850  0.00  0.00    +0.000 C 
ATOM     18  C   UNL     1       1.950   3.318  18.674  0.00  0.00    +0.000 A 
ATOM     19  C   UNL     1       2.123   4.384  17.786  0.00  0.00    +0.000 A 
ATOM     20  C   UNL     1       3.379   4.978  17.628  0.00  0.00    +0.000 A 
ATOM     21  C   UNL     1       4.492   4.507  18.343  0.00  0.00    +0.000 A 
ATOM     22  C   UNL     1       4.306   3.445  19.241  0.00  0.00    +0.000 A 
ATOM     23  C   UNL     1       3.049   2.856  19.402  0.00  0.00    +0.000 A 
ENDBRANCH  16  21
BRANCH  16  24
ATOM     24  O   UNL     1       6.840   4.111  18.141  0.00  0.00    +0.000 OA
ATOM     25  H   UNL     1       6.378   3.265  18.275  0.00  0.00    +0.000 HD
ENDBRANCH  16  24
ENDBRANCH  15  16
ENDBRANCH   1  15
TORSDOF 7
ENDMDL
MODEL 8
REMARK VINA RESULT:      -7.7      1.050      1.494
REMARK  Name = 
REMARK  8 active torsions:
REMARK  status: ('A' for Active; 'I' for Inactive)
REMARK    1  A    between atoms: C_1  and  C_2
REMARK    2  A    between atoms: C_5  and  C_6
REMARK    3  A    between atoms: C_6  and  O_7
REMARK    4  A    between atoms: C_6  and  C_8
REMARK    5  A    between atoms: C_8  and  N_9
REMARK    6  A    between atoms: C_10  and  C_12
REMARK    7  A    between atoms: C_13  and  C_14
REMARK    8  A    between atoms: C_19  and  O_20
REMARK                            x       y       z     vdW  Elec       q    Type
REMARK                         _______ _______ _______ _____ _____    ______ ____
ROOT
ATOM      1  N   UNL     1       7.233   7.448  16.912  0.00  0.00    +0.000 N 
ATOM      2  C   UNL     1       7.950   7.740  18.045  0.00  0.00    +0.000 C 
ATOM      3  O   UNL     1       8.295   6.903  18.875  0.00  0.00    +0.000 OA
ATOM      4  H   UNL     1       6.919   8.194  16.307  0.00  0.00    +0.000 HD
ENDROOT
BRANCH   2   5
ATOM      5  C   UNL     1       8.279   9.181  18.155  0.00  0.00    +0.000 C 
ATOM      6  C   UNL     1       9.263   9.603  18.961  0.00  0.00    +0.000 C 
BRANCH   6   7
ATOM      7  C   UNL     1       9.663  11.014  19.134  0.00  0.00    +0.000 A 
ATOM      8  C   UNL     1      10.026  11.722  17.976  0.00  0.00    +0.000 A 
ATOM      9  C   UNL     1      10.407  13.067  18.038  0.00  0.00    +0.000 A 
ATOM     10  C   UNL     1      10.417  13.732  19.260  0.00  0.00    +0.000 A 
ATOM     11  C   UNL     1      10.043  13.058  20.420  0.00  0.00    +0.000 A 
ATOM     12  C   UNL     1       9.666  11.711  20.355  0.00  0.00    +0.000 A 
BRANCH  12  13
ATOM     13  O   UNL     1       9.286  11.084  21.514  0.00  0.00    +0.000 OA
ATOM     14  H   UNL     1       9.832  10.290  21.632  0.00  0.00    +0.000 HD
ENDBRANCH  12  13
ENDBRANCH   6   7
ENDBRANCH   2   5
BRANCH   1  15
ATOM     15  C   UNL     1       6.815   6.083  16.608  0.00  0.00    +0.000 C 
BRANCH  15  16
ATOM     16  C   UNL     1       5.339   5.980  16.153  0.00  0.00    +0.000 C 
BRANCH  16  21
ATOM     17  C   UNL     1       1.702   6.853  20.640  0.00  0.00    +0.000 C 
ATOM     18  C   UNL     1       2.629   6.612  19.484  0.00  0.00    +0.000 A 
ATOM     19  C   UNL     1       3.487   5.508  19.463  0.00  0.00    +0.000 A 
ATOM     20  C   UNL     1       4.350   5.301  18.383  0.00  0.00    +0.000 A 
ATOM     21  C   UNL     1       4.383   6.203  17.307  0.00  0.00    +0.000 A 
ATOM     22  C   UNL     1       3.509   7.301  17.330  0.00  0.00    +0.000 A 
ATOM     23  C   UNL     1       2.644   7.503  18.409  0.00  0.00    +0.000 A 
ENDBRANCH  16  21
BRANCH  16  24
ATOM     24  O   UNL     1       5.017   6.904  15.112  0.00  0.00    +0.000 OA
ATOM     25  H   UNL     1       4.172   7.326  15.347  0.00  0.00    +0.000 HD
ENDBRANCH  16  24
ENDBRANCH  15  16
ENDBRANCH   1  15
TORSDOF 7
ENDMDL
MODEL 9
REMARK VINA RESULT:      -7.7      1.558      1.932
REMARK  Name = 
REMARK  8 active torsions:
REMARK  status: ('A' for Active; 'I' for Inactive)
REMARK    1  A    between atoms: C_1  and  C_2
REMARK    2  A    between atoms: C_5  and  C_6
REMARK    3  A    between atoms: C_6  and  O_7
REMARK    4  A    between atoms: C_6  and  C_8
REMARK    5  A    between atoms: C_8  and  N_9
REMARK    6  A    between atoms: C_10  and  C_12
REMARK    7  A    between atoms: C_13  and  C_14
REMARK    8  A    between atoms: C_19  and  O_20
REMARK                            x       y       z     vdW  Elec       q    Type
REMARK                         _______ _______ _______ _____ _____    ______ ____
ROOT
ATOM      1  N   UNL     1       6.230   7.530  17.858  0.00  0.00    +0.000 N 
ATOM      2  C   UNL     1       7.479   7.606  17.294  0.00  0.00    +0.000 C 
ATOM      3  O   UNL     1       7.999   6.698  16.651  0.00  0.00    +0.000 OA
ATOM      4  H   UNL     1       5.891   8.286  18.437  0.00  0.00    +0.000 HD
ENDROOT
BRANCH   2   5
ATOM      5  C   UNL     1       8.133   8.914  17.533  0.00  0.00    +0.000 C 
ATOM      6  C   UNL     1       8.703   9.193  18.714  0.00  0.00    +0.000 C 
BRANCH   6   7
ATOM      7  C   UNL     1       9.378  10.464  19.043  0.00  0.00    +0.000 A 
ATOM      8  C   UNL     1       9.826  11.248  17.966  0.00  0.00    +0.000 A 
ATOM      9  C   UNL     1      10.465  12.475  18.179  0.00  0.00    +0.000 A 
ATOM     10  C   UNL     1      10.654  12.947  19.474  0.00  0.00    +0.000 A 
ATOM     11  C   UNL     1      10.203  12.197  20.558  0.00  0.00    +0.000 A 
ATOM     12  C   UNL     1       9.567  10.969  20.342  0.00  0.00    +0.000 A 
BRANCH  12  13
ATOM     13  O   UNL     1       9.119  10.267  21.432  0.00  0.00    +0.000 OA
ATOM     14  H   UNL     1       8.150  10.311  21.454  0.00  0.00    +0.000 HD
ENDBRANCH  12  13
ENDBRANCH   6   7
ENDBRANCH   2   5
BRANCH   1  15
ATOM     15  C   UNL     1       5.411   6.328  17.733  0.00  0.00    +0.000 C 
BRANCH  15  16
ATOM     16  C   UNL     1       5.824   5.199  18.706  0.00  0.00    +0.000 C 
BRANCH  16  21
ATOM     17  C   UNL     1       1.140   2.776  21.219  0.00  0.00    +0.000 C 
ATOM     18  C   UNL     1       2.346   3.409  20.588  0.00  0.00    +0.000 A 
ATOM     19  C   UNL     1       2.400   4.787  20.355  0.00  0.00    +0.000 A 
ATOM     20  C   UNL     1       3.528   5.361  19.759  0.00  0.00    +0.000 A 
ATOM     21  C   UNL     1       4.619   4.567  19.371  0.00  0.00    +0.000 A 
ATOM     22  C   UNL     1       4.561   3.187  19.622  0.00  0.00    +0.000 A 
ATOM     23  C   UNL     1       3.435   2.616  20.221  0.00  0.00    +0.000 A 
ENDBRANCH  16  21
BRANCH  16  24
ATOM     24  O   UNL     1       6.581   4.169  18.068  0.00  0.00    +0.000 OA
ATOM     25  H   UNL     1       6.172   3.999  17.202  0.00  0.00    +0.000 HD
ENDBRANCH  16  24
ENDBRANCH  15  16
ENDBRANCH   1  15
TORSDOF 7
ENDMDL
