MODEL 1
REMARK VINA RESULT:      -9.0      0.000      0.000
REMARK  Name = 
REMARK  7 active torsions:
REMARK  status: ('A' for Active; 'I' for Inactive)
REMARK    1  A    between atoms: C_2  and  C_3
REMARK    2  A    between atoms: C_3  and  C_4
REMARK    3  A    between atoms: C_4  and  N_5
REMARK    4  A    between atoms: N_5  and  S_6
REMARK    5  A    between atoms: S_6  and  C_9
REMARK    6  A    between atoms: N_19  and  C_20
REMARK    7  A    between atoms: C_20  and  C_21
REMARK                            x       y       z     vdW  Elec       q    Type
REMARK                         _______ _______ _______ _____ _____    ______ ____
ROOT
ATOM      1  N   UNL     1       6.459   4.243  18.119  0.00  0.00    +0.000 NA
ATOM      2  H   UNL     1       6.118   4.237  19.081  0.00  0.00    +0.000 HD
ENDROOT
BRANCH   1   3
ATOM      3  S   UNL     1       5.148   4.488  17.072  0.00  0.00    +0.000 S 
ATOM      4  O   UNL     1       5.035   5.920  16.904  0.00  0.00    +0.000 OA
ATOM      5  O   UNL     1       5.300   3.604  15.938  0.00  0.00    +0.000 OA
BRANCH   3   6
ATOM      6  C   UNL     1       3.743   3.962  18.024  0.00  0.00    +0.000 A 
ATOM      7  C   UNL     1       2.441   4.112  17.487  0.00  0.00    +0.000 A 
ATOM      8  C   UNL     1       1.315   3.800  18.258  0.00  0.00    +0.000 A 
ATOM      9  C   UNL     1       1.548   3.354  19.537  0.00  0.00    +0.000 A 
ATOM     10  N   UNL     1       0.677   2.992  20.522  0.00  0.00    +0.000 N 
ATOM     11  C   UNL     1       1.417   2.638  21.626  0.00  0.00    +0.000 A 
ATOM     12  O   UNL     1       0.948   2.264  22.692  0.00  0.00    +0.000 OA
ATOM     13  O   UNL     1       2.791   2.756  21.377  0.00  0.00    +0.000 OA
ATOM     14  C   UNL     1       2.815   3.206  20.065  0.00  0.00    +0.000 A 
ATOM     15  C   UNL     1       3.944   3.508  19.334  0.00  0.00    +0.000 A 
ATOM     16  H   UNL     1      -0.329   2.987  20.499  0.00  0.00    +0.000 HD
ENDBRANCH   3   6
ENDBRANCH   1   3
BRANCH   1  17
ATOM     17  C   UNL     1       7.677   5.030  17.842  0.00  0.00    +0.000 C 
BRANCH  17  18
ATOM     18  C   UNL     1       7.837   6.172  18.843  0.00  0.00    +0.000 C 
BRANCH  18  20
ATOM     19  O   UNL     1       7.564   7.646  16.954  0.00  0.00    +0.000 OA
ATOM     20  C   UNL     1       7.987   7.484  18.095  0.00  0.00    +0.000 C 
ATOM     21  N   UNL     1       8.634   8.472  18.798  0.00  0.00    +0.000 N 
ATOM     22  H   UNL     1       9.013   8.282  19.716  0.00  0.00    +0.000 HD
BRANCH  21  23
ATOM     23  C   UNL     1       8.890   9.778  18.218  0.00  0.00    +0.000 C 
BRANCH  23  24
ATOM     24  C   UNL     1       9.440  10.737  19.242  0.00  0.00    +0.000 A 
ATOM     25  C   UNL     1       8.930  10.690  20.553  0.00  0.00    +0.000 A 
ATOM     26  C   UNL     1       9.406  11.555  21.541  0.00  0.00    +0.000 A 
ATOM     27  C   UNL     1      10.406  12.475  21.238  0.00  0.00    +0.000 A 
ATOM     28  C   UNL     1      10.929  12.528  19.946  0.00  0.00    +0.000 A 
ATOM     29  C   UNL     1      10.453  11.663  18.955  0.00  0.00    +0.000 A 
ATOM     30 CL   UNL     1      11.167  11.776  17.386  0.00  0.00    +0.000 Cl
ENDBRANCH  23  24
ENDBRANCH  21  23
ENDBRANCH  18  20
ENDBRANCH  17  18
ENDBRANCH   1  17
TORSDOF 7
ENDMDL
MODEL 2
REMARK VINA RESULT:      -8.6      3.991      7.056
REMARK  Name = 
REMARK  7 active torsions:
REMARK  status: ('A' for Active; 'I' for Inactive)
REMARK    1  A    between atoms: C_2  and  C_3
REMARK    2  A    between atoms: C_3  and  C_4
REMARK    3  A    between atoms: C_4  and  N_5
REMARK    4  A    between atoms: N_5  and  S_6
REMARK    5  A    between atoms: S_6  and  C_9
REMARK    6  A    between atoms: N_19  and  C_20
REMARK    7  A    between atoms: C_20  and  C_21
REMARK                            x       y       z     vdW  Elec       q    Type
REMARK                         _______ _______ _______ _____ _____    ______ ____
ROOT
ATOM      1  N   UNL     1       2.710   2.383  19.907  0.00  0.00    +0.000 NA
ATOM      2  H   UNL     1       2.600   2.026  20.857  0.00  0.00    +0.000 HD
ENDROOT
BRANCH   1   3
ATOM      3  S   UNL     1       4.245   1.950  19.332  0.00  0.00    +0.000 S 
ATOM      4  O   UNL     1       5.102   1.881  20.495  0.00  0.00    +0.000 OA
ATOM      5  O   UNL     1       4.094   0.825  18.436  0.00  0.00    +0.000 OA
BRANCH   3   6
ATOM      6  C   UNL     1       4.758   3.367  18.389  0.00  0.00    +0.000 A 
ATOM      7  C   UNL     1       4.369   3.480  17.032  0.00  0.00    +0.000 A 
ATOM      8  C   UNL     1       4.845   4.533  16.243  0.00  0.00    +0.000 A 
ATOM      9  C   UNL     1       5.694   5.426  16.852  0.00  0.00    +0.000 A 
ATOM     10  N   UNL     1       6.329   6.527  16.356  0.00  0.00    +0.000 N 
ATOM     11  C   UNL     1       7.084   7.068  17.371  0.00  0.00    +0.000 A 
ATOM     12  O   UNL     1       7.783   8.065  17.267  0.00  0.00    +0.000 OA
ATOM     13  O   UNL     1       6.949   6.329  18.555  0.00  0.00    +0.000 OA
ATOM     14  C   UNL     1       6.077   5.320  18.175  0.00  0.00    +0.000 A 
ATOM     15  C   UNL     1       5.629   4.293  18.978  0.00  0.00    +0.000 A 
ATOM     16  H   UNL     1       6.296   6.902  15.424  0.00  0.00    +0.000 HD
ENDBRANCH   3   6
ENDBRANCH   1   3
BRANCH   1  17
ATOM     17  C   UNL     1       1.581   2.185  18.978  0.00  0.00    +0.000 C 
BRANCH  17  18
ATOM     18  C   UNL     1       0.973   3.521  18.554  0.00  0.00    +0.000 C 
BRANCH  18  20
ATOM     19  O   UNL     1       0.828   4.610  20.701  0.00  0.00    +0.000 OA
ATOM     20  C   UNL     1       1.324   4.584  19.579  0.00  0.00    +0.000 C 
ATOM     21  N   UNL     1       2.240   5.513  19.147  0.00  0.00    +0.000 N 
ATOM     22  H   UNL     1       2.586   5.487  18.197  0.00  0.00    +0.000 HD
BRANCH  21  23
ATOM     23  C   UNL     1       2.663   6.616  19.990  0.00  0.00    +0.000 C 
BRANCH  23  24
ATOM     24  C   UNL     1       1.927   7.886  19.646  0.00  0.00    +0.000 A 
ATOM     25  C   UNL     1       1.055   8.441  20.601  0.00  0.00    +0.000 A 
ATOM     26  C   UNL     1       0.351   9.617  20.335  0.00  0.00    +0.000 A 
ATOM     27  C   UNL     1       0.513  10.264  19.112  0.00  0.00    +0.000 A 
ATOM     28  C   UNL     1       1.380   9.732  18.158  0.00  0.00    +0.000 A 
ATOM     29  C   UNL     1       2.086   8.554  18.423  0.00  0.00    +0.000 A 
ATOM     30 CL   UNL     1       3.157   7.972  17.199  0.00  0.00    +0.000 Cl
ENDBRANCH  23  24
ENDBRANCH  21  23
ENDBRANCH  18  20
ENDBRANCH  17  18
ENDBRANCH   1  17
TORSDOF 7
ENDMDL
MODEL 3
REMARK VINA RESULT:      -8.6      1.028      1.130
REMARK  Name = 
REMARK  7 active torsions:
REMARK  status: ('A' for Active; 'I' for Inactive)
REMARK    1  A    between atoms: C_2  and  C_3
REMARK    2  A    between atoms: C_3  and  C_4
REMARK    3  A    between atoms: C_4  and  N_5
REMARK    4  A    between atoms: N_5  and  S_6
REMARK    5  A    between atoms: S_6  and  C_9
REMARK    6  A    between atoms: N_19  and  C_20
REMARK    7  A    between atoms: C_20  and  C_21
REMARK                            x       y       z     vdW  Elec       q    Type
REMARK                         _______ _______ _______ _____ _____    ______ ____
ROOT
ATOM      1  N   UNL     1       6.241   4.685  18.021  0.00  0.00    +0.000 NA
ATOM      2  H   UNL     1       6.221   3.699  18.286  0.00  0.00    +0.000 HD
ENDROOT
BRANCH   1   3
ATOM      3  S   UNL     1       4.858   5.038  17.107  0.00  0.00    +0.000 S 
ATOM      4  O   UNL     1       4.686   6.472  17.181  0.00  0.00    +0.000 OA
ATOM      5  O   UNL     1       4.965   4.354  15.837  0.00  0.00    +0.000 OA
BRANCH   3   6
ATOM      6  C   UNL     1       3.535   4.305  18.041  0.00  0.00    +0.000 A 
ATOM      7  C   UNL     1       2.234   4.253  17.485  0.00  0.00    +0.000 A 
ATOM      8  C   UNL     1       1.158   3.774  18.241  0.00  0.00    +0.000 A 
ATOM      9  C   UNL     1       1.437   3.372  19.526  0.00  0.00    +0.000 A 
ATOM     10  N   UNL     1       0.617   2.884  20.500  0.00  0.00    +0.000 N 
ATOM     11  C   UNL     1       1.386   2.650  21.617  0.00  0.00    +0.000 A 
ATOM     12  O   UNL     1       0.964   2.212  22.677  0.00  0.00    +0.000 OA
ATOM     13  O   UNL     1       2.729   2.977  21.386  0.00  0.00    +0.000 OA
ATOM     14  C   UNL     1       2.704   3.422  20.073  0.00  0.00    +0.000 A 
ATOM     15  C   UNL     1       3.784   3.891  19.357  0.00  0.00    +0.000 A 
ATOM     16  H   UNL     1      -0.376   2.725  20.462  0.00  0.00    +0.000 HD
ENDBRANCH   3   6
ENDBRANCH   1   3
BRANCH   1  17
ATOM     17  C   UNL     1       6.598   5.658  19.073  0.00  0.00    +0.000 C 
BRANCH  17  18
ATOM     18  C   UNL     1       8.020   6.182  18.881  0.00  0.00    +0.000 C 
BRANCH  18  20
ATOM     19  O   UNL     1       7.775   7.244  16.730  0.00  0.00    +0.000 OA
ATOM     20  C   UNL     1       7.999   7.365  17.930  0.00  0.00    +0.000 C 
ATOM     21  N   UNL     1       8.250   8.579  18.523  0.00  0.00    +0.000 N 
ATOM     22  H   UNL     1       8.480   8.630  19.506  0.00  0.00    +0.000 HD
BRANCH  21  23
ATOM     23  C   UNL     1       8.297   9.808  17.752  0.00  0.00    +0.000 C 
BRANCH  23  24
ATOM     24  C   UNL     1       9.009  10.903  18.505  0.00  0.00    +0.000 A 
ATOM     25  C   UNL     1       9.927  10.544  19.510  0.00  0.00    +0.000 A 
ATOM     26  C   UNL     1      10.616  11.519  20.236  0.00  0.00    +0.000 A 
ATOM     27  C   UNL     1      10.406  12.868  19.964  0.00  0.00    +0.000 A 
ATOM     28  C   UNL     1       9.507  13.240  18.965  0.00  0.00    +0.000 A 
ATOM     29  C   UNL     1       8.815  12.266  18.237  0.00  0.00    +0.000 A 
ATOM     30 CL   UNL     1       7.737  12.808  17.002  0.00  0.00    +0.000 Cl
ENDBRANCH  23  24
ENDBRANCH  21  23
ENDBRANCH  18  20
ENDBRANCH  17  18
ENDBRANCH   1  17
TORSDOF 7
ENDMDL
MODEL 4
REMARK VINA RESULT:      -8.4      5.219      7.755
REMARK  Name = 
REMARK  7 active torsions:
REMARK  status: ('A' for Active; 'I' for Inactive)
REMARK    1  A    between atoms: C_2  and  C_3
REMARK    2  A    between atoms: C_3  and  C_4
REMARK    3  A    between atoms: C_4  and  N_5
REMARK    4  A    between atoms: N_5  and  S_6
REMARK    5  A    between atoms: S_6  and  C_9
REMARK    6  A    between atoms: N_19  and  C_20
REMARK    7  A    between atoms: C_20  and  C_21
REMARK                            x       y       z     vdW  Elec       q    Type
REMARK                         _______ _______ _______ _____ _____    ______ ____
ROOT
ATOM      1  N   UNL     1       2.003   4.745  18.458  0.00  0.00    +0.000 NA
ATOM      2  H   UNL     1       1.847   4.846  17.454  0.00  0.00    +0.000 HD
ENDROOT
BRANCH   1   3
ATOM      3  S   UNL     1       3.052   3.440  18.723  0.00  0.00    +0.000 S 
ATOM      4  O   UNL     1       3.395   3.482  20.127  0.00  0.00    +0.000 OA
ATOM      5  O   UNL     1       2.470   2.259  18.123  0.00  0.00    +0.000 OA
BRANCH   3   6
ATOM      6  C   UNL     1       4.514   3.881  17.815  0.00  0.00    +0.000 A 
ATOM      7  C   UNL     1       5.679   4.275  18.517  0.00  0.00    +0.000 A 
ATOM      8  C   UNL     1       6.809   4.724  17.823  0.00  0.00    +0.000 A 
ATOM      9  C   UNL     1       6.715   4.761  16.452  0.00  0.00    +0.000 A 
ATOM     10  N   UNL     1       7.620   5.160  15.512  0.00  0.00    +0.000 N 
ATOM     11  C   UNL     1       7.030   5.020  14.277  0.00  0.00    +0.000 A 
ATOM     12  O   UNL     1       7.565   5.291  13.212  0.00  0.00    +0.000 OA
ATOM     13  O   UNL     1       5.726   4.519  14.390  0.00  0.00    +0.000 OA
ATOM     14  C   UNL     1       5.581   4.379  15.763  0.00  0.00    +0.000 A 
ATOM     15  C   UNL     1       4.452   3.935  16.416  0.00  0.00    +0.000 A 
ATOM     16  H   UNL     1       8.551   5.514  15.649  0.00  0.00    +0.000 HD
ENDBRANCH   3   6
ENDBRANCH   1   3
BRANCH   1  17
ATOM     17  C   UNL     1       2.281   5.976  19.224  0.00  0.00    +0.000 C 
BRANCH  17  18
ATOM     18  C   UNL     1       3.093   6.971  18.395  0.00  0.00    +0.000 C 
BRANCH  18  20
ATOM     19  O   UNL     1       2.316   8.901  17.177  0.00  0.00    +0.000 OA
ATOM     20  C   UNL     1       2.296   8.250  18.216  0.00  0.00    +0.000 C 
ATOM     21  N   UNL     1       1.552   8.616  19.313  0.00  0.00    +0.000 N 
ATOM     22  H   UNL     1       1.602   8.080  20.168  0.00  0.00    +0.000 HD
BRANCH  21  23
ATOM     23  C   UNL     1       0.756   9.830  19.321  0.00  0.00    +0.000 C 
BRANCH  23  24
ATOM     24  C   UNL     1       0.151  10.082  20.678  0.00  0.00    +0.000 A 
ATOM     25  C   UNL     1       0.458   9.198  21.729  0.00  0.00    +0.000 A 
ATOM     26  C   UNL     1      -0.073   9.387  23.007  0.00  0.00    +0.000 A 
ATOM     27  C   UNL     1      -0.913  10.468  23.259  0.00  0.00    +0.000 A 
ATOM     28  C   UNL     1      -1.219  11.360  22.232  0.00  0.00    +0.000 A 
ATOM     29  C   UNL     1      -0.689  11.172  20.951  0.00  0.00    +0.000 A 
ATOM     30 CL   UNL     1      -1.099  12.332  19.738  0.00  0.00    +0.000 Cl
ENDBRANCH  23  24
ENDBRANCH  21  23
ENDBRANCH  18  20
ENDBRANCH  17  18
ENDBRANCH   1  17
TORSDOF 7
ENDMDL
MODEL 5
REMARK VINA RESULT:      -8.4      4.833      7.376
REMARK  Name = 
REMARK  7 active torsions:
REMARK  status: ('A' for Active; 'I' for Inactive)
REMARK    1  A    between atoms: C_2  and  C_3
REMARK    2  A    between atoms: C_3  and  C_4
REMARK    3  A    between atoms: C_4  and  N_5
REMARK    4  A    between atoms: N_5  and  S_6
REMARK    5  A    between atoms: S_6  and  C_9
REMARK    6  A    between atoms: N_19  and  C_20
REMARK    7  A    between atoms: C_20  and  C_21
REMARK                            x       y       z     vdW  Elec       q    Type
REMARK                         _______ _______ _______ _____ _____    ______ ____
ROOT
ATOM      1  N   UNL     1       3.010   3.059  20.578  0.00  0.00    +0.000 NA
ATOM      2  H   UNL     1       2.690   2.404  21.293  0.00  0.00    +0.000 HD
ENDROOT
BRANCH   1   3
ATOM      3  S   UNL     1       4.063   2.252  19.523  0.00  0.00    +0.000 S 
ATOM      4  O   UNL     1       5.157   1.774  20.339  0.00  0.00    +0.000 OA
ATOM      5  O   UNL     1       3.282   1.351  18.703  0.00  0.00    +0.000 OA
BRANCH   3   6
ATOM      6  C   UNL     1       4.706   3.549  18.493  0.00  0.00    +0.000 A 
ATOM      7  C   UNL     1       4.448   3.528  17.101  0.00  0.00    +0.000 A 
ATOM      8  C   UNL     1       5.029   4.481  16.256  0.00  0.00    +0.000 A 
ATOM      9  C   UNL     1       5.848   5.412  16.849  0.00  0.00    +0.000 A 
ATOM     10  N   UNL     1       6.562   6.440  16.305  0.00  0.00    +0.000 N 
ATOM     11  C   UNL     1       7.238   7.066  17.326  0.00  0.00    +0.000 A 
ATOM     12  O   UNL     1       7.977   8.030  17.187  0.00  0.00    +0.000 OA
ATOM     13  O   UNL     1       6.971   6.459  18.561  0.00  0.00    +0.000 OA
ATOM     14  C   UNL     1       6.105   5.437  18.206  0.00  0.00    +0.000 A 
ATOM     15  C   UNL     1       5.551   4.511  19.064  0.00  0.00    +0.000 A 
ATOM     16  H   UNL     1       6.627   6.716  15.340  0.00  0.00    +0.000 HD
ENDBRANCH   3   6
ENDBRANCH   1   3
BRANCH   1  17
ATOM     17  C   UNL     1       1.991   3.926  19.953  0.00  0.00    +0.000 C 
BRANCH  17  18
ATOM     18  C   UNL     1       1.543   5.030  20.909  0.00  0.00    +0.000 C 
BRANCH  18  20
ATOM     19  O   UNL     1       2.483   6.513  19.257  0.00  0.00    +0.000 OA
ATOM     20  C   UNL     1       1.833   6.384  20.289  0.00  0.00    +0.000 C 
ATOM     21  N   UNL     1       1.307   7.452  20.977  0.00  0.00    +0.000 N 
ATOM     22  H   UNL     1       0.820   7.307  21.851  0.00  0.00    +0.000 HD
BRANCH  21  23
ATOM     23  C   UNL     1       1.516   8.819  20.538  0.00  0.00    +0.000 C 
BRANCH  23  24
ATOM     24  C   UNL     1       0.646   9.783  21.303  0.00  0.00    +0.000 A 
ATOM     25  C   UNL     1      -0.042   9.316  22.439  0.00  0.00    +0.000 A 
ATOM     26  C   UNL     1      -0.860  10.167  23.185  0.00  0.00    +0.000 A 
ATOM     27  C   UNL     1      -0.998  11.502  22.814  0.00  0.00    +0.000 A 
ATOM     28  C   UNL     1      -0.316  11.984  21.697  0.00  0.00    +0.000 A 
ATOM     29  C   UNL     1       0.503  11.132  20.948  0.00  0.00    +0.000 A 
ATOM     30 CL   UNL     1       1.332  11.810  19.592  0.00  0.00    +0.000 Cl
ENDBRANCH  23  24
ENDBRANCH  21  23
ENDBRANCH  18  20
ENDBRANCH  17  18
ENDBRANCH   1  17
TORSDOF 7
ENDMDL
MODEL 6
REMARK VINA RESULT:      -8.3      5.047      7.979
REMARK  Name = 
REMARK  7 active torsions:
REMARK  status: ('A' for Active; 'I' for Inactive)
REMARK    1  A    between atoms: C_2  and  C_3
REMARK    2  A    between atoms: C_3  and  C_4
REMARK    3  A    between atoms: C_4  and  N_5
REMARK    4  A    between atoms: N_5  and  S_6
REMARK    5  A    between atoms: S_6  and  C_9
REMARK    6  A    between atoms: N_19  and  C_20
REMARK    7  A    between atoms: C_20  and  C_21
REMARK                            x       y       z     vdW  Elec       q    Type
REMARK                         _______ _______ _______ _____ _____    ______ ____
ROOT
ATOM      1  N   UNL     1       3.941   7.230  17.403  0.00  0.00    +0.000 NA
ATOM      2  H   UNL     1       3.454   7.348  16.514  0.00  0.00    +0.000 HD
ENDROOT
BRANCH   1   3
ATOM      3  S   UNL     1       2.874   6.546  18.529  0.00  0.00    +0.000 S 
ATOM      4  O   UNL     1       1.949   5.741  17.762  0.00  0.00    +0.000 OA
ATOM      5  O   UNL     1       3.652   5.982  19.609  0.00  0.00    +0.000 OA
BRANCH   3   6
ATOM      6  C   UNL     1       1.962   7.940  19.148  0.00  0.00    +0.000 A 
ATOM      7  C   UNL     1       1.740   9.058  18.307  0.00  0.00    +0.000 A 
ATOM      8  C   UNL     1       1.115  10.207  18.804  0.00  0.00    +0.000 A 
ATOM      9  C   UNL     1       0.743  10.183  20.128  0.00  0.00    +0.000 A 
ATOM     10  N   UNL     1       0.142  11.136  20.897  0.00  0.00    +0.000 N 
ATOM     11  C   UNL     1       0.003  10.623  22.166  0.00  0.00    +0.000 A 
ATOM     12  O   UNL     1      -0.497  11.217  23.110  0.00  0.00    +0.000 OA
ATOM     13  O   UNL     1       0.509   9.318  22.245  0.00  0.00    +0.000 OA
ATOM     14  C   UNL     1       0.958   9.096  20.952  0.00  0.00    +0.000 A 
ATOM     15  C   UNL     1       1.574   7.952  20.495  0.00  0.00    +0.000 A 
ATOM     16  H   UNL     1      -0.149  12.062  20.635  0.00  0.00    +0.000 HD
ENDBRANCH   3   6
ENDBRANCH   1   3
BRANCH   1  17
ATOM     17  C   UNL     1       5.301   6.657  17.356  0.00  0.00    +0.000 C 
BRANCH  17  18
ATOM     18  C   UNL     1       5.347   5.415  16.468  0.00  0.00    +0.000 C 
BRANCH  18  20
ATOM     19  O   UNL     1       5.990   3.816  18.154  0.00  0.00    +0.000 OA
ATOM     20  C   UNL     1       5.162   4.175  17.323  0.00  0.00    +0.000 C 
ATOM     21  N   UNL     1       3.994   3.488  17.089  0.00  0.00    +0.000 N 
ATOM     22  H   UNL     1       3.362   3.788  16.360  0.00  0.00    +0.000 HD
BRANCH  21  23
ATOM     23  C   UNL     1       3.676   2.263  17.799  0.00  0.00    +0.000 C 
BRANCH  23  24
ATOM     24  C   UNL     1       2.861   2.539  19.036  0.00  0.00    +0.000 A 
ATOM     25  C   UNL     1       1.521   2.943  18.885  0.00  0.00    +0.000 A 
ATOM     26  C   UNL     1       0.720   3.209  19.999  0.00  0.00    +0.000 A 
ATOM     27  C   UNL     1       1.242   3.067  21.282  0.00  0.00    +0.000 A 
ATOM     28  C   UNL     1       2.565   2.659  21.449  0.00  0.00    +0.000 A 
ATOM     29  C   UNL     1       3.369   2.392  20.335  0.00  0.00    +0.000 A 
ATOM     30 CL   UNL     1       4.989   1.869  20.626  0.00  0.00    +0.000 Cl
ENDBRANCH  23  24
ENDBRANCH  21  23
ENDBRANCH  18  20
ENDBRANCH  17  18
ENDBRANCH   1  17
TORSDOF 7
ENDMDL
MODEL 7
REMARK VINA RESULT:      -8.3      2.820      3.640
REMARK  Name = 
REMARK  7 active torsions:
REMARK  status: ('A' for Active; 'I' for Inactive)
REMARK    1  A    between atoms: C_2  and  C_3
REMARK    2  A    between atoms: C_3  and  C_4
REMARK    3  A    between atoms: C_4  and  N_5
REMARK    4  A    between atoms: N_5  and  S_6
REMARK    5  A    between atoms: S_6  and  C_9
REMARK    6  A    between atoms: N_19  and  C_20
REMARK    7  A    between atoms: C_20  and  C_21
REMARK                            x       y       z     vdW  Elec       q    Type
REMARK                         _______ _______ _______ _____ _____    ______ ____
ROOT
ATOM      1  N   UNL     1       5.952   4.836  17.125  0.00  0.00    +0.000 NA
ATOM      2  H   UNL     1       5.768   4.508  16.176  0.00  0.00    +0.000 HD
ENDROOT
BRANCH   1   3
ATOM      3  S   UNL     1       4.813   4.150  18.176  0.00  0.00    +0.000 S 
ATOM      4  O   UNL     1       3.971   3.308  17.356  0.00  0.00    +0.000 OA
ATOM      5  O   UNL     1       5.513   3.626  19.328  0.00  0.00    +0.000 OA
BRANCH   3   6
ATOM      6  C   UNL     1       3.824   5.535  18.690  0.00  0.00    +0.000 A 
ATOM      7  C   UNL     1       3.134   5.479  19.925  0.00  0.00    +0.000 A 
ATOM      8  C   UNL     1       2.269   6.514  20.302  0.00  0.00    +0.000 A 
ATOM      9  C   UNL     1       2.134   7.558  19.418  0.00  0.00    +0.000 A 
ATOM     10  N   UNL     1       1.369   8.685  19.487  0.00  0.00    +0.000 N 
ATOM     11  C   UNL     1       1.578   9.404  18.333  0.00  0.00    +0.000 A 
ATOM     12  O   UNL     1       1.044  10.471  18.068  0.00  0.00    +0.000 OA
ATOM     13  O   UNL     1       2.494   8.759  17.490  0.00  0.00    +0.000 OA
ATOM     14  C   UNL     1       2.805   7.616  18.212  0.00  0.00    +0.000 A 
ATOM     15  C   UNL     1       3.660   6.613  17.810  0.00  0.00    +0.000 A 
ATOM     16  H   UNL     1       0.739   8.971  20.217  0.00  0.00    +0.000 HD
ENDBRANCH   3   6
ENDBRANCH   1   3
BRANCH   1  17
ATOM     17  C   UNL     1       7.357   4.823  17.581  0.00  0.00    +0.000 C 
BRANCH  17  18
ATOM     18  C   UNL     1       7.653   6.013  18.492  0.00  0.00    +0.000 C 
BRANCH  18  20
ATOM     19  O   UNL     1       6.993   7.383  16.621  0.00  0.00    +0.000 OA
ATOM     20  C   UNL     1       7.602   7.296  17.683  0.00  0.00    +0.000 C 
ATOM     21  N   UNL     1       8.292   8.348  18.236  0.00  0.00    +0.000 N 
ATOM     22  H   UNL     1       8.823   8.221  19.087  0.00  0.00    +0.000 HD
BRANCH  21  23
ATOM     23  C   UNL     1       8.371   9.638  17.576  0.00  0.00    +0.000 C 
BRANCH  23  24
ATOM     24  C   UNL     1       8.930  10.694  18.496  0.00  0.00    +0.000 A 
ATOM     25  C   UNL     1       9.728  10.289  19.582  0.00  0.00    +0.000 A 
ATOM     26  C   UNL     1      10.273  11.226  20.463  0.00  0.00    +0.000 A 
ATOM     27  C   UNL     1      10.035  12.585  20.269  0.00  0.00    +0.000 A 
ATOM     28  C   UNL     1       9.253  13.003  19.192  0.00  0.00    +0.000 A 
ATOM     29  C   UNL     1       8.707  12.066  18.309  0.00  0.00    +0.000 A 
ATOM     30 CL   UNL     1       7.769  12.666  16.988  0.00  0.00    +0.000 Cl
ENDBRANCH  23  24
ENDBRANCH  21  23
ENDBRANCH  18  20
ENDBRANCH  17  18
ENDBRANCH   1  17
TORSDOF 7
ENDMDL
MODEL 8
REMARK VINA RESULT:      -8.2      4.373      6.790
REMARK  Name = 
REMARK  7 active torsions:
REMARK  status: ('A' for Active; 'I' for Inactive)
REMARK    1  A    between atoms: C_2  and  C_3
REMARK    2  A    between atoms: C_3  and  C_4
REMARK    3  A    between atoms: C_4  and  N_5
REMARK    4  A    between atoms: N_5  and  S_6
REMARK    5  A    between atoms: S_6  and  C_9
REMARK    6  A    between atoms: N_19  and  C_20
REMARK    7  A    between atoms: C_20  and  C_21
REMARK                            x       y       z     vdW  Elec       q    Type
REMARK                         _______ _______ _______ _____ _____    ______ ____
ROOT
ATOM      1  N   UNL     1       1.719   4.819  18.880  0.00  0.00    +0.000 NA
ATOM      2  H   UNL     1       1.005   5.463  18.539  0.00  0.00    +0.000 HD
ENDROOT
BRANCH   1   3
ATOM      3  S   UNL     1       2.638   5.597  20.073  0.00  0.00    +0.000 S 
ATOM      4  O   UNL     1       2.370   4.890  21.306  0.00  0.00    +0.000 OA
ATOM      5  O   UNL     1       3.985   5.763  19.574  0.00  0.00    +0.000 OA
BRANCH   3   6
ATOM      6  C   UNL     1       1.879   7.198  20.214  0.00  0.00    +0.000 A 
ATOM      7  C   UNL     1       1.092   7.500  21.352  0.00  0.00    +0.000 A 
ATOM      8  C   UNL     1       0.403   8.715  21.437  0.00  0.00    +0.000 A 
ATOM      9  C   UNL     1       0.531   9.572  20.370  0.00  0.00    +0.000 A 
ATOM     10  N   UNL     1      -0.020  10.800  20.147  0.00  0.00    +0.000 N 
ATOM     11  C   UNL     1       0.408  11.234  18.914  0.00  0.00    +0.000 A 
ATOM     12  O   UNL     1       0.099  12.300  18.402  0.00  0.00    +0.000 OA
ATOM     13  O   UNL     1       1.256  10.295  18.311  0.00  0.00    +0.000 OA
ATOM     14  C   UNL     1       1.295   9.282  19.257  0.00  0.00    +0.000 A 
ATOM     15  C   UNL     1       1.984   8.094  19.141  0.00  0.00    +0.000 A 
ATOM     16  H   UNL     1      -0.644  11.323  20.738  0.00  0.00    +0.000 HD
ENDBRANCH   3   6
ENDBRANCH   1   3
BRANCH   1  17
ATOM     17  C   UNL     1       1.292   3.437  19.177  0.00  0.00    +0.000 C 
BRANCH  17  18
ATOM     18  C   UNL     1       2.303   2.420  18.649  0.00  0.00    +0.000 C 
BRANCH  18  20
ATOM     19  O   UNL     1       2.502   3.254  16.395  0.00  0.00    +0.000 OA
ATOM     20  C   UNL     1       3.047   3.014  17.467  0.00  0.00    +0.000 C 
ATOM     21  N   UNL     1       4.380   3.261  17.698  0.00  0.00    +0.000 N 
ATOM     22  H   UNL     1       4.803   3.002  18.578  0.00  0.00    +0.000 HD
BRANCH  21  23
ATOM     23  C   UNL     1       5.245   3.799  16.664  0.00  0.00    +0.000 C 
BRANCH  23  24
ATOM     24  C   UNL     1       6.117   4.907  17.197  0.00  0.00    +0.000 A 
ATOM     25  C   UNL     1       7.013   4.617  18.243  0.00  0.00    +0.000 A 
ATOM     26  C   UNL     1       7.845   5.606  18.772  0.00  0.00    +0.000 A 
ATOM     27  C   UNL     1       7.802   6.900  18.259  0.00  0.00    +0.000 A 
ATOM     28  C   UNL     1       6.927   7.202  17.216  0.00  0.00    +0.000 A 
ATOM     29  C   UNL     1       6.092   6.213  16.686  0.00  0.00    +0.000 A 
ATOM     30 CL   UNL     1       5.052   6.661  15.381  0.00  0.00    +0.000 Cl
ENDBRANCH  23  24
ENDBRANCH  21  23
ENDBRANCH  18  20
ENDBRANCH  17  18
ENDBRANCH   1  17
TORSDOF 7
ENDMDL
MODEL 9
REMARK VINA RESULT:      -8.1      2.679      3.244
REMARK  Name = 
REMARK  7 active torsions:
REMARK  status: ('A' for Active; 'I' for Inactive)
REMARK    1  A    between atoms: C_2  and  C_3
REMARK    2  A    between atoms: C_3  and  C_4
REMARK    3  A    between atoms: C_4  and  N_5
REMARK    4  A    between atoms: N_5  and  S_6
REMARK    5  A    between atoms: S_6  and  C_9
REMARK    6  A    between atoms: N_19  and  C_20
REMARK    7  A    between atoms: C_20  and  C_21
REMARK                            x       y       z     vdW  Elec       q    Type
REMARK                         _______ _______ _______ _____ _____    ______ ____
ROOT
ATOM      1  N   UNL     1       7.358   6.749  17.467  0.00  0.00    +0.000 NA
ATOM      2  H   UNL     1       7.443   6.800  16.451  0.00  0.00    +0.000 HD
ENDROOT
BRANCH   1   3
ATOM      3  S   UNL     1       7.454   5.126  17.946  0.00  0.00    +0.000 S 
ATOM      4  O   UNL     1       8.022   4.412  16.825  0.00  0.00    +0.000 OA
ATOM      5  O   UNL     1       8.056   5.075  19.260  0.00  0.00    +0.000 OA
BRANCH   3   6
ATOM      6  C   UNL     1       5.754   4.624  18.077  0.00  0.00    +0.000 A 
ATOM      7  C   UNL     1       5.096   4.085  16.945  0.00  0.00    +0.000 A 
ATOM      8  C   UNL     1       3.732   3.778  16.995  0.00  0.00    +0.000 A 
ATOM      9  C   UNL     1       3.086   4.030  18.183  0.00  0.00    +0.000 A 
ATOM     10  N   UNL     1       1.780   3.859  18.536  0.00  0.00    +0.000 N 
ATOM     11  C   UNL     1       1.639   4.283  19.838  0.00  0.00    +0.000 A 
ATOM     12  O   UNL     1       0.592   4.270  20.468  0.00  0.00    +0.000 OA
ATOM     13  O   UNL     1       2.859   4.733  20.361  0.00  0.00    +0.000 OA
ATOM     14  C   UNL     1       3.723   4.557  19.290  0.00  0.00    +0.000 A 
ATOM     15  C   UNL     1       5.064   4.873  19.272  0.00  0.00    +0.000 A 
ATOM     16  H   UNL     1       1.021   3.509  17.978  0.00  0.00    +0.000 HD
ENDBRANCH   3   6
ENDBRANCH   1   3
BRANCH   1  17
ATOM     17  C   UNL     1       8.147   7.715  18.257  0.00  0.00    +0.000 C 
BRANCH  17  18
ATOM     18  C   UNL     1       7.981   9.136  17.720  0.00  0.00    +0.000 C 
BRANCH  18  20
ATOM     19  O   UNL     1       9.316   9.809  19.611  0.00  0.00    +0.000 OA
ATOM     20  C   UNL     1       8.881  10.079  18.496  0.00  0.00    +0.000 C 
ATOM     21  N   UNL     1       9.169  11.257  17.848  0.00  0.00    +0.000 N 
ATOM     22  H   UNL     1       8.749  11.463  16.952  0.00  0.00    +0.000 HD
BRANCH  21  23
ATOM     23  C   UNL     1       9.990  12.284  18.462  0.00  0.00    +0.000 C 
BRANCH  23  24
ATOM     24  C   UNL     1       9.373  13.650  18.305  0.00  0.00    +0.000 A 
ATOM     25  C   UNL     1       8.011  13.740  17.962  0.00  0.00    +0.000 A 
ATOM     26  C   UNL     1       7.389  14.981  17.806  0.00  0.00    +0.000 A 
ATOM     27  C   UNL     1       8.115  16.153  17.998  0.00  0.00    +0.000 A 
ATOM     28  C   UNL     1       9.464  16.081  18.347  0.00  0.00    +0.000 A 
ATOM     29  C   UNL     1      10.089  14.840  18.503  0.00  0.00    +0.000 A 
ATOM     30 CL   UNL     1      11.755  14.836  18.958  0.00  0.00    +0.000 Cl
ENDBRANCH  23  24
ENDBRANCH  21  23
ENDBRANCH  18  20
ENDBRANCH  17  18
ENDBRANCH   1  17
TORSDOF 7
ENDMDL
