MODEL 1
REMARK VINA RESULT:      -8.5      0.000      0.000
REMARK  Name = 
REMARK  7 active torsions:
REMARK  status: ('A' for Active; 'I' for Inactive)
REMARK    1  A    between atoms: C_1  and  C_2
REMARK    2  A    between atoms: C_2  and  C_3
REMARK    3  A    between atoms: C_2  and  C_4
REMARK    4  A    between atoms: C_2  and  C_5
REMARK    5  A    between atoms: C_7  and  N_8
REMARK    6  A    between atoms: C_16  and  O_17
REMARK    7  A    between atoms: O_17  and  C_18
REMARK                            x       y       z     vdW  Elec       q    Type
REMARK                         _______ _______ _______ _____ _____    ______ ____
ROOT
ATOM      1  N   UNL     1       1.465  12.623  19.837  0.00  0.00    +0.000 N 
ATOM      2  C   UNL     1       0.541  11.990  20.643  0.00  0.00    +0.000 C 
ATOM      3  O   UNL     1      -0.338  12.464  21.347  0.00  0.00    +0.000 OA
ATOM      4  N   UNL     1       0.803  10.601  20.759  0.00  0.00    +0.000 N 
ATOM      5  C   UNL     1       0.620   9.900  21.941  0.00  0.00    +0.000 A 
ATOM      6  C   UNL     1       1.104   8.624  21.801  0.00  0.00    +0.000 A 
ATOM      7  C   UNL     1       1.528   8.474  20.458  0.00  0.00    +0.000 A 
ATOM      8  C   UNL     1       2.086   7.390  19.743  0.00  0.00    +0.000 A 
ATOM      9  C   UNL     1       2.360   7.512  18.376  0.00  0.00    +0.000 A 
ATOM     10  C   UNL     1       2.038   8.701  17.718  0.00  0.00    +0.000 A 
ATOM     11  C   UNL     1       1.483   9.796  18.408  0.00  0.00    +0.000 A 
ATOM     12  C   UNL     1       1.286   9.688  19.799  0.00  0.00    +0.000 A 
ATOM     13  H   UNL     1       2.279  12.121  19.495  0.00  0.00    +0.000 HD
ENDROOT
BRANCH   1  16
ATOM     14  C   UNL     1       1.067  16.134  19.243  0.00  0.00    +0.000 A 
ATOM     15  C   UNL     1       0.671  14.808  18.892  0.00  0.00    +0.000 A 
ATOM     16  C   UNL     1       1.435  13.990  19.691  0.00  0.00    +0.000 A 
ATOM     17  O   UNL     1       2.260  14.767  20.447  0.00  0.00    +0.000 OA
ATOM     18  N   UNL     1       2.036  16.103  20.165  0.00  0.00    +0.000 NA
BRANCH  14  20
ATOM     19  C   UNL     1       1.294  17.907  17.492  0.00  0.00    +0.000 C 
ATOM     20  C   UNL     1       0.507  17.456  18.740  0.00  0.00    +0.000 C 
ATOM     21  C   UNL     1       0.621  18.546  19.822  0.00  0.00    +0.000 C 
ATOM     22  C   UNL     1      -0.983  17.345  18.340  0.00  0.00    +0.000 C 
ENDBRANCH  14  20
ENDBRANCH   1  16
BRANCH   9  23
ATOM     23  O   UNL     1       3.020   6.435  17.801  0.00  0.00    +0.000 OA
BRANCH  23  24
ATOM     24  C   UNL     1       2.637   5.168  18.180  0.00  0.00    +0.000 A 
ATOM     25  N   UNL     1       1.428   4.720  17.787  0.00  0.00    +0.000 NA
ATOM     26  C   UNL     1       1.146   3.433  18.063  0.00  0.00    +0.000 A 
ATOM     27  N   UNL     1       1.960   2.544  18.656  0.00  0.00    +0.000 NA
ATOM     28  C   UNL     1       3.128   3.064  19.044  0.00  0.00    +0.000 A 
ATOM     29  C   UNL     1       3.497   4.384  18.899  0.00  0.00    +0.000 A 
ATOM     30  C   UNL     1       4.834   4.575  19.508  0.00  0.00    +0.000 C 
ATOM     31  N   UNL     1       5.456   3.243  19.359  0.00  0.00    +0.000 NA
ATOM     32  C   UNL     1       4.327   2.295  19.548  0.00  0.00    +0.000 C 
ATOM     33  H   UNL     1       6.199   3.081  20.030  0.00  0.00    +0.000 HD
ENDBRANCH  23  24
ENDBRANCH   9  23
TORSDOF 4
ENDMDL
MODEL 2
REMARK VINA RESULT:      -8.3      5.161      9.698
REMARK  Name = 
REMARK  7 active torsions:
REMARK  status: ('A' for Active; 'I' for Inactive)
REMARK    1  A    between atoms: C_1  and  C_2
REMARK    2  A    between atoms: C_2  and  C_3
REMARK    3  A    between atoms: C_2  and  C_4
REMARK    4  A    between atoms: C_2  and  C_5
REMARK    5  A    between atoms: C_7  and  N_8
REMARK    6  A    between atoms: C_16  and  O_17
REMARK    7  A    between atoms: O_17  and  C_18
REMARK                            x       y       z     vdW  Elec       q    Type
REMARK                         _______ _______ _______ _____ _____    ______ ____
ROOT
ATOM      1  N   UNL     1       0.524   9.056  18.757  0.00  0.00    +0.000 N 
ATOM      2  C   UNL     1       0.815  10.405  18.732  0.00  0.00    +0.000 C 
ATOM      3  O   UNL     1       1.898  10.972  18.738  0.00  0.00    +0.000 OA
ATOM      4  N   UNL     1      -0.349  11.200  18.887  0.00  0.00    +0.000 N 
ATOM      5  C   UNL     1      -0.359  12.377  19.621  0.00  0.00    +0.000 A 
ATOM      6  C   UNL     1      -1.645  12.841  19.732  0.00  0.00    +0.000 A 
ATOM      7  C   UNL     1      -2.475  11.982  18.969  0.00  0.00    +0.000 A 
ATOM      8  C   UNL     1      -3.863  11.976  18.703  0.00  0.00    +0.000 A 
ATOM      9  C   UNL     1      -4.413  11.017  17.845  0.00  0.00    +0.000 A 
ATOM     10  C   UNL     1      -3.570  10.093  17.223  0.00  0.00    +0.000 A 
ATOM     11  C   UNL     1      -2.184  10.077  17.472  0.00  0.00    +0.000 A 
ATOM     12  C   UNL     1      -1.656  10.997  18.399  0.00  0.00    +0.000 A 
ATOM     13  H   UNL     1      -0.412   8.737  18.982  0.00  0.00    +0.000 HD
ENDROOT
BRANCH   1  16
ATOM     14  C   UNL     1       3.228   6.748  18.309  0.00  0.00    +0.000 A 
ATOM     15  C   UNL     1       2.305   7.644  17.691  0.00  0.00    +0.000 A 
ATOM     16  C   UNL     1       1.539   8.128  18.727  0.00  0.00    +0.000 A 
ATOM     17  O   UNL     1       1.949   7.538  19.884  0.00  0.00    +0.000 OA
ATOM     18  N   UNL     1       2.998   6.674  19.625  0.00  0.00    +0.000 NA
BRANCH  14  20
ATOM     19  C   UNL     1       4.939   6.783  16.483  0.00  0.00    +0.000 C 
ATOM     20  C   UNL     1       4.372   5.976  17.670  0.00  0.00    +0.000 C 
ATOM     21  C   UNL     1       3.888   4.607  17.155  0.00  0.00    +0.000 C 
ATOM     22  C   UNL     1       5.532   5.721  18.661  0.00  0.00    +0.000 C 
ENDBRANCH  14  20
ENDBRANCH   1  16
BRANCH   9  23
ATOM     23  O   UNL     1      -5.797  11.023  17.752  0.00  0.00    +0.000 OA
BRANCH  23  24
ATOM     24  C   UNL     1      -6.519  10.559  18.829  0.00  0.00    +0.000 A 
ATOM     25  N   UNL     1      -6.579   9.229  19.034  0.00  0.00    +0.000 NA
ATOM     26  C   UNL     1      -7.179   8.823  20.170  0.00  0.00    +0.000 A 
ATOM     27  N   UNL     1      -7.688   9.610  21.131  0.00  0.00    +0.000 NA
ATOM     28  C   UNL     1      -7.620  10.914  20.847  0.00  0.00    +0.000 A 
ATOM     29  C   UNL     1      -7.112  11.448  19.683  0.00  0.00    +0.000 A 
ATOM     30  C   UNL     1      -7.272  12.920  19.725  0.00  0.00    +0.000 C 
ATOM     31  N   UNL     1      -7.230  13.215  21.173  0.00  0.00    +0.000 NA
ATOM     32  C   UNL     1      -7.916  12.053  21.796  0.00  0.00    +0.000 C 
ATOM     33  H   UNL     1      -7.686  14.090  21.407  0.00  0.00    +0.000 HD
ENDBRANCH  23  24
ENDBRANCH   9  23
TORSDOF 4
ENDMDL
MODEL 3
REMARK VINA RESULT:      -8.3      5.132      9.718
REMARK  Name = 
REMARK  7 active torsions:
REMARK  status: ('A' for Active; 'I' for Inactive)
REMARK    1  A    between atoms: C_1  and  C_2
REMARK    2  A    between atoms: C_2  and  C_3
REMARK    3  A    between atoms: C_2  and  C_4
REMARK    4  A    between atoms: C_2  and  C_5
REMARK    5  A    between atoms: C_7  and  N_8
REMARK    6  A    between atoms: C_16  and  O_17
REMARK    7  A    between atoms: O_17  and  C_18
REMARK                            x       y       z     vdW  Elec       q    Type
REMARK                         _______ _______ _______ _____ _____    ______ ____
ROOT
ATOM      1  N   UNL     1       0.647   9.273  18.329  0.00  0.00    +0.000 N 
ATOM      2  C   UNL     1       0.860  10.607  18.612  0.00  0.00    +0.000 C 
ATOM      3  O   UNL     1       1.908  11.218  18.760  0.00  0.00    +0.000 OA
ATOM      4  N   UNL     1      -0.348  11.281  18.925  0.00  0.00    +0.000 N 
ATOM      5  C   UNL     1      -0.427  12.261  19.903  0.00  0.00    +0.000 A 
ATOM      6  C   UNL     1      -1.738  12.615  20.097  0.00  0.00    +0.000 A 
ATOM      7  C   UNL     1      -2.516  11.905  19.150  0.00  0.00    +0.000 A 
ATOM      8  C   UNL     1      -3.901  11.881  18.870  0.00  0.00    +0.000 A 
ATOM      9  C   UNL     1      -4.394  11.110  17.811  0.00  0.00    +0.000 A 
ATOM     10  C   UNL     1      -3.499  10.398  17.009  0.00  0.00    +0.000 A 
ATOM     11  C   UNL     1      -2.115  10.404  17.268  0.00  0.00    +0.000 A 
ATOM     12  C   UNL     1      -1.641  11.120  18.385  0.00  0.00    +0.000 A 
ATOM     13  H   UNL     1      -0.270   8.859  18.464  0.00  0.00    +0.000 HD
ENDROOT
BRANCH   1  16
ATOM     14  C   UNL     1       3.213   6.807  17.916  0.00  0.00    +0.000 A 
ATOM     15  C   UNL     1       1.975   7.153  18.536  0.00  0.00    +0.000 A 
ATOM     16  C   UNL     1       1.713   8.434  18.106  0.00  0.00    +0.000 A 
ATOM     17  O   UNL     1       2.740   8.844  17.311  0.00  0.00    +0.000 OA
ATOM     18  N   UNL     1       3.678   7.834  17.195  0.00  0.00    +0.000 NA
BRANCH  14  20
ATOM     19  C   UNL     1       2.945   4.322  18.039  0.00  0.00    +0.000 C 
ATOM     20  C   UNL     1       3.959   5.482  17.964  0.00  0.00    +0.000 C 
ATOM     21  C   UNL     1       4.882   5.418  19.195  0.00  0.00    +0.000 C 
ATOM     22  C   UNL     1       4.835   5.259  16.709  0.00  0.00    +0.000 C 
ENDBRANCH  14  20
ENDBRANCH   1  16
BRANCH   9  23
ATOM     23  O   UNL     1      -5.777  11.060  17.702  0.00  0.00    +0.000 OA
BRANCH  23  24
ATOM     24  C   UNL     1      -6.491  10.571  18.773  0.00  0.00    +0.000 A 
ATOM     25  N   UNL     1      -6.533   9.237  18.959  0.00  0.00    +0.000 NA
ATOM     26  C   UNL     1      -7.127   8.807  20.089  0.00  0.00    +0.000 A 
ATOM     27  N   UNL     1      -7.646   9.573  21.062  0.00  0.00    +0.000 NA
ATOM     28  C   UNL     1      -7.595  10.881  20.797  0.00  0.00    +0.000 A 
ATOM     29  C   UNL     1      -7.095  11.439  19.640  0.00  0.00    +0.000 A 
ATOM     30  C   UNL     1      -7.274  12.908  19.704  0.00  0.00    +0.000 C 
ATOM     31  N   UNL     1      -7.235  13.182  21.156  0.00  0.00    +0.000 NA
ATOM     32  C   UNL     1      -7.905  12.002  21.762  0.00  0.00    +0.000 C 
ATOM     33  H   UNL     1      -7.701  14.048  21.403  0.00  0.00    +0.000 HD
ENDBRANCH  23  24
ENDBRANCH   9  23
TORSDOF 4
ENDMDL
MODEL 4
REMARK VINA RESULT:      -8.3      3.421     10.583
REMARK  Name = 
REMARK  7 active torsions:
REMARK  status: ('A' for Active; 'I' for Inactive)
REMARK    1  A    between atoms: C_1  and  C_2
REMARK    2  A    between atoms: C_2  and  C_3
REMARK    3  A    between atoms: C_2  and  C_4
REMARK    4  A    between atoms: C_2  and  C_5
REMARK    5  A    between atoms: C_7  and  N_8
REMARK    6  A    between atoms: C_16  and  O_17
REMARK    7  A    between atoms: O_17  and  C_18
REMARK                            x       y       z     vdW  Elec       q    Type
REMARK                         _______ _______ _______ _____ _____    ______ ____
ROOT
ATOM      1  N   UNL     1       2.154   7.556  19.899  0.00  0.00    +0.000 N 
ATOM      2  C   UNL     1       1.767   8.334  18.827  0.00  0.00    +0.000 C 
ATOM      3  O   UNL     1       1.886   8.128  17.628  0.00  0.00    +0.000 OA
ATOM      4  N   UNL     1       1.320   9.615  19.236  0.00  0.00    +0.000 N 
ATOM      5  C   UNL     1       1.589  10.769  18.514  0.00  0.00    +0.000 A 
ATOM      6  C   UNL     1       1.177  11.866  19.226  0.00  0.00    +0.000 A 
ATOM      7  C   UNL     1       0.542  11.397  20.403  0.00  0.00    +0.000 A 
ATOM      8  C   UNL     1      -0.082  12.058  21.485  0.00  0.00    +0.000 A 
ATOM      9  C   UNL     1      -0.691  11.320  22.506  0.00  0.00    +0.000 A 
ATOM     10  C   UNL     1      -0.712   9.925  22.422  0.00  0.00    +0.000 A 
ATOM     11  C   UNL     1      -0.096   9.243  21.355  0.00  0.00    +0.000 A 
ATOM     12  C   UNL     1       0.582   9.996  20.376  0.00  0.00    +0.000 A 
ATOM     13  H   UNL     1       2.203   7.955  20.831  0.00  0.00    +0.000 HD
ENDROOT
BRANCH   1  16
ATOM     14  C   UNL     1       3.264   4.184  19.415  0.00  0.00    +0.000 A 
ATOM     15  C   UNL     1       2.219   5.047  19.861  0.00  0.00    +0.000 A 
ATOM     16  C   UNL     1       2.716   6.319  19.690  0.00  0.00    +0.000 A 
ATOM     17  O   UNL     1       3.987   6.227  19.207  0.00  0.00    +0.000 OA
ATOM     18  N   UNL     1       4.331   4.898  19.040  0.00  0.00    +0.000 NA
BRANCH  14  20
ATOM     19  C   UNL     1       1.896   2.121  19.782  0.00  0.00    +0.000 C 
ATOM     20  C   UNL     1       3.255   2.667  19.297  0.00  0.00    +0.000 C 
ATOM     21  C   UNL     1       4.376   2.046  20.153  0.00  0.00    +0.000 C 
ATOM     22  C   UNL     1       3.460   2.193  17.840  0.00  0.00    +0.000 C 
ENDBRANCH  14  20
ENDBRANCH   1  16
BRANCH   9  23
ATOM     23  O   UNL     1      -1.163  12.061  23.579  0.00  0.00    +0.000 OA
BRANCH  23  24
ATOM     24  C   UNL     1      -2.322  12.785  23.402  0.00  0.00    +0.000 A 
ATOM     25  N   UNL     1      -3.358  12.192  22.777  0.00  0.00    +0.000 NA
ATOM     26  C   UNL     1      -4.513  12.882  22.742  0.00  0.00    +0.000 A 
ATOM     27  N   UNL     1      -4.745  14.083  23.298  0.00  0.00    +0.000 NA
ATOM     28  C   UNL     1      -3.668  14.623  23.874  0.00  0.00    +0.000 A 
ATOM     29  C   UNL     1      -2.412  14.056  23.898  0.00  0.00    +0.000 A 
ATOM     30  C   UNL     1      -1.481  14.990  24.574  0.00  0.00    +0.000 C 
ATOM     31  N   UNL     1      -2.367  15.724  25.502  0.00  0.00    +0.000 NA
ATOM     32  C   UNL     1      -3.644  15.853  24.752  0.00  0.00    +0.000 C 
ATOM     33  H   UNL     1      -1.994  16.629  25.766  0.00  0.00    +0.000 HD
ENDBRANCH  23  24
ENDBRANCH   9  23
TORSDOF 4
ENDMDL
MODEL 5
REMARK VINA RESULT:      -8.3      1.615      1.980
REMARK  Name = 
REMARK  7 active torsions:
REMARK  status: ('A' for Active; 'I' for Inactive)
REMARK    1  A    between atoms: C_1  and  C_2
REMARK    2  A    between atoms: C_2  and  C_3
REMARK    3  A    between atoms: C_2  and  C_4
REMARK    4  A    between atoms: C_2  and  C_5
REMARK    5  A    between atoms: C_7  and  N_8
REMARK    6  A    between atoms: C_16  and  O_17
REMARK    7  A    between atoms: O_17  and  C_18
REMARK                            x       y       z     vdW  Elec       q    Type
REMARK                         _______ _______ _______ _____ _____    ______ ____
ROOT
ATOM      1  N   UNL     1       0.723  12.474  19.717  0.00  0.00    +0.000 N 
ATOM      2  C   UNL     1      -0.364  11.912  20.355  0.00  0.00    +0.000 C 
ATOM      3  O   UNL     1      -1.435  12.414  20.665  0.00  0.00    +0.000 OA
ATOM      4  N   UNL     1      -0.078  10.611  20.843  0.00  0.00    +0.000 N 
ATOM      5  C   UNL     1      -0.566  10.141  22.053  0.00  0.00    +0.000 A 
ATOM      6  C   UNL     1       0.001   8.924  22.337  0.00  0.00    +0.000 A 
ATOM      7  C   UNL     1       0.810   8.562  21.232  0.00  0.00    +0.000 A 
ATOM      8  C   UNL     1       1.607   7.428  20.957  0.00  0.00    +0.000 A 
ATOM      9  C   UNL     1       2.265   7.309  19.728  0.00  0.00    +0.000 A 
ATOM     10  C   UNL     1       2.091   8.301  18.760  0.00  0.00    +0.000 A 
ATOM     11  C   UNL     1       1.303   9.442  19.010  0.00  0.00    +0.000 A 
ATOM     12  C   UNL     1       0.711   9.587  20.280  0.00  0.00    +0.000 A 
ATOM     13  H   UNL     1       1.625  12.009  19.734  0.00  0.00    +0.000 HD
ENDROOT
BRANCH   1  16
ATOM     14  C   UNL     1       0.963  15.879  18.629  0.00  0.00    +0.000 A 
ATOM     15  C   UNL     1       1.594  14.791  19.303  0.00  0.00    +0.000 A 
ATOM     16  C   UNL     1       0.668  13.773  19.271  0.00  0.00    +0.000 A 
ATOM     17  O   UNL     1      -0.456  14.228  18.652  0.00  0.00    +0.000 OA
ATOM     18  N   UNL     1      -0.277  15.541  18.256  0.00  0.00    +0.000 NA
BRANCH  14  20
ATOM     19  C   UNL     1       2.774  17.075  17.384  0.00  0.00    +0.000 C 
ATOM     20  C   UNL     1       1.537  17.246  18.291  0.00  0.00    +0.000 C 
ATOM     21  C   UNL     1       1.956  17.995  19.570  0.00  0.00    +0.000 C 
ATOM     22  C   UNL     1       0.522  18.136  17.536  0.00  0.00    +0.000 C 
ENDBRANCH  14  20
ENDBRANCH   1  16
BRANCH   9  23
ATOM     23  O   UNL     1       3.118   6.221  19.610  0.00  0.00    +0.000 OA
BRANCH  23  24
ATOM     24  C   UNL     1       2.759   5.212  18.744  0.00  0.00    +0.000 A 
ATOM     25  N   UNL     1       3.421   5.106  17.575  0.00  0.00    +0.000 NA
ATOM     26  C   UNL     1       3.133   4.030  16.817  0.00  0.00    +0.000 A 
ATOM     27  N   UNL     1       2.283   3.037  17.127  0.00  0.00    +0.000 NA
ATOM     28  C   UNL     1       1.642   3.223  18.285  0.00  0.00    +0.000 A 
ATOM     29  C   UNL     1       1.783   4.323  19.103  0.00  0.00    +0.000 A 
ATOM     30  C   UNL     1       0.860   4.182  20.254  0.00  0.00    +0.000 C 
ATOM     31  N   UNL     1       0.741   2.717  20.402  0.00  0.00    +0.000 NA
ATOM     32  C   UNL     1       0.784   2.209  19.006  0.00  0.00    +0.000 C 
ATOM     33  H   UNL     1      -0.112   2.440  20.876  0.00  0.00    +0.000 HD
ENDBRANCH  23  24
ENDBRANCH   9  23
TORSDOF 4
ENDMDL
MODEL 6
REMARK VINA RESULT:      -8.2      3.499     10.547
REMARK  Name = 
REMARK  7 active torsions:
REMARK  status: ('A' for Active; 'I' for Inactive)
REMARK    1  A    between atoms: C_1  and  C_2
REMARK    2  A    between atoms: C_2  and  C_3
REMARK    3  A    between atoms: C_2  and  C_4
REMARK    4  A    between atoms: C_2  and  C_5
REMARK    5  A    between atoms: C_7  and  N_8
REMARK    6  A    between atoms: C_16  and  O_17
REMARK    7  A    between atoms: O_17  and  C_18
REMARK                            x       y       z     vdW  Elec       q    Type
REMARK                         _______ _______ _______ _____ _____    ______ ____
ROOT
ATOM      1  N   UNL     1       1.715   8.116  20.219  0.00  0.00    +0.000 N 
ATOM      2  C   UNL     1       1.463   8.878  19.096  0.00  0.00    +0.000 C 
ATOM      3  O   UNL     1       1.591   8.594  17.914  0.00  0.00    +0.000 OA
ATOM      4  N   UNL     1       1.173  10.226  19.425  0.00  0.00    +0.000 N 
ATOM      5  C   UNL     1       1.609  11.295  18.656  0.00  0.00    +0.000 A 
ATOM      6  C   UNL     1       1.321  12.473  19.298  0.00  0.00    +0.000 A 
ATOM      7  C   UNL     1       0.596  12.152  20.473  0.00  0.00    +0.000 A 
ATOM      8  C   UNL     1       0.031  12.943  21.497  0.00  0.00    +0.000 A 
ATOM      9  C   UNL     1      -0.699  12.345  22.530  0.00  0.00    +0.000 A 
ATOM     10  C   UNL     1      -0.897  10.962  22.515  0.00  0.00    +0.000 A 
ATOM     11  C   UNL     1      -0.343  10.151  21.506  0.00  0.00    +0.000 A 
ATOM     12  C   UNL     1       0.456  10.757  20.517  0.00  0.00    +0.000 A 
ATOM     13  H   UNL     1       1.786   8.555  21.131  0.00  0.00    +0.000 HD
ENDROOT
BRANCH   1  16
ATOM     14  C   UNL     1       2.428   4.609  20.052  0.00  0.00    +0.000 A 
ATOM     15  C   UNL     1       1.588   5.635  20.578  0.00  0.00    +0.000 A 
ATOM     16  C   UNL     1       2.119   6.808  20.092  0.00  0.00    +0.000 A 
ATOM     17  O   UNL     1       3.223   6.511  19.353  0.00  0.00    +0.000 OA
ATOM     18  N   UNL     1       3.421   5.142  19.331  0.00  0.00    +0.000 NA
BRANCH  14  20
ATOM     19  C   UNL     1       3.664   2.433  20.023  0.00  0.00    +0.000 C 
ATOM     20  C   UNL     1       2.283   3.101  20.189  0.00  0.00    +0.000 C 
ATOM     21  C   UNL     1       1.327   2.543  19.118  0.00  0.00    +0.000 C 
ATOM     22  C   UNL     1       1.727   2.691  21.573  0.00  0.00    +0.000 C 
ENDBRANCH  14  20
ENDBRANCH   1  16
BRANCH   9  23
ATOM     23  O   UNL     1      -1.104  13.197  23.547  0.00  0.00    +0.000 OA
BRANCH  23  24
ATOM     24  C   UNL     1      -2.176  14.028  23.304  0.00  0.00    +0.000 A 
ATOM     25  N   UNL     1      -1.952  15.190  22.660  0.00  0.00    +0.000 NA
ATOM     26  C   UNL     1      -3.039  15.909  22.323  0.00  0.00    +0.000 A 
ATOM     27  N   UNL     1      -4.321  15.567  22.531  0.00  0.00    +0.000 NA
ATOM     28  C   UNL     1      -4.467  14.419  23.199  0.00  0.00    +0.000 A 
ATOM     29  C   UNL     1      -3.434  13.640  23.675  0.00  0.00    +0.000 A 
ATOM     30  C   UNL     1      -4.006  12.488  24.411  0.00  0.00    +0.000 C 
ATOM     31  N   UNL     1      -5.310  12.288  23.746  0.00  0.00    +0.000 NA
ATOM     32  C   UNL     1      -5.759  13.665  23.412  0.00  0.00    +0.000 C 
ATOM     33  H   UNL     1      -5.980  11.807  24.337  0.00  0.00    +0.000 HD
ENDBRANCH  23  24
ENDBRANCH   9  23
TORSDOF 4
ENDMDL
MODEL 7
REMARK VINA RESULT:      -8.2      1.428      2.005
REMARK  Name = 
REMARK  7 active torsions:
REMARK  status: ('A' for Active; 'I' for Inactive)
REMARK    1  A    between atoms: C_1  and  C_2
REMARK    2  A    between atoms: C_2  and  C_3
REMARK    3  A    between atoms: C_2  and  C_4
REMARK    4  A    between atoms: C_2  and  C_5
REMARK    5  A    between atoms: C_7  and  N_8
REMARK    6  A    between atoms: C_16  and  O_17
REMARK    7  A    between atoms: O_17  and  C_18
REMARK                            x       y       z     vdW  Elec       q    Type
REMARK                         _______ _______ _______ _____ _____    ______ ____
ROOT
ATOM      1  N   UNL     1       1.640  12.416  19.693  0.00  0.00    +0.000 N 
ATOM      2  C   UNL     1       0.751  11.835  20.575  0.00  0.00    +0.000 C 
ATOM      3  O   UNL     1      -0.052  12.358  21.334  0.00  0.00    +0.000 OA
ATOM      4  N   UNL     1       0.959  10.438  20.692  0.00  0.00    +0.000 N 
ATOM      5  C   UNL     1       0.833   9.760  21.896  0.00  0.00    +0.000 A 
ATOM      6  C   UNL     1       1.248   8.462  21.741  0.00  0.00    +0.000 A 
ATOM      7  C   UNL     1       1.565   8.277  20.372  0.00  0.00    +0.000 A 
ATOM      8  C   UNL     1       2.020   7.160  19.636  0.00  0.00    +0.000 A 
ATOM      9  C   UNL     1       2.198   7.253  18.250  0.00  0.00    +0.000 A 
ATOM     10  C   UNL     1       1.880   8.447  17.600  0.00  0.00    +0.000 A 
ATOM     11  C   UNL     1       1.427   9.575  18.311  0.00  0.00    +0.000 A 
ATOM     12  C   UNL     1       1.329   9.492  19.714  0.00  0.00    +0.000 A 
ATOM     13  H   UNL     1       2.403  11.874  19.301  0.00  0.00    +0.000 HD
ENDROOT
BRANCH   1  16
ATOM     14  C   UNL     1       1.343  15.937  19.101  0.00  0.00    +0.000 A 
ATOM     15  C   UNL     1       0.832  14.632  18.834  0.00  0.00    +0.000 A 
ATOM     16  C   UNL     1       1.661  13.781  19.529  0.00  0.00    +0.000 A 
ATOM     17  O   UNL     1       2.625  14.521  20.145  0.00  0.00    +0.000 OA
ATOM     18  N   UNL     1       2.432  15.864  19.874  0.00  0.00    +0.000 NA
BRANCH  14  20
ATOM     19  C   UNL     1       1.535  17.763  17.400  0.00  0.00    +0.000 C 
ATOM     20  C   UNL     1       0.785  17.282  18.660  0.00  0.00    +0.000 C 
ATOM     21  C   UNL     1       0.952  18.335  19.772  0.00  0.00    +0.000 C 
ATOM     22  C   UNL     1      -0.720  17.204  18.309  0.00  0.00    +0.000 C 
ENDBRANCH  14  20
ENDBRANCH   1  16
BRANCH   9  23
ATOM     23  O   UNL     1       2.764   6.140  17.645  0.00  0.00    +0.000 OA
BRANCH  23  24
ATOM     24  C   UNL     1       3.861   5.567  18.249  0.00  0.00    +0.000 A 
ATOM     25  N   UNL     1       3.660   4.536  19.094  0.00  0.00    +0.000 NA
ATOM     26  C   UNL     1       4.763   3.918  19.559  0.00  0.00    +0.000 A 
ATOM     27  N   UNL     1       6.036   4.202  19.237  0.00  0.00    +0.000 NA
ATOM     28  C   UNL     1       6.160   5.251  18.420  0.00  0.00    +0.000 A 
ATOM     29  C   UNL     1       5.117   6.018  17.949  0.00  0.00    +0.000 A 
ATOM     30  C   UNL     1       5.669   7.120  17.126  0.00  0.00    +0.000 C 
ATOM     31  N   UNL     1       6.925   6.542  16.603  0.00  0.00    +0.000 NA
ATOM     32  C   UNL     1       7.423   5.695  17.719  0.00  0.00    +0.000 C 
ATOM     33  H   UNL     1       7.601   7.250  16.339  0.00  0.00    +0.000 HD
ENDBRANCH  23  24
ENDBRANCH   9  23
TORSDOF 4
ENDMDL
MODEL 8
REMARK VINA RESULT:      -8.1      2.025      2.880
REMARK  Name = 
REMARK  7 active torsions:
REMARK  status: ('A' for Active; 'I' for Inactive)
REMARK    1  A    between atoms: C_1  and  C_2
REMARK    2  A    between atoms: C_2  and  C_3
REMARK    3  A    between atoms: C_2  and  C_4
REMARK    4  A    between atoms: C_2  and  C_5
REMARK    5  A    between atoms: C_7  and  N_8
REMARK    6  A    between atoms: C_16  and  O_17
REMARK    7  A    between atoms: O_17  and  C_18
REMARK                            x       y       z     vdW  Elec       q    Type
REMARK                         _______ _______ _______ _____ _____    ______ ____
ROOT
ATOM      1  N   UNL     1       1.862  11.695  19.153  0.00  0.00    +0.000 N 
ATOM      2  C   UNL     1       0.716  11.213  19.752  0.00  0.00    +0.000 C 
ATOM      3  O   UNL     1      -0.294  11.807  20.099  0.00  0.00    +0.000 OA
ATOM      4  N   UNL     1       0.854   9.857  20.145  0.00  0.00    +0.000 N 
ATOM      5  C   UNL     1       0.310   9.359  21.320  0.00  0.00    +0.000 A 
ATOM      6  C   UNL     1       0.738   8.070  21.516  0.00  0.00    +0.000 A 
ATOM      7  C   UNL     1       1.507   7.700  20.386  0.00  0.00    +0.000 A 
ATOM      8  C   UNL     1       2.176   6.507  20.029  0.00  0.00    +0.000 A 
ATOM      9  C   UNL     1       2.824   6.403  18.793  0.00  0.00    +0.000 A 
ATOM     10  C   UNL     1       2.766   7.475  17.899  0.00  0.00    +0.000 A 
ATOM     11  C   UNL     1       2.107   8.675  18.231  0.00  0.00    +0.000 A 
ATOM     12  C   UNL     1       1.528   8.795  19.510  0.00  0.00    +0.000 A 
ATOM     13  H   UNL     1       2.707  11.133  19.135  0.00  0.00    +0.000 HD
ENDROOT
BRANCH   1  16
ATOM     14  C   UNL     1       1.788  15.209  18.459  0.00  0.00    +0.000 A 
ATOM     15  C   UNL     1       1.103  14.083  19.005  0.00  0.00    +0.000 A 
ATOM     16  C   UNL     1       1.954  13.021  18.801  0.00  0.00    +0.000 A 
ATOM     17  O   UNL     1       3.060  13.470  18.145  0.00  0.00    +0.000 OA
ATOM     18  N   UNL     1       2.956  14.832  17.926  0.00  0.00    +0.000 NA
BRANCH  14  20
ATOM     19  C   UNL     1       1.777  17.318  19.806  0.00  0.00    +0.000 C 
ATOM     20  C   UNL     1       1.367  16.671  18.466  0.00  0.00    +0.000 C 
ATOM     21  C   UNL     1      -0.158  16.801  18.296  0.00  0.00    +0.000 C 
ATOM     22  C   UNL     1       2.037  17.478  17.330  0.00  0.00    +0.000 C 
ENDBRANCH  14  20
ENDBRANCH   1  16
BRANCH   9  23
ATOM     23  O   UNL     1       3.552   5.239  18.596  0.00  0.00    +0.000 OA
BRANCH  23  24
ATOM     24  C   UNL     1       4.915   5.351  18.429  0.00  0.00    +0.000 A 
ATOM     25  N   UNL     1       5.677   5.575  19.518  0.00  0.00    +0.000 NA
ATOM     26  C   UNL     1       7.010   5.545  19.334  0.00  0.00    +0.000 A 
ATOM     27  N   UNL     1       7.654   5.280  18.185  0.00  0.00    +0.000 NA
ATOM     28  C   UNL     1       6.837   5.098  17.144  0.00  0.00    +0.000 A 
ATOM     29  C   UNL     1       5.463   5.191  17.187  0.00  0.00    +0.000 A 
ATOM     30  C   UNL     1       4.929   4.984  15.820  0.00  0.00    +0.000 C 
ATOM     31  N   UNL     1       5.947   4.113  15.197  0.00  0.00    +0.000 NA
ATOM     32  C   UNL     1       7.231   4.589  15.776  0.00  0.00    +0.000 C 
ATOM     33  H   UNL     1       5.947   4.174  14.185  0.00  0.00    +0.000 HD
ENDBRANCH  23  24
ENDBRANCH   9  23
TORSDOF 4
ENDMDL
MODEL 9
REMARK VINA RESULT:      -8.1      2.541      3.210
REMARK  Name = 
REMARK  7 active torsions:
REMARK  status: ('A' for Active; 'I' for Inactive)
REMARK    1  A    between atoms: C_1  and  C_2
REMARK    2  A    between atoms: C_2  and  C_3
REMARK    3  A    between atoms: C_2  and  C_4
REMARK    4  A    between atoms: C_2  and  C_5
REMARK    5  A    between atoms: C_7  and  N_8
REMARK    6  A    between atoms: C_16  and  O_17
REMARK    7  A    between atoms: O_17  and  C_18
REMARK                            x       y       z     vdW  Elec       q    Type
REMARK                         _______ _______ _______ _____ _____    ______ ____
ROOT
ATOM      1  N   UNL     1       1.389  11.775  19.276  0.00  0.00    +0.000 N 
ATOM      2  C   UNL     1       0.447  11.082  20.009  0.00  0.00    +0.000 C 
ATOM      3  O   UNL     1      -0.549  11.490  20.589  0.00  0.00    +0.000 OA
ATOM      4  N   UNL     1       0.830   9.733  20.222  0.00  0.00    +0.000 N 
ATOM      5  C   UNL     1       0.584   9.064  21.412  0.00  0.00    +0.000 A 
ATOM      6  C   UNL     1       1.204   7.840  21.390  0.00  0.00    +0.000 A 
ATOM      7  C   UNL     1       1.790   7.682  20.109  0.00  0.00    +0.000 A 
ATOM      8  C   UNL     1       2.529   6.635  19.515  0.00  0.00    +0.000 A 
ATOM      9  C   UNL     1       2.942   6.731  18.181  0.00  0.00    +0.000 A 
ATOM     10  C   UNL     1       2.580   7.853  17.433  0.00  0.00    +0.000 A 
ATOM     11  C   UNL     1       1.845   8.912  18.002  0.00  0.00    +0.000 A 
ATOM     12  C   UNL     1       1.505   8.838  19.367  0.00  0.00    +0.000 A 
ATOM     13  H   UNL     1       2.281  11.347  19.051  0.00  0.00    +0.000 HD
ENDROOT
BRANCH   1  16
ATOM     14  C   UNL     1       1.393  15.314  18.716  0.00  0.00    +0.000 A 
ATOM     15  C   UNL     1       2.149  14.159  19.080  0.00  0.00    +0.000 A 
ATOM     16  C   UNL     1       1.241  13.125  19.060  0.00  0.00    +0.000 A 
ATOM     17  O   UNL     1       0.016  13.627  18.740  0.00  0.00    +0.000 OA
ATOM     18  N   UNL     1       0.108  14.991  18.531  0.00  0.00    +0.000 NA
BRANCH  14  20
ATOM     19  C   UNL     1       0.701  17.627  18.058  0.00  0.00    +0.000 C 
ATOM     20  C   UNL     1       1.883  16.737  18.498  0.00  0.00    +0.000 C 
ATOM     21  C   UNL     1       2.972  16.781  17.410  0.00  0.00    +0.000 C 
ATOM     22  C   UNL     1       2.481  17.353  19.785  0.00  0.00    +0.000 C 
ENDBRANCH  14  20
ENDBRANCH   1  16
BRANCH   9  23
ATOM     23  O   UNL     1       3.764   5.706  17.735  0.00  0.00    +0.000 OA
BRANCH  23  24
ATOM     24  C   UNL     1       4.991   6.047  17.210  0.00  0.00    +0.000 A 
ATOM     25  N   UNL     1       5.723   6.982  17.849  0.00  0.00    +0.000 NA
ATOM     26  C   UNL     1       6.969   7.190  17.382  0.00  0.00    +0.000 A 
ATOM     27  N   UNL     1       7.565   6.537  16.372  0.00  0.00    +0.000 NA
ATOM     28  C   UNL     1       6.772   5.647  15.768  0.00  0.00    +0.000 A 
ATOM     29  C   UNL     1       5.455   5.407  16.094  0.00  0.00    +0.000 A 
ATOM     30  C   UNL     1       4.908   4.399  15.156  0.00  0.00    +0.000 C 
ATOM     31  N   UNL     1       6.103   3.613  14.784  0.00  0.00    +0.000 NA
ATOM     32  C   UNL     1       7.197   4.619  14.745  0.00  0.00    +0.000 C 
ATOM     33  H   UNL     1       5.997   3.139  13.894  0.00  0.00    +0.000 HD
ENDBRANCH  23  24
ENDBRANCH   9  23
TORSDOF 4
ENDMDL
