MODEL 1
REMARK VINA RESULT:      -9.0      0.000      0.000
REMARK  Name = 
REMARK  8 active torsions:
REMARK  status: ('A' for Active; 'I' for Inactive)
REMARK    1  A    between atoms: O_1  and  C_2
REMARK    2  A    between atoms: C_2  and  C_3
REMARK    3  A    between atoms: N_12  and  C_13
REMARK    4  A    between atoms: C_13  and  C_14
REMARK    5  A    between atoms: C_14  and  C_15
REMARK    6  A    between atoms: C_15  and  C_16
REMARK    7  A    between atoms: C_16  and  C_17
REMARK    8  A    between atoms: C_16  and  C_23
REMARK                            x       y       z     vdW  Elec       q    Type
REMARK                         _______ _______ _______ _____ _____    ______ ____
ROOT
ATOM      1  C   UNL     1       1.684   8.030  20.462  0.00  0.00    +0.000 C 
ENDROOT
BRANCH   1   5
ATOM      2  C   UNL     1      -0.751  11.354  21.801  0.00  0.00    +0.000 C 
ATOM      3  C   UNL     1      -0.432  10.172  22.728  0.00  0.00    +0.000 C 
ATOM      4  C   UNL     1       0.802   9.409  22.261  0.00  0.00    +0.000 C 
ATOM      5  N   UNL     1       0.596   8.920  20.890  0.00  0.00    +0.000 NA
ATOM      6  C   UNL     1       0.454  10.060  19.971  0.00  0.00    +0.000 C 
ATOM      7  C   UNL     1      -0.775  10.897  20.335  0.00  0.00    +0.000 C 
BRANCH   2   8
ATOM      8  C   UNL     1      -2.065  12.064  22.148  0.00  0.00    +0.000 A 
ATOM      9  C   UNL     1      -2.609  11.956  23.442  0.00  0.00    +0.000 A 
ATOM     10  C   UNL     1      -3.789  12.621  23.788  0.00  0.00    +0.000 A 
ATOM     11  C   UNL     1      -4.437  13.415  22.850  0.00  0.00    +0.000 A 
ATOM     12 CL   UNL     1      -5.882  14.246  23.276  0.00  0.00    +0.000 Cl
ATOM     13  C   UNL     1      -3.914  13.552  21.568  0.00  0.00    +0.000 A 
ATOM     14  C   UNL     1      -2.735  12.887  21.223  0.00  0.00    +0.000 A 
ENDBRANCH   2   8
BRANCH   2  15
ATOM     15  O   UNL     1       0.330  12.294  21.955  0.00  0.00    +0.000 OA
ATOM     16  H   UNL     1      -0.072  13.180  21.988  0.00  0.00    +0.000 HD
ENDBRANCH   2  15
ENDBRANCH   1   5
BRANCH   1  17
ATOM     17  C   UNL     1       2.135   8.304  19.020  0.00  0.00    +0.000 C 
BRANCH  17  18
ATOM     18  C   UNL     1       2.184   7.053  18.127  0.00  0.00    +0.000 C 
BRANCH  18  19
ATOM     19  C   UNL     1       3.231   5.992  18.557  0.00  0.00    +0.000 C 
BRANCH  19  20
ATOM     20  C   UNL     1       4.141   5.544  17.412  0.00  0.00    +0.000 A 
ATOM     21  C   UNL     1       4.640   6.503  16.511  0.00  0.00    +0.000 A 
ATOM     22  C   UNL     1       5.445   6.124  15.434  0.00  0.00    +0.000 A 
ATOM     23  C   UNL     1       5.769   4.784  15.247  0.00  0.00    +0.000 A 
ATOM     24 CL   UNL     1       6.743   4.312  13.911  0.00  0.00    +0.000 Cl
ATOM     25  C   UNL     1       5.302   3.819  16.135  0.00  0.00    +0.000 A 
ATOM     26  C   UNL     1       4.498   4.198  17.213  0.00  0.00    +0.000 A 
ENDBRANCH  19  20
BRANCH  19  27
ATOM     27  C   UNL     1       2.556   4.820  19.264  0.00  0.00    +0.000 A 
ATOM     28  C   UNL     1       1.497   4.121  18.657  0.00  0.00    +0.000 A 
ATOM     29  C   UNL     1       0.812   3.123  19.351  0.00  0.00    +0.000 A 
ATOM     30  C   UNL     1       1.184   2.796  20.653  0.00  0.00    +0.000 A 
ATOM     31  C   UNL     1       2.245   3.464  21.260  0.00  0.00    +0.000 A 
ATOM     32  C   UNL     1       2.929   4.469  20.571  0.00  0.00    +0.000 A 
ENDBRANCH  19  27
ENDBRANCH  18  19
ENDBRANCH  17  18
ENDBRANCH   1  17
TORSDOF 8
ENDMDL
MODEL 2
REMARK VINA RESULT:      -9.0      2.768      4.501
REMARK  Name = 
REMARK  8 active torsions:
REMARK  status: ('A' for Active; 'I' for Inactive)
REMARK    1  A    between atoms: O_1  and  C_2
REMARK    2  A    between atoms: C_2  and  C_3
REMARK    3  A    between atoms: N_12  and  C_13
REMARK    4  A    between atoms: C_13  and  C_14
REMARK    5  A    between atoms: C_14  and  C_15
REMARK    6  A    between atoms: C_15  and  C_16
REMARK    7  A    between atoms: C_16  and  C_17
REMARK    8  A    between atoms: C_16  and  C_23
REMARK                            x       y       z     vdW  Elec       q    Type
REMARK                         _______ _______ _______ _____ _____    ______ ____
ROOT
ATOM      1  C   UNL     1       1.942   9.716  18.436  0.00  0.00    +0.000 C 
ENDROOT
BRANCH   1   5
ATOM      2  C   UNL     1      -1.918  11.683  18.503  0.00  0.00    +0.000 C 
ATOM      3  C   UNL     1      -0.776  12.130  19.428  0.00  0.00    +0.000 C 
ATOM      4  C   UNL     1       0.582  11.677  18.905  0.00  0.00    +0.000 C 
ATOM      5  N   UNL     1       0.600  10.213  18.768  0.00  0.00    +0.000 NA
ATOM      6  C   UNL     1      -0.383   9.795  17.757  0.00  0.00    +0.000 C 
ATOM      7  C   UNL     1      -1.800  10.185  18.187  0.00  0.00    +0.000 C 
BRANCH   2   8
ATOM      8  C   UNL     1      -3.312  11.991  19.061  0.00  0.00    +0.000 A 
ATOM      9  C   UNL     1      -4.462  11.540  18.387  0.00  0.00    +0.000 A 
ATOM     10  C   UNL     1      -5.741  11.784  18.897  0.00  0.00    +0.000 A 
ATOM     11  C   UNL     1      -5.890  12.471  20.094  0.00  0.00    +0.000 A 
ATOM     12 CL   UNL     1      -7.461  12.761  20.731  0.00  0.00    +0.000 Cl
ATOM     13  C   UNL     1      -4.770  12.916  20.790  0.00  0.00    +0.000 A 
ATOM     14  C   UNL     1      -3.493  12.673  20.280  0.00  0.00    +0.000 A 
ENDBRANCH   2   8
BRANCH   2  15
ATOM     15  O   UNL     1      -1.749  12.410  17.270  0.00  0.00    +0.000 OA
ATOM     16  H   UNL     1      -0.811  12.331  17.023  0.00  0.00    +0.000 HD
ENDBRANCH   2  15
ENDBRANCH   1   5
BRANCH   1  17
ATOM     17  C   UNL     1       1.938   8.232  18.040  0.00  0.00    +0.000 C 
BRANCH  17  18
ATOM     18  C   UNL     1       3.334   7.650  17.764  0.00  0.00    +0.000 C 
BRANCH  18  19
ATOM     19  C   UNL     1       3.346   6.145  17.388  0.00  0.00    +0.000 C 
BRANCH  19  20
ATOM     20  C   UNL     1       2.760   5.248  18.480  0.00  0.00    +0.000 A 
ATOM     21  C   UNL     1       3.300   5.298  19.778  0.00  0.00    +0.000 A 
ATOM     22  C   UNL     1       2.813   4.467  20.790  0.00  0.00    +0.000 A 
ATOM     23  C   UNL     1       1.774   3.581  20.522  0.00  0.00    +0.000 A 
ATOM     24 CL   UNL     1       1.185   2.544  21.759  0.00  0.00    +0.000 Cl
ATOM     25  C   UNL     1       1.212   3.526  19.249  0.00  0.00    +0.000 A 
ATOM     26  C   UNL     1       1.698   4.358  18.238  0.00  0.00    +0.000 A 
ENDBRANCH  19  20
BRANCH  19  27
ATOM     27  C   UNL     1       4.740   5.706  16.952  0.00  0.00    +0.000 A 
ATOM     28  C   UNL     1       4.948   4.457  16.339  0.00  0.00    +0.000 A 
ATOM     29  C   UNL     1       6.237   4.015  16.041  0.00  0.00    +0.000 A 
ATOM     30  C   UNL     1       7.337   4.818  16.337  0.00  0.00    +0.000 A 
ATOM     31  C   UNL     1       7.147   6.066  16.925  0.00  0.00    +0.000 A 
ATOM     32  C   UNL     1       5.857   6.510  17.230  0.00  0.00    +0.000 A 
ENDBRANCH  19  27
ENDBRANCH  18  19
ENDBRANCH  17  18
ENDBRANCH   1  17
TORSDOF 8
ENDMDL
MODEL 3
REMARK VINA RESULT:      -9.0      2.974      4.675
REMARK  Name = 
REMARK  8 active torsions:
REMARK  status: ('A' for Active; 'I' for Inactive)
REMARK    1  A    between atoms: O_1  and  C_2
REMARK    2  A    between atoms: C_2  and  C_3
REMARK    3  A    between atoms: N_12  and  C_13
REMARK    4  A    between atoms: C_13  and  C_14
REMARK    5  A    between atoms: C_14  and  C_15
REMARK    6  A    between atoms: C_15  and  C_16
REMARK    7  A    between atoms: C_16  and  C_17
REMARK    8  A    between atoms: C_16  and  C_23
REMARK                            x       y       z     vdW  Elec       q    Type
REMARK                         _______ _______ _______ _____ _____    ______ ____
ROOT
ATOM      1  C   UNL     1       1.526   9.020  19.139  0.00  0.00    +0.000 C 
ENDROOT
BRANCH   1   5
ATOM      2  C   UNL     1      -1.952  11.474  18.331  0.00  0.00    +0.000 C 
ATOM      3  C   UNL     1      -1.310  11.431  19.726  0.00  0.00    +0.000 C 
ATOM      4  C   UNL     1       0.133  10.943  19.665  0.00  0.00    +0.000 C 
ATOM      5  N   UNL     1       0.180   9.605  19.057  0.00  0.00    +0.000 NA
ATOM      6  C   UNL     1      -0.282   9.674  17.663  0.00  0.00    +0.000 C 
ATOM      7  C   UNL     1      -1.738  10.141  17.599  0.00  0.00    +0.000 C 
BRANCH   2   8
ATOM      8  C   UNL     1      -3.445  11.821  18.358  0.00  0.00    +0.000 A 
ATOM      9  C   UNL     1      -4.015  12.416  19.500  0.00  0.00    +0.000 A 
ATOM     10  C   UNL     1      -5.367  12.769  19.533  0.00  0.00    +0.000 A 
ATOM     11  C   UNL     1      -6.169  12.546  18.421  0.00  0.00    +0.000 A 
ATOM     12 CL   UNL     1      -7.830  12.992  18.453  0.00  0.00    +0.000 Cl
ATOM     13  C   UNL     1      -5.629  11.973  17.273  0.00  0.00    +0.000 A 
ATOM     14  C   UNL     1      -4.279  11.620  17.241  0.00  0.00    +0.000 A 
ENDBRANCH   2   8
BRANCH   2  15
ATOM     15  O   UNL     1      -1.259  12.500  17.595  0.00  0.00    +0.000 OA
ATOM     16  H   UNL     1      -1.235  13.288  18.167  0.00  0.00    +0.000 HD
ENDBRANCH   2  15
ENDBRANCH   1   5
BRANCH   1  17
ATOM     17  C   UNL     1       2.053   8.566  17.770  0.00  0.00    +0.000 C 
BRANCH  17  18
ATOM     18  C   UNL     1       3.388   7.806  17.829  0.00  0.00    +0.000 C 
BRANCH  18  19
ATOM     19  C   UNL     1       3.307   6.318  17.398  0.00  0.00    +0.000 C 
BRANCH  19  20
ATOM     20  C   UNL     1       2.770   5.400  18.497  0.00  0.00    +0.000 A 
ATOM     21  C   UNL     1       1.758   4.473  18.190  0.00  0.00    +0.000 A 
ATOM     22  C   UNL     1       1.221   3.644  19.178  0.00  0.00    +0.000 A 
ATOM     23  C   UNL     1       1.694   3.723  20.484  0.00  0.00    +0.000 A 
ATOM     24 CL   UNL     1       1.023   2.718  21.706  0.00  0.00    +0.000 Cl
ATOM     25  C   UNL     1       2.708   4.620  20.808  0.00  0.00    +0.000 A 
ATOM     26  C   UNL     1       3.246   5.448  19.820  0.00  0.00    +0.000 A 
ENDBRANCH  19  20
BRANCH  19  27
ATOM     27  C   UNL     1       4.643   5.843  16.836  0.00  0.00    +0.000 A 
ATOM     28  C   UNL     1       4.747   4.620  16.149  0.00  0.00    +0.000 A 
ATOM     29  C   UNL     1       5.988   4.139  15.733  0.00  0.00    +0.000 A 
ATOM     30  C   UNL     1       7.143   4.878  15.982  0.00  0.00    +0.000 A 
ATOM     31  C   UNL     1       7.055   6.101  16.642  0.00  0.00    +0.000 A 
ATOM     32  C   UNL     1       5.814   6.583  17.066  0.00  0.00    +0.000 A 
ENDBRANCH  19  27
ENDBRANCH  18  19
ENDBRANCH  17  18
ENDBRANCH   1  17
TORSDOF 8
ENDMDL
MODEL 4
REMARK VINA RESULT:      -8.9      2.084      4.083
REMARK  Name = 
REMARK  8 active torsions:
REMARK  status: ('A' for Active; 'I' for Inactive)
REMARK    1  A    between atoms: O_1  and  C_2
REMARK    2  A    between atoms: C_2  and  C_3
REMARK    3  A    between atoms: N_12  and  C_13
REMARK    4  A    between atoms: C_13  and  C_14
REMARK    5  A    between atoms: C_14  and  C_15
REMARK    6  A    between atoms: C_15  and  C_16
REMARK    7  A    between atoms: C_16  and  C_17
REMARK    8  A    between atoms: C_16  and  C_23
REMARK                            x       y       z     vdW  Elec       q    Type
REMARK                         _______ _______ _______ _____ _____    ______ ____
ROOT
ATOM      1  C   UNL     1       1.729   9.552  17.945  0.00  0.00    +0.000 C 
ENDROOT
BRANCH   1   5
ATOM      2  C   UNL     1      -0.520  11.651  20.995  0.00  0.00    +0.000 C 
ATOM      3  C   UNL     1      -0.389  10.121  21.009  0.00  0.00    +0.000 C 
ATOM      4  C   UNL     1       0.811   9.653  20.195  0.00  0.00    +0.000 C 
ATOM      5  N   UNL     1       0.688  10.127  18.808  0.00  0.00    +0.000 NA
ATOM      6  C   UNL     1       0.728  11.596  18.779  0.00  0.00    +0.000 C 
ATOM      7  C   UNL     1      -0.451  12.185  19.557  0.00  0.00    +0.000 C 
BRANCH   2   8
ATOM      8  C   UNL     1      -1.793  12.160  21.681  0.00  0.00    +0.000 A 
ATOM      9  C   UNL     1      -2.745  12.898  20.953  0.00  0.00    +0.000 A 
ATOM     10  C   UNL     1      -3.927  13.344  21.551  0.00  0.00    +0.000 A 
ATOM     11  C   UNL     1      -4.182  13.048  22.885  0.00  0.00    +0.000 A 
ATOM     12 CL   UNL     1      -5.642  13.583  23.621  0.00  0.00    +0.000 Cl
ATOM     13  C   UNL     1      -3.267  12.308  23.625  0.00  0.00    +0.000 A 
ATOM     14  C   UNL     1      -2.086  11.863  23.026  0.00  0.00    +0.000 A 
ENDBRANCH   2   8
BRANCH   2  15
ATOM     15  O   UNL     1       0.619  12.163  21.713  0.00  0.00    +0.000 OA
ATOM     16  H   UNL     1       0.368  13.041  22.050  0.00  0.00    +0.000 HD
ENDBRANCH   2  15
ENDBRANCH   1   5
BRANCH   1  17
ATOM     17  C   UNL     1       1.956   8.057  18.213  0.00  0.00    +0.000 C 
BRANCH  17  18
ATOM     18  C   UNL     1       3.312   7.527  17.719  0.00  0.00    +0.000 C 
BRANCH  18  19
ATOM     19  C   UNL     1       3.335   6.011  17.392  0.00  0.00    +0.000 C 
BRANCH  19  20
ATOM     20  C   UNL     1       2.748   5.145  18.507  0.00  0.00    +0.000 A 
ATOM     21  C   UNL     1       3.306   5.210  19.797  0.00  0.00    +0.000 A 
ATOM     22  C   UNL     1       2.817   4.407  20.831  0.00  0.00    +0.000 A 
ATOM     23  C   UNL     1       1.759   3.535  20.592  0.00  0.00    +0.000 A 
ATOM     24 CL   UNL     1       1.167   2.531  21.857  0.00  0.00    +0.000 Cl
ATOM     25  C   UNL     1       1.179   3.467  19.328  0.00  0.00    +0.000 A 
ATOM     26  C   UNL     1       1.667   4.271  18.295  0.00  0.00    +0.000 A 
ENDBRANCH  19  20
BRANCH  19  27
ATOM     27  C   UNL     1       4.734   5.567  16.978  0.00  0.00    +0.000 A 
ATOM     28  C   UNL     1       5.859   6.364  17.255  0.00  0.00    +0.000 A 
ATOM     29  C   UNL     1       7.121   6.007  16.780  0.00  0.00    +0.000 A 
ATOM     30  C   UNL     1       7.282   4.841  16.033  0.00  0.00    +0.000 A 
ATOM     31  C   UNL     1       6.182   4.029  15.768  0.00  0.00    +0.000 A 
ATOM     32  C   UNL     1       4.915   4.388  16.237  0.00  0.00    +0.000 A 
ENDBRANCH  19  27
ENDBRANCH  18  19
ENDBRANCH  17  18
ENDBRANCH   1  17
TORSDOF 8
ENDMDL
MODEL 5
REMARK VINA RESULT:      -8.9      2.366      4.167
REMARK  Name = 
REMARK  8 active torsions:
REMARK  status: ('A' for Active; 'I' for Inactive)
REMARK    1  A    between atoms: O_1  and  C_2
REMARK    2  A    between atoms: C_2  and  C_3
REMARK    3  A    between atoms: N_12  and  C_13
REMARK    4  A    between atoms: C_13  and  C_14
REMARK    5  A    between atoms: C_14  and  C_15
REMARK    6  A    between atoms: C_15  and  C_16
REMARK    7  A    between atoms: C_16  and  C_17
REMARK    8  A    between atoms: C_16  and  C_23
REMARK                            x       y       z     vdW  Elec       q    Type
REMARK                         _______ _______ _______ _____ _____    ______ ____
ROOT
ATOM      1  C   UNL     1       2.048   9.814  17.996  0.00  0.00    +0.000 C 
ENDROOT
BRANCH   1   5
ATOM      2  C   UNL     1      -1.263  12.011  19.722  0.00  0.00    +0.000 C 
ATOM      3  C   UNL     1       0.169  12.173  20.254  0.00  0.00    +0.000 C 
ATOM      4  C   UNL     1       1.203  11.735  19.225  0.00  0.00    +0.000 C 
ATOM      5  N   UNL     1       0.970  10.332  18.850  0.00  0.00    +0.000 NA
ATOM      6  C   UNL     1      -0.336  10.204  18.189  0.00  0.00    +0.000 C 
ATOM      7  C   UNL     1      -1.466  10.604  19.142  0.00  0.00    +0.000 C 
BRANCH   2   8
ATOM      8  C   UNL     1      -2.341  12.303  20.773  0.00  0.00    +0.000 A 
ATOM      9  C   UNL     1      -2.040  12.206  22.144  0.00  0.00    +0.000 A 
ATOM     10  C   UNL     1      -2.999  12.499  23.118  0.00  0.00    +0.000 A 
ATOM     11  C   UNL     1      -4.272  12.905  22.736  0.00  0.00    +0.000 A 
ATOM     12 CL   UNL     1      -5.451  13.280  23.931  0.00  0.00    +0.000 Cl
ATOM     13  C   UNL     1      -4.593  13.025  21.388  0.00  0.00    +0.000 A 
ATOM     14  C   UNL     1      -3.634  12.732  20.416  0.00  0.00    +0.000 A 
ENDBRANCH   2   8
BRANCH   2  15
ATOM     15  O   UNL     1      -1.406  12.959  18.647  0.00  0.00    +0.000 OA
ATOM     16  H   UNL     1      -2.193  13.495  18.848  0.00  0.00    +0.000 HD
ENDBRANCH   2  15
ENDBRANCH   1   5
BRANCH   1  17
ATOM     17  C   UNL     1       1.964   8.292  17.803  0.00  0.00    +0.000 C 
BRANCH  17  18
ATOM     18  C   UNL     1       3.322   7.575  17.859  0.00  0.00    +0.000 C 
BRANCH  18  19
ATOM     19  C   UNL     1       3.277   6.072  17.477  0.00  0.00    +0.000 C 
BRANCH  19  20
ATOM     20  C   UNL     1       2.676   5.189  18.573  0.00  0.00    +0.000 A 
ATOM     21  C   UNL     1       3.113   5.345  19.901  0.00  0.00    +0.000 A 
ATOM     22  C   UNL     1       2.611   4.532  20.921  0.00  0.00    +0.000 A 
ATOM     23  C   UNL     1       1.660   3.560  20.630  0.00  0.00    +0.000 A 
ATOM     24 CL   UNL     1       1.055   2.545  21.879  0.00  0.00    +0.000 Cl
ATOM     25  C   UNL     1       1.199   3.399  19.326  0.00  0.00    +0.000 A 
ATOM     26  C   UNL     1       1.700   4.213  18.306  0.00  0.00    +0.000 A 
ENDBRANCH  19  20
BRANCH  19  27
ATOM     27  C   UNL     1       4.649   5.587  17.019  0.00  0.00    +0.000 A 
ATOM     28  C   UNL     1       5.799   6.373  17.217  0.00  0.00    +0.000 A 
ATOM     29  C   UNL     1       7.031   5.976  16.700  0.00  0.00    +0.000 A 
ATOM     30  C   UNL     1       7.140   4.781  15.992  0.00  0.00    +0.000 A 
ATOM     31  C   UNL     1       6.016   3.980  15.806  0.00  0.00    +0.000 A 
ATOM     32  C   UNL     1       4.777   4.378  16.317  0.00  0.00    +0.000 A 
ENDBRANCH  19  27
ENDBRANCH  18  19
ENDBRANCH  17  18
ENDBRANCH   1  17
TORSDOF 8
ENDMDL
MODEL 6
REMARK VINA RESULT:      -8.8      2.412      4.162
REMARK  Name = 
REMARK  8 active torsions:
REMARK  status: ('A' for Active; 'I' for Inactive)
REMARK    1  A    between atoms: O_1  and  C_2
REMARK    2  A    between atoms: C_2  and  C_3
REMARK    3  A    between atoms: N_12  and  C_13
REMARK    4  A    between atoms: C_13  and  C_14
REMARK    5  A    between atoms: C_14  and  C_15
REMARK    6  A    between atoms: C_15  and  C_16
REMARK    7  A    between atoms: C_16  and  C_17
REMARK    8  A    between atoms: C_16  and  C_23
REMARK                            x       y       z     vdW  Elec       q    Type
REMARK                         _______ _______ _______ _____ _____    ______ ____
ROOT
ATOM      1  C   UNL     1       1.972   9.840  17.971  0.00  0.00    +0.000 C 
ENDROOT
BRANCH   1   5
ATOM      2  C   UNL     1      -1.356  12.101  19.578  0.00  0.00    +0.000 C 
ATOM      3  C   UNL     1       0.045  12.190  20.200  0.00  0.00    +0.000 C 
ATOM      4  C   UNL     1       1.124  11.749  19.218  0.00  0.00    +0.000 C 
ATOM      5  N   UNL     1       0.864  10.370  18.779  0.00  0.00    +0.000 NA
ATOM      6  C   UNL     1      -0.404  10.315  18.037  0.00  0.00    +0.000 C 
ATOM      7  C   UNL     1      -1.574  10.724  18.935  0.00  0.00    +0.000 C 
BRANCH   2   8
ATOM      8  C   UNL     1      -2.485  12.398  20.573  0.00  0.00    +0.000 A 
ATOM      9  C   UNL     1      -3.797  12.615  20.113  0.00  0.00    +0.000 A 
ATOM     10  C   UNL     1      -4.846  12.856  21.005  0.00  0.00    +0.000 A 
ATOM     11  C   UNL     1      -4.601  12.872  22.373  0.00  0.00    +0.000 A 
ATOM     12 CL   UNL     1      -5.891  13.154  23.475  0.00  0.00    +0.000 Cl
ATOM     13  C   UNL     1      -3.316  12.646  22.857  0.00  0.00    +0.000 A 
ATOM     14  C   UNL     1      -2.269  12.406  21.964  0.00  0.00    +0.000 A 
ENDBRANCH   2   8
BRANCH   2  15
ATOM     15  O   UNL     1      -1.400  13.091  18.531  0.00  0.00    +0.000 OA
ATOM     16  H   UNL     1      -0.557  13.577  18.570  0.00  0.00    +0.000 HD
ENDBRANCH   2  15
ENDBRANCH   1   5
BRANCH   1  17
ATOM     17  C   UNL     1       1.885   8.319  17.781  0.00  0.00    +0.000 C 
BRANCH  17  18
ATOM     18  C   UNL     1       3.222   7.584  17.967  0.00  0.00    +0.000 C 
BRANCH  18  19
ATOM     19  C   UNL     1       3.205   6.091  17.545  0.00  0.00    +0.000 C 
BRANCH  19  20
ATOM     20  C   UNL     1       2.651   5.165  18.629  0.00  0.00    +0.000 A 
ATOM     21  C   UNL     1       2.931   5.439  19.980  0.00  0.00    +0.000 A 
ATOM     22  C   UNL     1       2.471   4.594  20.993  0.00  0.00    +0.000 A 
ATOM     23  C   UNL     1       1.716   3.470  20.671  0.00  0.00    +0.000 A 
ATOM     24 CL   UNL     1       1.164   2.418  21.914  0.00  0.00    +0.000 Cl
ATOM     25  C   UNL     1       1.411   3.188  19.342  0.00  0.00    +0.000 A 
ATOM     26  C   UNL     1       1.870   4.034  18.329  0.00  0.00    +0.000 A 
ENDBRANCH  19  20
BRANCH  19  27
ATOM     27  C   UNL     1       4.578   5.653  17.044  0.00  0.00    +0.000 A 
ATOM     28  C   UNL     1       4.714   4.574  16.152  0.00  0.00    +0.000 A 
ATOM     29  C   UNL     1       5.976   4.109  15.782  0.00  0.00    +0.000 A 
ATOM     30  C   UNL     1       7.121   4.723  16.285  0.00  0.00    +0.000 A 
ATOM     31  C   UNL     1       7.004   5.807  17.152  0.00  0.00    +0.000 A 
ATOM     32  C   UNL     1       5.741   6.271  17.530  0.00  0.00    +0.000 A 
ENDBRANCH  19  27
ENDBRANCH  18  19
ENDBRANCH  17  18
ENDBRANCH   1  17
TORSDOF 8
ENDMDL
MODEL 7
REMARK VINA RESULT:      -8.7      2.482      4.354
REMARK  Name = 
REMARK  8 active torsions:
REMARK  status: ('A' for Active; 'I' for Inactive)
REMARK    1  A    between atoms: O_1  and  C_2
REMARK    2  A    between atoms: C_2  and  C_3
REMARK    3  A    between atoms: N_12  and  C_13
REMARK    4  A    between atoms: C_13  and  C_14
REMARK    5  A    between atoms: C_14  and  C_15
REMARK    6  A    between atoms: C_15  and  C_16
REMARK    7  A    between atoms: C_16  and  C_17
REMARK    8  A    between atoms: C_16  and  C_23
REMARK                            x       y       z     vdW  Elec       q    Type
REMARK                         _______ _______ _______ _____ _____    ______ ____
ROOT
ATOM      1  C   UNL     1       2.005   9.696  17.942  0.00  0.00    +0.000 C 
ENDROOT
BRANCH   1   5
ATOM      2  C   UNL     1      -1.426  12.018  19.209  0.00  0.00    +0.000 C 
ATOM      3  C   UNL     1      -0.029  12.268  19.798  0.00  0.00    +0.000 C 
ATOM      4  C   UNL     1       1.068  11.732  18.887  0.00  0.00    +0.000 C 
ATOM      5  N   UNL     1       0.874  10.291  18.668  0.00  0.00    +0.000 NA
ATOM      6  C   UNL     1      -0.391  10.062  17.954  0.00  0.00    +0.000 C 
ATOM      7  C   UNL     1      -1.578  10.549  18.789  0.00  0.00    +0.000 C 
BRANCH   2   8
ATOM      8  C   UNL     1      -2.566  12.412  20.156  0.00  0.00    +0.000 A 
ATOM      9  C   UNL     1      -3.897  12.416  19.700  0.00  0.00    +0.000 A 
ATOM     10  C   UNL     1      -4.954  12.741  20.556  0.00  0.00    +0.000 A 
ATOM     11  C   UNL     1      -4.697  13.055  21.884  0.00  0.00    +0.000 A 
ATOM     12 CL   UNL     1      -5.996  13.442  22.944  0.00  0.00    +0.000 Cl
ATOM     13  C   UNL     1      -3.392  13.045  22.367  0.00  0.00    +0.000 A 
ATOM     14  C   UNL     1      -2.337  12.720  21.511  0.00  0.00    +0.000 A 
ENDBRANCH   2   8
BRANCH   2  15
ATOM     15  O   UNL     1      -1.518  12.831  18.023  0.00  0.00    +0.000 OA
ATOM     16  H   UNL     1      -1.465  12.225  17.263  0.00  0.00    +0.000 HD
ENDBRANCH   2  15
ENDBRANCH   1   5
BRANCH   1  17
ATOM     17  C   UNL     1       2.014   8.162  18.024  0.00  0.00    +0.000 C 
BRANCH  17  18
ATOM     18  C   UNL     1       3.392   7.527  17.780  0.00  0.00    +0.000 C 
BRANCH  18  19
ATOM     19  C   UNL     1       3.355   6.018  17.418  0.00  0.00    +0.000 C 
BRANCH  19  20
ATOM     20  C   UNL     1       2.816   5.141  18.549  0.00  0.00    +0.000 A 
ATOM     21  C   UNL     1       1.718   4.296  18.304  0.00  0.00    +0.000 A 
ATOM     22  C   UNL     1       1.179   3.507  19.323  0.00  0.00    +0.000 A 
ATOM     23  C   UNL     1       1.734   3.545  20.598  0.00  0.00    +0.000 A 
ATOM     24 CL   UNL     1       1.061   2.591  21.860  0.00  0.00    +0.000 Cl
ATOM     25  C   UNL     1       2.832   4.361  20.861  0.00  0.00    +0.000 A 
ATOM     26  C   UNL     1       3.372   5.148  19.841  0.00  0.00    +0.000 A 
ENDBRANCH  19  20
BRANCH  19  27
ATOM     27  C   UNL     1       4.714   5.550  16.908  0.00  0.00    +0.000 A 
ATOM     28  C   UNL     1       5.851   6.372  17.013  0.00  0.00    +0.000 A 
ATOM     29  C   UNL     1       7.066   5.984  16.448  0.00  0.00    +0.000 A 
ATOM     30  C   UNL     1       7.169   4.764  15.783  0.00  0.00    +0.000 A 
ATOM     31  C   UNL     1       6.059   3.928  15.689  0.00  0.00    +0.000 A 
ATOM     32  C   UNL     1       4.838   4.316  16.248  0.00  0.00    +0.000 A 
ENDBRANCH  19  27
ENDBRANCH  18  19
ENDBRANCH  17  18
ENDBRANCH   1  17
TORSDOF 8
ENDMDL
MODEL 8
REMARK VINA RESULT:      -8.7      0.829      1.328
REMARK  Name = 
REMARK  8 active torsions:
REMARK  status: ('A' for Active; 'I' for Inactive)
REMARK    1  A    between atoms: O_1  and  C_2
REMARK    2  A    between atoms: C_2  and  C_3
REMARK    3  A    between atoms: N_12  and  C_13
REMARK    4  A    between atoms: C_13  and  C_14
REMARK    5  A    between atoms: C_14  and  C_15
REMARK    6  A    between atoms: C_15  and  C_16
REMARK    7  A    between atoms: C_16  and  C_17
REMARK    8  A    between atoms: C_16  and  C_23
REMARK                            x       y       z     vdW  Elec       q    Type
REMARK                         _______ _______ _______ _____ _____    ______ ____
ROOT
ATOM      1  C   UNL     1       1.558   9.645  17.967  0.00  0.00    +0.000 C 
ENDROOT
BRANCH   1   5
ATOM      2  C   UNL     1      -0.761  11.667  21.017  0.00  0.00    +0.000 C 
ATOM      3  C   UNL     1      -0.562  10.144  21.042  0.00  0.00    +0.000 C 
ATOM      4  C   UNL     1       0.652   9.723  20.223  0.00  0.00    +0.000 C 
ATOM      5  N   UNL     1       0.499  10.179  18.834  0.00  0.00    +0.000 NA
ATOM      6  C   UNL     1       0.473  11.649  18.792  0.00  0.00    +0.000 C 
ATOM      7  C   UNL     1      -0.726  12.191  19.574  0.00  0.00    +0.000 C 
BRANCH   2   8
ATOM      8  C   UNL     1      -2.050  12.125  21.708  0.00  0.00    +0.000 A 
ATOM      9  C   UNL     1      -2.199  11.981  23.100  0.00  0.00    +0.000 A 
ATOM     10  C   UNL     1      -3.354  12.420  23.754  0.00  0.00    +0.000 A 
ATOM     11  C   UNL     1      -4.374  13.022  23.028  0.00  0.00    +0.000 A 
ATOM     12 CL   UNL     1      -5.791  13.577  23.830  0.00  0.00    +0.000 Cl
ATOM     13  C   UNL     1      -4.248  13.192  21.652  0.00  0.00    +0.000 A 
ATOM     14  C   UNL     1      -3.094  12.752  21.000  0.00  0.00    +0.000 A 
ENDBRANCH   2   8
BRANCH   2  15
ATOM     15  O   UNL     1       0.360  12.235  21.722  0.00  0.00    +0.000 OA
ATOM     16  H   UNL     1       1.118  12.210  21.111  0.00  0.00    +0.000 HD
ENDBRANCH   2  15
ENDBRANCH   1   5
BRANCH   1  17
ATOM     17  C   UNL     1       2.366   8.529  18.647  0.00  0.00    +0.000 C 
BRANCH  17  18
ATOM     18  C   UNL     1       2.129   7.130  18.054  0.00  0.00    +0.000 C 
BRANCH  18  19
ATOM     19  C   UNL     1       3.172   6.063  18.479  0.00  0.00    +0.000 C 
BRANCH  19  20
ATOM     20  C   UNL     1       4.071   5.607  17.328  0.00  0.00    +0.000 A 
ATOM     21  C   UNL     1       4.346   4.237  17.168  0.00  0.00    +0.000 A 
ATOM     22  C   UNL     1       5.190   3.789  16.149  0.00  0.00    +0.000 A 
ATOM     23  C   UNL     1       5.764   4.703  15.271  0.00  0.00    +0.000 A 
ATOM     24 CL   UNL     1       6.819   4.158  14.027  0.00  0.00    +0.000 Cl
ATOM     25  C   UNL     1       5.492   6.063  15.398  0.00  0.00    +0.000 A 
ATOM     26  C   UNL     1       4.647   6.510  16.416  0.00  0.00    +0.000 A 
ENDBRANCH  19  20
BRANCH  19  27
ATOM     27  C   UNL     1       2.494   4.897  19.192  0.00  0.00    +0.000 A 
ATOM     28  C   UNL     1       1.533   4.105  18.536  0.00  0.00    +0.000 A 
ATOM     29  C   UNL     1       0.838   3.111  19.224  0.00  0.00    +0.000 A 
ATOM     30  C   UNL     1       1.101   2.880  20.572  0.00  0.00    +0.000 A 
ATOM     31  C   UNL     1       2.065   3.640  21.232  0.00  0.00    +0.000 A 
ATOM     32  C   UNL     1       2.758   4.642  20.547  0.00  0.00    +0.000 A 
ENDBRANCH  19  27
ENDBRANCH  18  19
ENDBRANCH  17  18
ENDBRANCH   1  17
TORSDOF 8
ENDMDL
MODEL 9
REMARK VINA RESULT:      -8.7      1.942      3.911
REMARK  Name = 
REMARK  8 active torsions:
REMARK  status: ('A' for Active; 'I' for Inactive)
REMARK    1  A    between atoms: O_1  and  C_2
REMARK    2  A    between atoms: C_2  and  C_3
REMARK    3  A    between atoms: N_12  and  C_13
REMARK    4  A    between atoms: C_13  and  C_14
REMARK    5  A    between atoms: C_14  and  C_15
REMARK    6  A    between atoms: C_15  and  C_16
REMARK    7  A    between atoms: C_16  and  C_17
REMARK    8  A    between atoms: C_16  and  C_23
REMARK                            x       y       z     vdW  Elec       q    Type
REMARK                         _______ _______ _______ _____ _____    ______ ____
ROOT
ATOM      1  C   UNL     1       1.988   8.015  19.911  0.00  0.00    +0.000 C 
ENDROOT
BRANCH   1   5
ATOM      2  C   UNL     1      -0.469  11.206  21.509  0.00  0.00    +0.000 C 
ATOM      3  C   UNL     1      -0.167   9.942  22.328  0.00  0.00    +0.000 C 
ATOM      4  C   UNL     1       1.074   9.223  21.814  0.00  0.00    +0.000 C 
ATOM      5  N   UNL     1       0.893   8.865  20.400  0.00  0.00    +0.000 NA
ATOM      6  C   UNL     1       0.768  10.085  19.589  0.00  0.00    +0.000 C 
ATOM      7  C   UNL     1      -0.466  10.888  20.007  0.00  0.00    +0.000 C 
BRANCH   2   8
ATOM      8  C   UNL     1      -1.788  11.884  21.897  0.00  0.00    +0.000 A 
ATOM      9  C   UNL     1      -2.247  11.833  23.227  0.00  0.00    +0.000 A 
ATOM     10  C   UNL     1      -3.431  12.471  23.608  0.00  0.00    +0.000 A 
ATOM     11  C   UNL     1      -4.168  13.181  22.669  0.00  0.00    +0.000 A 
ATOM     12 CL   UNL     1      -5.619  13.979  23.137  0.00  0.00    +0.000 Cl
ATOM     13  C   UNL     1      -3.731  13.262  21.350  0.00  0.00    +0.000 A 
ATOM     14  C   UNL     1      -2.548  12.623  20.971  0.00  0.00    +0.000 A 
ENDBRANCH   2   8
BRANCH   2  15
ATOM     15  O   UNL     1       0.610  12.125  21.769  0.00  0.00    +0.000 OA
ATOM     16  H   UNL     1       1.190  11.699  22.423  0.00  0.00    +0.000 HD
ENDBRANCH   2  15
ENDBRANCH   1   5
BRANCH   1  17
ATOM     17  C   UNL     1       2.061   7.976  18.377  0.00  0.00    +0.000 C 
BRANCH  17  18
ATOM     18  C   UNL     1       3.380   7.412  17.824  0.00  0.00    +0.000 C 
BRANCH  18  19
ATOM     19  C   UNL     1       3.331   5.909  17.441  0.00  0.00    +0.000 C 
BRANCH  19  20
ATOM     20  C   UNL     1       2.821   5.015  18.572  0.00  0.00    +0.000 A 
ATOM     21  C   UNL     1       1.631   4.287  18.393  0.00  0.00    +0.000 A 
ATOM     22  C   UNL     1       1.118   3.488  19.419  0.00  0.00    +0.000 A 
ATOM     23  C   UNL     1       1.791   3.399  20.632  0.00  0.00    +0.000 A 
ATOM     24 CL   UNL     1       1.153   2.432  21.903  0.00  0.00    +0.000 Cl
ATOM     25  C   UNL     1       2.981   4.096  20.827  0.00  0.00    +0.000 A 
ATOM     26  C   UNL     1       3.494   4.894  19.801  0.00  0.00    +0.000 A 
ENDBRANCH  19  20
BRANCH  19  27
ATOM     27  C   UNL     1       4.676   5.447  16.888  0.00  0.00    +0.000 A 
ATOM     28  C   UNL     1       5.831   6.236  17.038  0.00  0.00    +0.000 A 
ATOM     29  C   UNL     1       7.033   5.861  16.437  0.00  0.00    +0.000 A 
ATOM     30  C   UNL     1       7.105   4.687  15.692  0.00  0.00    +0.000 A 
ATOM     31  C   UNL     1       5.976   3.883  15.551  0.00  0.00    +0.000 A 
ATOM     32  C   UNL     1       4.769   4.258  16.146  0.00  0.00    +0.000 A 
ENDBRANCH  19  27
ENDBRANCH  18  19
ENDBRANCH  17  18
ENDBRANCH   1  17
TORSDOF 8
ENDMDL
