MODEL 1
REMARK VINA RESULT:      -7.3      0.000      0.000
REMARK  Name = 
REMARK  8 active torsions:
REMARK  status: ('A' for Active; 'I' for Inactive)
REMARK    1  A    between atoms: C_1  and  C_2
REMARK    2  A    between atoms: C_4  and  C_5
REMARK    3  A    between atoms: C_7  and  C_8
REMARK    4  A    between atoms: C_8  and  C_9
REMARK    5  A    between atoms: C_8  and  C_10
REMARK    6  A    between atoms: C_12  and  C_13
REMARK    7  A    between atoms: N_14  and  C_15
REMARK    8  A    between atoms: N_18  and  C_19
REMARK                            x       y       z     vdW  Elec       q    Type
REMARK                         _______ _______ _______ _____ _____    ______ ____
ROOT
ATOM      1  C   UNL     1       2.091   2.314  21.769  0.00  0.00    +0.000 C 
ATOM      2  C   UNL     1       2.653   3.294  20.816  0.00  0.00    +0.000 A 
ATOM      3  N   UNL     1       3.561   2.973  19.843  0.00  0.00    +0.000 NA
ATOM      4  C   UNL     1       3.836   4.132  19.268  0.00  0.00    +0.000 A 
ATOM      5  N   UNL     1       3.051   5.100  19.858  0.00  0.00    +0.000 N 
ATOM      6  N   UNL     1       2.312   4.580  20.860  0.00  0.00    +0.000 NA
ENDROOT
BRANCH   5   7
ATOM      7  C   UNL     1       2.902   6.511  19.548  0.00  0.00    +0.000 C 
ATOM      8  C   UNL     1       1.748   7.140  20.333  0.00  0.00    +0.000 C 
ATOM      9  C   UNL     1       1.674   8.634  20.037  0.00  0.00    +0.000 C 
ATOM     10  N   UNL     1       1.542   8.887  18.597  0.00  0.00    +0.000 NA
ATOM     11  C   UNL     1       1.461  10.326  18.339  0.00  0.00    +0.000 C 
ATOM     12  C   UNL     1       2.632   8.288  17.816  0.00  0.00    +0.000 C 
ATOM     13  C   UNL     1       2.724   6.781  18.053  0.00  0.00    +0.000 C 
ENDBRANCH   5   7
BRANCH   4  14
ATOM     14  C   UNL     1       4.783   4.285  18.192  0.00  0.00    +0.000 A 
ATOM     15  S   UNL     1       4.435   3.850  16.561  0.00  0.00    +0.000 S 
ATOM     16  C   UNL     1       6.023   4.280  16.086  0.00  0.00    +0.000 A 
ATOM     17  N   UNL     1       6.757   4.817  17.034  0.00  0.00    +0.000 NA
ATOM     18  C   UNL     1       6.049   4.857  18.232  0.00  0.00    +0.000 A 
ATOM     19  C   UNL     1       6.729   5.480  19.400  0.00  0.00    +0.000 C 
BRANCH  16  20
ATOM     20  C   UNL     1       6.487   4.058  14.667  0.00  0.00    +0.000 C 
ATOM     21  C   UNL     1       5.289   3.877  13.735  0.00  0.00    +0.000 C 
ATOM     22  C   UNL     1       7.365   5.218  14.192  0.00  0.00    +0.000 C 
ENDBRANCH  16  20
ENDBRANCH   4  14
TORSDOF 3
ENDMDL
MODEL 2
REMARK VINA RESULT:      -6.7      1.331      1.841
REMARK  Name = 
REMARK  8 active torsions:
REMARK  status: ('A' for Active; 'I' for Inactive)
REMARK    1  A    between atoms: C_1  and  C_2
REMARK    2  A    between atoms: C_4  and  C_5
REMARK    3  A    between atoms: C_7  and  C_8
REMARK    4  A    between atoms: C_8  and  C_9
REMARK    5  A    between atoms: C_8  and  C_10
REMARK    6  A    between atoms: C_12  and  C_13
REMARK    7  A    between atoms: N_14  and  C_15
REMARK    8  A    between atoms: N_18  and  C_19
REMARK                            x       y       z     vdW  Elec       q    Type
REMARK                         _______ _______ _______ _____ _____    ______ ____
ROOT
ATOM      1  C   UNL     1       1.237   2.543  22.161  0.00  0.00    +0.000 C 
ATOM      2  C   UNL     1       1.879   3.458  21.195  0.00  0.00    +0.000 A 
ATOM      3  N   UNL     1       2.752   3.046  20.223  0.00  0.00    +0.000 NA
ATOM      4  C   UNL     1       3.125   4.170  19.633  0.00  0.00    +0.000 A 
ATOM      5  N   UNL     1       2.431   5.210  20.213  0.00  0.00    +0.000 N 
ATOM      6  N   UNL     1       1.653   4.769  21.224  0.00  0.00    +0.000 NA
ENDROOT
BRANCH   5   7
ATOM      7  C   UNL     1       2.405   6.625  19.886  0.00  0.00    +0.000 C 
ATOM      8  C   UNL     1       1.328   7.366  20.681  0.00  0.00    +0.000 C 
ATOM      9  C   UNL     1       1.385   8.857  20.366  0.00  0.00    +0.000 C 
ATOM     10  N   UNL     1       1.250   9.103  18.925  0.00  0.00    +0.000 NA
ATOM     11  C   UNL     1       1.296  10.540  18.648  0.00  0.00    +0.000 C 
ATOM     12  C   UNL     1       2.267   8.397  18.134  0.00  0.00    +0.000 C 
ATOM     13  C   UNL     1       2.225   6.891  18.390  0.00  0.00    +0.000 C 
ENDBRANCH   5   7
BRANCH   4  14
ATOM     14  C   UNL     1       4.078   4.225  18.553  0.00  0.00    +0.000 A 
ATOM     15  S   UNL     1       5.631   4.955  18.703  0.00  0.00    +0.000 S 
ATOM     16  C   UNL     1       5.968   4.628  17.055  0.00  0.00    +0.000 A 
ATOM     17  N   UNL     1       5.047   3.927  16.433  0.00  0.00    +0.000 NA
ATOM     18  C   UNL     1       3.980   3.661  17.285  0.00  0.00    +0.000 A 
ATOM     19  C   UNL     1       2.868   2.835  16.741  0.00  0.00    +0.000 C 
BRANCH  16  20
ATOM     20  C   UNL     1       7.249   5.114  16.422  0.00  0.00    +0.000 C 
ATOM     21  C   UNL     1       7.178   4.983  14.902  0.00  0.00    +0.000 C 
ATOM     22  C   UNL     1       7.539   6.562  16.822  0.00  0.00    +0.000 C 
ENDBRANCH  16  20
ENDBRANCH   4  14
TORSDOF 3
ENDMDL
MODEL 3
REMARK VINA RESULT:      -6.7      2.750      5.186
REMARK  Name = 
REMARK  8 active torsions:
REMARK  status: ('A' for Active; 'I' for Inactive)
REMARK    1  A    between atoms: C_1  and  C_2
REMARK    2  A    between atoms: C_4  and  C_5
REMARK    3  A    between atoms: C_7  and  C_8
REMARK    4  A    between atoms: C_8  and  C_9
REMARK    5  A    between atoms: C_8  and  C_10
REMARK    6  A    between atoms: C_12  and  C_13
REMARK    7  A    between atoms: N_14  and  C_15
REMARK    8  A    between atoms: N_18  and  C_19
REMARK                            x       y       z     vdW  Elec       q    Type
REMARK                         _______ _______ _______ _____ _____    ______ ____
ROOT
ATOM      1  C   UNL     1       8.183   7.990  18.179  0.00  0.00    +0.000 C 
ATOM      2  C   UNL     1       7.425   6.915  17.506  0.00  0.00    +0.000 A 
ATOM      3  N   UNL     1       7.663   6.508  16.220  0.00  0.00    +0.000 NA
ATOM      4  C   UNL     1       6.741   5.585  16.001  0.00  0.00    +0.000 A 
ATOM      5  N   UNL     1       6.020   5.416  17.164  0.00  0.00    +0.000 N 
ATOM      6  N   UNL     1       6.433   6.274  18.120  0.00  0.00    +0.000 NA
ENDROOT
BRANCH   5   7
ATOM      7  C   UNL     1       4.960   4.478  17.487  0.00  0.00    +0.000 C 
ATOM      8  C   UNL     1       3.580   5.134  17.392  0.00  0.00    +0.000 C 
ATOM      9  C   UNL     1       2.494   4.099  17.664  0.00  0.00    +0.000 C 
ATOM     10  N   UNL     1       2.689   3.451  18.967  0.00  0.00    +0.000 NA
ATOM     11  C   UNL     1       1.628   2.472  19.211  0.00  0.00    +0.000 C 
ATOM     12  C   UNL     1       4.009   2.819  19.092  0.00  0.00    +0.000 C 
ATOM     13  C   UNL     1       5.133   3.827  18.861  0.00  0.00    +0.000 C 
ENDBRANCH   5   7
BRANCH   4  14
ATOM     14  C   UNL     1       6.588   4.892  14.747  0.00  0.00    +0.000 A 
ATOM     15  S   UNL     1       5.226   3.903  14.376  0.00  0.00    +0.000 S 
ATOM     16  C   UNL     1       5.909   3.495  12.859  0.00  0.00    +0.000 A 
ATOM     17  N   UNL     1       7.026   4.122  12.571  0.00  0.00    +0.000 NA
ATOM     18  C   UNL     1       7.407   4.947  13.624  0.00  0.00    +0.000 A 
ATOM     19  C   UNL     1       8.637   5.764  13.436  0.00  0.00    +0.000 C 
BRANCH  16  20
ATOM     20  C   UNL     1       5.225   2.502  11.952  0.00  0.00    +0.000 C 
ATOM     21  C   UNL     1       4.169   3.198  11.095  0.00  0.00    +0.000 C 
ATOM     22  C   UNL     1       6.244   1.781  11.067  0.00  0.00    +0.000 C 
ENDBRANCH  16  20
ENDBRANCH   4  14
TORSDOF 3
ENDMDL
MODEL 4
REMARK VINA RESULT:      -6.4      1.928      4.515
REMARK  Name = 
REMARK  8 active torsions:
REMARK  status: ('A' for Active; 'I' for Inactive)
REMARK    1  A    between atoms: C_1  and  C_2
REMARK    2  A    between atoms: C_4  and  C_5
REMARK    3  A    between atoms: C_7  and  C_8
REMARK    4  A    between atoms: C_8  and  C_9
REMARK    5  A    between atoms: C_8  and  C_10
REMARK    6  A    between atoms: C_12  and  C_13
REMARK    7  A    between atoms: N_14  and  C_15
REMARK    8  A    between atoms: N_18  and  C_19
REMARK                            x       y       z     vdW  Elec       q    Type
REMARK                         _______ _______ _______ _____ _____    ______ ____
ROOT
ATOM      1  C   UNL     1       1.938   9.491  18.194  0.00  0.00    +0.000 C 
ATOM      2  C   UNL     1       2.696   8.244  17.960  0.00  0.00    +0.000 A 
ATOM      3  N   UNL     1       3.805   8.167  17.161  0.00  0.00    +0.000 NA
ATOM      4  C   UNL     1       4.126   6.884  17.183  0.00  0.00    +0.000 A 
ATOM      5  N   UNL     1       3.252   6.238  18.032  0.00  0.00    +0.000 N 
ATOM      6  N   UNL     1       2.324   7.091  18.513  0.00  0.00    +0.000 NA
ENDROOT
BRANCH   5   7
ATOM      7  C   UNL     1       3.215   4.855  18.472  0.00  0.00    +0.000 C 
ATOM      8  C   UNL     1       4.548   4.424  19.089  0.00  0.00    +0.000 C 
ATOM      9  C   UNL     1       4.442   2.993  19.604  0.00  0.00    +0.000 C 
ATOM     10  N   UNL     1       4.023   2.072  18.541  0.00  0.00    +0.000 NA
ATOM     11  C   UNL     1       3.940   0.705  19.056  0.00  0.00    +0.000 C 
ATOM     12  C   UNL     1       2.749   2.465  17.923  0.00  0.00    +0.000 C 
ATOM     13  C   UNL     1       2.817   3.883  17.359  0.00  0.00    +0.000 C 
ENDBRANCH   5   7
BRANCH   4  14
ATOM     14  C   UNL     1       5.231   6.325  16.446  0.00  0.00    +0.000 A 
ATOM     15  S   UNL     1       5.060   5.619  14.883  0.00  0.00    +0.000 S 
ATOM     16  C   UNL     1       6.725   5.216  14.860  0.00  0.00    +0.000 A 
ATOM     17  N   UNL     1       7.414   5.659  15.887  0.00  0.00    +0.000 NA
ATOM     18  C   UNL     1       6.580   6.323  16.782  0.00  0.00    +0.000 A 
ATOM     19  C   UNL     1       7.219   6.926  17.983  0.00  0.00    +0.000 C 
BRANCH  16  20
ATOM     20  C   UNL     1       7.308   4.428  13.713  0.00  0.00    +0.000 C 
ATOM     21  C   UNL     1       6.218   3.618  13.012  0.00  0.00    +0.000 C 
ATOM     22  C   UNL     1       8.011   5.354  12.718  0.00  0.00    +0.000 C 
ENDBRANCH  16  20
ENDBRANCH   4  14
TORSDOF 3
ENDMDL
MODEL 5
REMARK VINA RESULT:      -6.4      2.995      5.459
REMARK  Name = 
REMARK  8 active torsions:
REMARK  status: ('A' for Active; 'I' for Inactive)
REMARK    1  A    between atoms: C_1  and  C_2
REMARK    2  A    between atoms: C_4  and  C_5
REMARK    3  A    between atoms: C_7  and  C_8
REMARK    4  A    between atoms: C_8  and  C_9
REMARK    5  A    between atoms: C_8  and  C_10
REMARK    6  A    between atoms: C_12  and  C_13
REMARK    7  A    between atoms: N_14  and  C_15
REMARK    8  A    between atoms: N_18  and  C_19
REMARK                            x       y       z     vdW  Elec       q    Type
REMARK                         _______ _______ _______ _____ _____    ______ ____
ROOT
ATOM      1  C   UNL     1       6.266   3.900  13.744  0.00  0.00    +0.000 C 
ATOM      2  C   UNL     1       6.206   4.633  15.027  0.00  0.00    +0.000 A 
ATOM      3  N   UNL     1       7.130   5.568  15.412  0.00  0.00    +0.000 NA
ATOM      4  C   UNL     1       6.737   5.924  16.624  0.00  0.00    +0.000 A 
ATOM      5  N   UNL     1       5.567   5.252  16.910  0.00  0.00    +0.000 N 
ATOM      6  N   UNL     1       5.234   4.411  15.909  0.00  0.00    +0.000 NA
ENDROOT
BRANCH   5   7
ATOM      7  C   UNL     1       4.686   5.342  18.060  0.00  0.00    +0.000 C 
ATOM      8  C   UNL     1       4.100   3.977  18.428  0.00  0.00    +0.000 C 
ATOM      9  C   UNL     1       3.243   4.101  19.683  0.00  0.00    +0.000 C 
ATOM     10  N   UNL     1       2.188   5.108  19.511  0.00  0.00    +0.000 NA
ATOM     11  C   UNL     1       1.372   5.201  20.723  0.00  0.00    +0.000 C 
ATOM     12  C   UNL     1       2.720   6.428  19.150  0.00  0.00    +0.000 C 
ATOM     13  C   UNL     1       3.559   6.361  17.875  0.00  0.00    +0.000 C 
ENDBRANCH   5   7
BRANCH   4  14
ATOM     14  C   UNL     1       7.440   6.879  17.442  0.00  0.00    +0.000 A 
ATOM     15  S   UNL     1       7.574   8.549  17.038  0.00  0.00    +0.000 S 
ATOM     16  C   UNL     1       8.545   8.828  18.421  0.00  0.00    +0.000 A 
ATOM     17  N   UNL     1       8.689   7.789  19.212  0.00  0.00    +0.000 NA
ATOM     18  C   UNL     1       8.037   6.680  18.682  0.00  0.00    +0.000 A 
ATOM     19  C   UNL     1       8.069   5.427  19.485  0.00  0.00    +0.000 C 
BRANCH  16  20
ATOM     20  C   UNL     1       9.145  10.189  18.676  0.00  0.00    +0.000 C 
ATOM     21  C   UNL     1       8.383  11.264  17.901  0.00  0.00    +0.000 C 
ATOM     22  C   UNL     1       9.151  10.510  20.172  0.00  0.00    +0.000 C 
ENDBRANCH  16  20
ENDBRANCH   4  14
TORSDOF 3
ENDMDL
MODEL 6
REMARK VINA RESULT:      -6.3      2.024      6.614
REMARK  Name = 
REMARK  8 active torsions:
REMARK  status: ('A' for Active; 'I' for Inactive)
REMARK    1  A    between atoms: C_1  and  C_2
REMARK    2  A    between atoms: C_4  and  C_5
REMARK    3  A    between atoms: C_7  and  C_8
REMARK    4  A    between atoms: C_8  and  C_9
REMARK    5  A    between atoms: C_8  and  C_10
REMARK    6  A    between atoms: C_12  and  C_13
REMARK    7  A    between atoms: N_14  and  C_15
REMARK    8  A    between atoms: N_18  and  C_19
REMARK                            x       y       z     vdW  Elec       q    Type
REMARK                         _______ _______ _______ _____ _____    ______ ____
ROOT
ATOM      1  C   UNL     1       8.291   8.605  17.835  0.00  0.00    +0.000 C 
ATOM      2  C   UNL     1       7.370   7.494  17.512  0.00  0.00    +0.000 A 
ATOM      3  N   UNL     1       6.269   7.178  18.262  0.00  0.00    +0.000 NA
ATOM      4  C   UNL     1       5.773   6.106  17.664  0.00  0.00    +0.000 A 
ATOM      5  N   UNL     1       6.541   5.843  16.550  0.00  0.00    +0.000 N 
ATOM      6  N   UNL     1       7.574   6.707  16.458  0.00  0.00    +0.000 NA
ENDROOT
BRANCH   5   7
ATOM      7  C   UNL     1       6.383   4.841  15.512  0.00  0.00    +0.000 C 
ATOM      8  C   UNL     1       7.303   5.115  14.320  0.00  0.00    +0.000 C 
ATOM      9  C   UNL     1       7.161   4.001  13.288  0.00  0.00    +0.000 C 
ATOM     10  N   UNL     1       5.766   3.844  12.861  0.00  0.00    +0.000 NA
ATOM     11  C   UNL     1       5.657   2.778  11.863  0.00  0.00    +0.000 C 
ATOM     12  C   UNL     1       4.856   3.587  13.986  0.00  0.00    +0.000 C 
ATOM     13  C   UNL     1       4.937   4.698  15.032  0.00  0.00    +0.000 C 
ENDBRANCH   5   7
BRANCH   4  14
ATOM     14  C   UNL     1       4.609   5.398  18.134  0.00  0.00    +0.000 A 
ATOM     15  S   UNL     1       4.675   3.806  18.789  0.00  0.00    +0.000 S 
ATOM     16  C   UNL     1       2.972   3.790  18.975  0.00  0.00    +0.000 A 
ATOM     17  N   UNL     1       2.374   4.921  18.678  0.00  0.00    +0.000 NA
ATOM     18  C   UNL     1       3.300   5.857  18.230  0.00  0.00    +0.000 A 
ATOM     19  C   UNL     1       2.784   7.212  17.892  0.00  0.00    +0.000 C 
BRANCH  16  20
ATOM     20  C   UNL     1       2.266   2.550  19.467  0.00  0.00    +0.000 C 
ATOM     21  C   UNL     1       1.981   2.655  20.965  0.00  0.00    +0.000 C 
ATOM     22  C   UNL     1       0.968   2.318  18.690  0.00  0.00    +0.000 C 
ENDBRANCH  16  20
ENDBRANCH   4  14
TORSDOF 3
ENDMDL
MODEL 7
REMARK VINA RESULT:      -6.3      3.497      6.902
REMARK  Name = 
REMARK  8 active torsions:
REMARK  status: ('A' for Active; 'I' for Inactive)
REMARK    1  A    between atoms: C_1  and  C_2
REMARK    2  A    between atoms: C_4  and  C_5
REMARK    3  A    between atoms: C_7  and  C_8
REMARK    4  A    between atoms: C_8  and  C_9
REMARK    5  A    between atoms: C_8  and  C_10
REMARK    6  A    between atoms: C_12  and  C_13
REMARK    7  A    between atoms: N_14  and  C_15
REMARK    8  A    between atoms: N_18  and  C_19
REMARK                            x       y       z     vdW  Elec       q    Type
REMARK                         _______ _______ _______ _____ _____    ______ ____
ROOT
ATOM      1  C   UNL     1      -3.112  11.956  18.662  0.00  0.00    +0.000 C 
ATOM      2  C   UNL     1      -1.693  11.586  18.847  0.00  0.00    +0.000 A 
ATOM      3  N   UNL     1      -1.240  10.294  18.858  0.00  0.00    +0.000 NA
ATOM      4  C   UNL     1       0.054  10.412  19.105  0.00  0.00    +0.000 A 
ATOM      5  N   UNL     1       0.356  11.755  19.174  0.00  0.00    +0.000 N 
ATOM      6  N   UNL     1      -0.754  12.510  19.034  0.00  0.00    +0.000 NA
ENDROOT
BRANCH   5   7
ATOM      7  C   UNL     1       1.633  12.427  19.340  0.00  0.00    +0.000 C 
ATOM      8  C   UNL     1       1.704  13.180  20.670  0.00  0.00    +0.000 C 
ATOM      9  C   UNL     1       3.084  13.807  20.839  0.00  0.00    +0.000 C 
ATOM     10  N   UNL     1       3.413  14.684  19.709  0.00  0.00    +0.000 NA
ATOM     11  C   UNL     1       4.736  15.283  19.899  0.00  0.00    +0.000 C 
ATOM     12  C   UNL     1       3.346  13.990  18.416  0.00  0.00    +0.000 C 
ATOM     13  C   UNL     1       1.967  13.374  18.186  0.00  0.00    +0.000 C 
ENDBRANCH   5   7
BRANCH   4  14
ATOM     14  C   UNL     1       0.947   9.288  19.239  0.00  0.00    +0.000 A 
ATOM     15  S   UNL     1       1.893   8.676  17.936  0.00  0.00    +0.000 S 
ATOM     16  C   UNL     1       2.506   7.429  18.938  0.00  0.00    +0.000 A 
ATOM     17  N   UNL     1       2.132   7.500  20.196  0.00  0.00    +0.000 NA
ATOM     18  C   UNL     1       1.270   8.575  20.388  0.00  0.00    +0.000 A 
ATOM     19  C   UNL     1       0.789   8.819  21.775  0.00  0.00    +0.000 C 
BRANCH  16  20
ATOM     20  C   UNL     1       3.418   6.369  18.373  0.00  0.00    +0.000 C 
ATOM     21  C   UNL     1       2.613   5.143  17.943  0.00  0.00    +0.000 C 
ATOM     22  C   UNL     1       4.228   6.917  17.197  0.00  0.00    +0.000 C 
ENDBRANCH  16  20
ENDBRANCH   4  14
TORSDOF 3
ENDMDL
MODEL 8
REMARK VINA RESULT:      -6.2      1.417      4.203
REMARK  Name = 
REMARK  8 active torsions:
REMARK  status: ('A' for Active; 'I' for Inactive)
REMARK    1  A    between atoms: C_1  and  C_2
REMARK    2  A    between atoms: C_4  and  C_5
REMARK    3  A    between atoms: C_7  and  C_8
REMARK    4  A    between atoms: C_8  and  C_9
REMARK    5  A    between atoms: C_8  and  C_10
REMARK    6  A    between atoms: C_12  and  C_13
REMARK    7  A    between atoms: N_14  and  C_15
REMARK    8  A    between atoms: N_18  and  C_19
REMARK                            x       y       z     vdW  Elec       q    Type
REMARK                         _______ _______ _______ _____ _____    ______ ____
ROOT
ATOM      1  C   UNL     1       1.750   9.919  17.938  0.00  0.00    +0.000 C 
ATOM      2  C   UNL     1       2.459   8.624  18.010  0.00  0.00    +0.000 A 
ATOM      3  N   UNL     1       3.526   8.297  17.217  0.00  0.00    +0.000 NA
ATOM      4  C   UNL     1       3.811   7.053  17.562  0.00  0.00    +0.000 A 
ATOM      5  N   UNL     1       2.960   6.686  18.584  0.00  0.00    +0.000 N 
ATOM      6  N   UNL     1       2.081   7.672  18.859  0.00  0.00    +0.000 NA
ENDROOT
BRANCH   5   7
ATOM      7  C   UNL     1       2.904   5.468  19.372  0.00  0.00    +0.000 C 
ATOM      8  C   UNL     1       2.263   4.320  18.588  0.00  0.00    +0.000 C 
ATOM      9  C   UNL     1       2.291   3.043  19.421  0.00  0.00    +0.000 C 
ATOM     10  N   UNL     1       1.633   3.238  20.718  0.00  0.00    +0.000 NA
ATOM     11  C   UNL     1       1.662   1.998  21.495  0.00  0.00    +0.000 C 
ATOM     12  C   UNL     1       2.221   4.340  21.491  0.00  0.00    +0.000 C 
ATOM     13  C   UNL     1       2.183   5.652  20.709  0.00  0.00    +0.000 C 
ENDBRANCH   5   7
BRANCH   4  14
ATOM     14  C   UNL     1       4.862   6.277  16.954  0.00  0.00    +0.000 A 
ATOM     15  S   UNL     1       5.032   6.090  15.250  0.00  0.00    +0.000 S 
ATOM     16  C   UNL     1       6.376   5.053  15.476  0.00  0.00    +0.000 A 
ATOM     17  N   UNL     1       6.766   4.919  16.723  0.00  0.00    +0.000 NA
ATOM     18  C   UNL     1       5.932   5.639  17.573  0.00  0.00    +0.000 A 
ATOM     19  C   UNL     1       6.268   5.625  19.023  0.00  0.00    +0.000 C 
BRANCH  16  20
ATOM     20  C   UNL     1       7.038   4.387  14.294  0.00  0.00    +0.000 C 
ATOM     21  C   UNL     1       5.996   3.696  13.416  0.00  0.00    +0.000 C 
ATOM     22  C   UNL     1       7.840   5.401  13.476  0.00  0.00    +0.000 C 
ENDBRANCH  16  20
ENDBRANCH   4  14
TORSDOF 3
ENDMDL
MODEL 9
REMARK VINA RESULT:      -6.0      2.298      6.020
REMARK  Name = 
REMARK  8 active torsions:
REMARK  status: ('A' for Active; 'I' for Inactive)
REMARK    1  A    between atoms: C_1  and  C_2
REMARK    2  A    between atoms: C_4  and  C_5
REMARK    3  A    between atoms: C_7  and  C_8
REMARK    4  A    between atoms: C_8  and  C_9
REMARK    5  A    between atoms: C_8  and  C_10
REMARK    6  A    between atoms: C_12  and  C_13
REMARK    7  A    between atoms: N_14  and  C_15
REMARK    8  A    between atoms: N_18  and  C_19
REMARK                            x       y       z     vdW  Elec       q    Type
REMARK                         _______ _______ _______ _____ _____    ______ ____
ROOT
ATOM      1  C   UNL     1       6.184   3.788  13.447  0.00  0.00    +0.000 C 
ATOM      2  C   UNL     1       5.854   4.400  14.751  0.00  0.00    +0.000 A 
ATOM      3  N   UNL     1       4.752   4.063  15.492  0.00  0.00    +0.000 NA
ATOM      4  C   UNL     1       4.809   4.874  16.535  0.00  0.00    +0.000 A 
ATOM      5  N   UNL     1       5.960   5.626  16.432  0.00  0.00    +0.000 N 
ATOM      6  N   UNL     1       6.620   5.348  15.288  0.00  0.00    +0.000 NA
ENDROOT
BRANCH   5   7
ATOM      7  C   UNL     1       6.536   6.598  17.344  0.00  0.00    +0.000 C 
ATOM      8  C   UNL     1       6.840   7.921  16.638  0.00  0.00    +0.000 C 
ATOM      9  C   UNL     1       7.372   8.936  17.644  0.00  0.00    +0.000 C 
ATOM     10  N   UNL     1       8.553   8.422  18.347  0.00  0.00    +0.000 NA
ATOM     11  C   UNL     1       9.052   9.417  19.298  0.00  0.00    +0.000 C 
ATOM     12  C   UNL     1       8.294   7.147  19.029  0.00  0.00    +0.000 C 
ATOM     13  C   UNL     1       7.791   6.084  18.052  0.00  0.00    +0.000 C 
ENDBRANCH   5   7
BRANCH   4  14
ATOM     14  C   UNL     1       3.818   4.898  17.581  0.00  0.00    +0.000 A 
ATOM     15  S   UNL     1       3.433   3.523  18.546  0.00  0.00    +0.000 S 
ATOM     16  C   UNL     1       2.225   4.414  19.371  0.00  0.00    +0.000 A 
ATOM     17  N   UNL     1       2.160   5.685  19.048  0.00  0.00    +0.000 NA
ATOM     18  C   UNL     1       3.086   5.982  18.053  0.00  0.00    +0.000 A 
ATOM     19  C   UNL     1       3.169   7.399  17.604  0.00  0.00    +0.000 C 
BRANCH  16  20
ATOM     20  C   UNL     1       1.345   3.745  20.398  0.00  0.00    +0.000 C 
ATOM     21  C   UNL     1       0.723   2.473  19.823  0.00  0.00    +0.000 C 
ATOM     22  C   UNL     1       2.135   3.426  21.669  0.00  0.00    +0.000 C 
ENDBRANCH  16  20
ENDBRANCH   4  14
TORSDOF 3
ENDMDL
