MODEL 1
REMARK VINA RESULT:      -7.8      0.000      0.000
REMARK  Name = 
REMARK  3 active torsions:
REMARK  status: ('A' for Active; 'I' for Inactive)
REMARK    1  A    between atoms: O_1  and  C_2
REMARK    2  A    between atoms: C_5  and  C_6
REMARK    3  A    between atoms: C_17  and  O_18
REMARK                            x       y       z     vdW  Elec       q    Type
REMARK                         _______ _______ _______ _____ _____    ______ ____
ROOT
ATOM      1  C   UNL     1       4.153   3.330  18.595  0.00  0.00    +0.000 C 
ATOM      2  C   UNL     1       3.281   2.213  17.948  0.00  0.00    +0.000 C 
ATOM      3  N   UNL     1       2.250   1.585  18.785  0.00  0.00    +0.000 NA
ATOM      4  C   UNL     1       1.925   2.316  20.008  0.00  0.00    +0.000 C 
ATOM      5  C   UNL     1       2.086   3.814  19.910  0.00  0.00    +0.000 A 
ATOM      6  C   UNL     1       1.178   4.680  20.531  0.00  0.00    +0.000 A 
ATOM      7  C   UNL     1       1.410   6.055  20.536  0.00  0.00    +0.000 A 
ATOM      8  C   UNL     1       2.567   6.568  19.952  0.00  0.00    +0.000 A 
ATOM      9  C   UNL     1       3.481   5.714  19.336  0.00  0.00    +0.000 A 
ATOM     10  C   UNL     1       3.234   4.335  19.277  0.00  0.00    +0.000 A 
ATOM     11  H   UNL     1       2.521   0.634  19.024  0.00  0.00    +0.000 HD
ENDROOT
BRANCH   1  15
ATOM     12  C   UNL     1       6.909   4.933  15.659  0.00  0.00    +0.000 A 
ATOM     13  C   UNL     1       7.220   4.999  17.015  0.00  0.00    +0.000 A 
ATOM     14  C   UNL     1       6.322   4.489  17.959  0.00  0.00    +0.000 A 
ATOM     15  C   UNL     1       5.109   3.908  17.556  0.00  0.00    +0.000 A 
ATOM     16  C   UNL     1       4.805   3.864  16.182  0.00  0.00    +0.000 A 
ATOM     17  C   UNL     1       5.703   4.372  15.244  0.00  0.00    +0.000 A 
BRANCH  12  18
ATOM     18  O   UNL     1       7.780   5.416  14.723  0.00  0.00    +0.000 OA
ATOM     19  H   UNL     1       7.510   5.099  13.848  0.00  0.00    +0.000 HD
ENDBRANCH  12  18
BRANCH  17  20
ATOM     20  O   UNL     1       5.407   4.319  13.911  0.00  0.00    +0.000 OA
ATOM     21  H   UNL     1       4.638   3.744  13.780  0.00  0.00    +0.000 HD
ENDBRANCH  17  20
ENDBRANCH   1  15
TORSDOF 3
ENDMDL
MODEL 2
REMARK VINA RESULT:      -7.6      1.921      2.485
REMARK  Name = 
REMARK  3 active torsions:
REMARK  status: ('A' for Active; 'I' for Inactive)
REMARK    1  A    between atoms: O_1  and  C_2
REMARK    2  A    between atoms: C_5  and  C_6
REMARK    3  A    between atoms: C_17  and  O_18
REMARK                            x       y       z     vdW  Elec       q    Type
REMARK                         _______ _______ _______ _____ _____    ______ ____
ROOT
ATOM      1  C   UNL     1       4.471   3.667  18.711  0.00  0.00    +0.000 C 
ATOM      2  C   UNL     1       4.100   2.747  17.510  0.00  0.00    +0.000 C 
ATOM      3  N   UNL     1       3.165   1.642  17.764  0.00  0.00    +0.000 NA
ATOM      4  C   UNL     1       2.422   1.745  19.019  0.00  0.00    +0.000 C 
ATOM      5  C   UNL     1       2.150   3.157  19.478  0.00  0.00    +0.000 A 
ATOM      6  C   UNL     1       0.930   3.500  20.073  0.00  0.00    +0.000 A 
ATOM      7  C   UNL     1       0.742   4.776  20.603  0.00  0.00    +0.000 A 
ATOM      8  C   UNL     1       1.783   5.703  20.573  0.00  0.00    +0.000 A 
ATOM      9  C   UNL     1       3.004   5.369  19.989  0.00  0.00    +0.000 A 
ATOM     10  C   UNL     1       3.189   4.109  19.404  0.00  0.00    +0.000 A 
ATOM     11  H   UNL     1       3.656   0.751  17.736  0.00  0.00    +0.000 HD
ENDROOT
BRANCH   1  15
ATOM     12  C   UNL     1       7.027   6.900  17.370  0.00  0.00    +0.000 A 
ATOM     13  C   UNL     1       5.914   6.535  16.618  0.00  0.00    +0.000 A 
ATOM     14  C   UNL     1       5.098   5.484  17.050  0.00  0.00    +0.000 A 
ATOM     15  C   UNL     1       5.387   4.792  18.238  0.00  0.00    +0.000 A 
ATOM     16  C   UNL     1       6.525   5.165  18.976  0.00  0.00    +0.000 A 
ATOM     17  C   UNL     1       7.335   6.214  18.543  0.00  0.00    +0.000 A 
BRANCH  12  18
ATOM     18  O   UNL     1       7.829   7.931  16.967  0.00  0.00    +0.000 OA
ATOM     19  H   UNL     1       8.615   7.569  16.533  0.00  0.00    +0.000 HD
ENDBRANCH  12  18
BRANCH  17  20
ATOM     20  O   UNL     1       8.435   6.578  19.269  0.00  0.00    +0.000 OA
ATOM     21  H   UNL     1       9.174   6.739  18.664  0.00  0.00    +0.000 HD
ENDBRANCH  17  20
ENDBRANCH   1  15
TORSDOF 3
ENDMDL
MODEL 3
REMARK VINA RESULT:      -7.5      0.679      1.578
REMARK  Name = 
REMARK  3 active torsions:
REMARK  status: ('A' for Active; 'I' for Inactive)
REMARK    1  A    between atoms: O_1  and  C_2
REMARK    2  A    between atoms: C_5  and  C_6
REMARK    3  A    between atoms: C_17  and  O_18
REMARK                            x       y       z     vdW  Elec       q    Type
REMARK                         _______ _______ _______ _____ _____    ______ ____
ROOT
ATOM      1  C   UNL     1       4.092   3.305  18.511  0.00  0.00    +0.000 C 
ATOM      2  C   UNL     1       3.208   2.223  17.822  0.00  0.00    +0.000 C 
ATOM      3  N   UNL     1       2.172   1.573  18.635  0.00  0.00    +0.000 NA
ATOM      4  C   UNL     1       1.856   2.259  19.887  0.00  0.00    +0.000 C 
ATOM      5  C   UNL     1       2.032   3.758  19.847  0.00  0.00    +0.000 A 
ATOM      6  C   UNL     1       1.133   4.608  20.503  0.00  0.00    +0.000 A 
ATOM      7  C   UNL     1       1.379   5.979  20.561  0.00  0.00    +0.000 A 
ATOM      8  C   UNL     1       2.540   6.503  19.995  0.00  0.00    +0.000 A 
ATOM      9  C   UNL     1       3.445   5.665  19.345  0.00  0.00    +0.000 A 
ATOM     10  C   UNL     1       3.184   4.292  19.233  0.00  0.00    +0.000 A 
ATOM     11  H   UNL     1       2.433   0.611  18.837  0.00  0.00    +0.000 HD
ENDROOT
BRANCH   1  15
ATOM     12  C   UNL     1       6.773   5.060  15.593  0.00  0.00    +0.000 A 
ATOM     13  C   UNL     1       5.781   4.173  15.182  0.00  0.00    +0.000 A 
ATOM     14  C   UNL     1       4.925   3.601  16.129  0.00  0.00    +0.000 A 
ATOM     15  C   UNL     1       5.052   3.914  17.493  0.00  0.00    +0.000 A 
ATOM     16  C   UNL     1       6.070   4.800  17.890  0.00  0.00    +0.000 A 
ATOM     17  C   UNL     1       6.920   5.369  16.943  0.00  0.00    +0.000 A 
BRANCH  12  18
ATOM     18  O   UNL     1       7.611   5.636  14.679  0.00  0.00    +0.000 OA
ATOM     19  H   UNL     1       8.461   5.171  14.693  0.00  0.00    +0.000 HD
ENDBRANCH  12  18
BRANCH  17  20
ATOM     20  O   UNL     1       7.902   6.236  17.334  0.00  0.00    +0.000 OA
ATOM     21  H   UNL     1       8.615   5.736  17.759  0.00  0.00    +0.000 HD
ENDBRANCH  17  20
ENDBRANCH   1  15
TORSDOF 3
ENDMDL
MODEL 4
REMARK VINA RESULT:      -7.3      1.413      1.563
REMARK  Name = 
REMARK  3 active torsions:
REMARK  status: ('A' for Active; 'I' for Inactive)
REMARK    1  A    between atoms: O_1  and  C_2
REMARK    2  A    between atoms: C_5  and  C_6
REMARK    3  A    between atoms: C_17  and  O_18
REMARK                            x       y       z     vdW  Elec       q    Type
REMARK                         _______ _______ _______ _____ _____    ______ ____
ROOT
ATOM      1  C   UNL     1       4.388   3.549  18.836  0.00  0.00    +0.000 C 
ATOM      2  C   UNL     1       3.995   2.542  17.715  0.00  0.00    +0.000 C 
ATOM      3  N   UNL     1       3.050   1.472  18.063  0.00  0.00    +0.000 NA
ATOM      4  C   UNL     1       2.321   1.682  19.313  0.00  0.00    +0.000 C 
ATOM      5  C   UNL     1       2.070   3.129  19.662  0.00  0.00    +0.000 A 
ATOM      6  C   UNL     1       0.859   3.532  20.238  0.00  0.00    +0.000 A 
ATOM      7  C   UNL     1       0.691   4.848  20.668  0.00  0.00    +0.000 A 
ATOM      8  C   UNL     1       1.741   5.757  20.555  0.00  0.00    +0.000 A 
ATOM      9  C   UNL     1       2.953   5.364  19.988  0.00  0.00    +0.000 A 
ATOM     10  C   UNL     1       3.118   4.059  19.503  0.00  0.00    +0.000 A 
ATOM     11  H   UNL     1       3.531   0.576  18.102  0.00  0.00    +0.000 HD
ENDROOT
BRANCH   1  15
ATOM     12  C   UNL     1       7.055   6.558  17.217  0.00  0.00    +0.000 A 
ATOM     13  C   UNL     1       7.327   5.980  18.454  0.00  0.00    +0.000 A 
ATOM     14  C   UNL     1       6.457   5.017  18.977  0.00  0.00    +0.000 A 
ATOM     15  C   UNL     1       5.311   4.622  18.266  0.00  0.00    +0.000 A 
ATOM     16  C   UNL     1       5.046   5.229  17.025  0.00  0.00    +0.000 A 
ATOM     17  C   UNL     1       5.916   6.187  16.506  0.00  0.00    +0.000 A 
BRANCH  12  18
ATOM     18  O   UNL     1       7.900   7.492  16.687  0.00  0.00    +0.000 OA
ATOM     19  H   UNL     1       7.439   7.972  15.982  0.00  0.00    +0.000 HD
ENDBRANCH  12  18
BRANCH  17  20
ATOM     20  O   UNL     1       5.656   6.767  15.296  0.00  0.00    +0.000 OA
ATOM     21  H   UNL     1       4.722   6.638  15.077  0.00  0.00    +0.000 HD
ENDBRANCH  17  20
ENDBRANCH   1  15
TORSDOF 3
ENDMDL
MODEL 5
REMARK VINA RESULT:      -7.3      1.834      3.066
REMARK  Name = 
REMARK  3 active torsions:
REMARK  status: ('A' for Active; 'I' for Inactive)
REMARK    1  A    between atoms: O_1  and  C_2
REMARK    2  A    between atoms: C_5  and  C_6
REMARK    3  A    between atoms: C_17  and  O_18
REMARK                            x       y       z     vdW  Elec       q    Type
REMARK                         _______ _______ _______ _____ _____    ______ ____
ROOT
ATOM      1  C   UNL     1       3.292   5.464  18.308  0.00  0.00    +0.000 C 
ATOM      2  C   UNL     1       3.274   6.854  19.009  0.00  0.00    +0.000 C 
ATOM      3  N   UNL     1       2.208   7.108  19.989  0.00  0.00    +0.000 NA
ATOM      4  C   UNL     1       1.504   5.912  20.450  0.00  0.00    +0.000 C 
ATOM      5  C   UNL     1       2.339   4.655  20.469  0.00  0.00    +0.000 A 
ATOM      6  C   UNL     1       2.208   3.718  21.501  0.00  0.00    +0.000 A 
ATOM      7  C   UNL     1       2.895   2.506  21.439  0.00  0.00    +0.000 A 
ATOM      8  C   UNL     1       3.688   2.210  20.331  0.00  0.00    +0.000 A 
ATOM      9  C   UNL     1       3.820   3.134  19.295  0.00  0.00    +0.000 A 
ATOM     10  C   UNL     1       3.178   4.378  19.369  0.00  0.00    +0.000 A 
ATOM     11  H   UNL     1       1.534   7.771  19.613  0.00  0.00    +0.000 HD
ENDROOT
BRANCH   1  15
ATOM     12  C   UNL     1       6.706   5.193  15.651  0.00  0.00    +0.000 A 
ATOM     13  C   UNL     1       5.628   4.325  15.491  0.00  0.00    +0.000 A 
ATOM     14  C   UNL     1       4.534   4.410  16.358  0.00  0.00    +0.000 A 
ATOM     15  C   UNL     1       4.506   5.364  17.389  0.00  0.00    +0.000 A 
ATOM     16  C   UNL     1       5.610   6.222  17.543  0.00  0.00    +0.000 A 
ATOM     17  C   UNL     1       6.699   6.136  16.676  0.00  0.00    +0.000 A 
BRANCH  12  18
ATOM     18  O   UNL     1       7.778   5.131  14.806  0.00  0.00    +0.000 OA
ATOM     19  H   UNL     1       7.665   4.377  14.207  0.00  0.00    +0.000 HD
ENDBRANCH  12  18
BRANCH  17  20
ATOM     20  O   UNL     1       7.765   6.978  16.827  0.00  0.00    +0.000 OA
ATOM     21  H   UNL     1       8.381   6.596  17.469  0.00  0.00    +0.000 HD
ENDBRANCH  17  20
ENDBRANCH   1  15
TORSDOF 3
ENDMDL
MODEL 6
REMARK VINA RESULT:      -7.3      1.721      3.036
REMARK  Name = 
REMARK  3 active torsions:
REMARK  status: ('A' for Active; 'I' for Inactive)
REMARK    1  A    between atoms: O_1  and  C_2
REMARK    2  A    between atoms: C_5  and  C_6
REMARK    3  A    between atoms: C_17  and  O_18
REMARK                            x       y       z     vdW  Elec       q    Type
REMARK                         _______ _______ _______ _____ _____    ______ ____
ROOT
ATOM      1  C   UNL     1       3.318   5.511  18.142  0.00  0.00    +0.000 C 
ATOM      2  C   UNL     1       3.722   6.161  19.499  0.00  0.00    +0.000 C 
ATOM      3  N   UNL     1       2.680   6.288  20.528  0.00  0.00    +0.000 NA
ATOM      4  C   UNL     1       1.486   5.478  20.294  0.00  0.00    +0.000 C 
ATOM      5  C   UNL     1       1.734   4.190  19.548  0.00  0.00    +0.000 A 
ATOM      6  C   UNL     1       1.049   3.016  19.888  0.00  0.00    +0.000 A 
ATOM      7  C   UNL     1       1.197   1.868  19.110  0.00  0.00    +0.000 A 
ATOM      8  C   UNL     1       2.001   1.896  17.972  0.00  0.00    +0.000 A 
ATOM      9  C   UNL     1       2.682   3.061  17.621  0.00  0.00    +0.000 A 
ATOM     10  C   UNL     1       2.585   4.207  18.423  0.00  0.00    +0.000 A 
ATOM     11  H   UNL     1       2.409   7.263  20.636  0.00  0.00    +0.000 HD
ENDROOT
BRANCH   1  15
ATOM     12  C   UNL     1       6.799   5.252  15.573  0.00  0.00    +0.000 A 
ATOM     13  C   UNL     1       5.632   5.850  15.106  0.00  0.00    +0.000 A 
ATOM     14  C   UNL     1       4.508   5.922  15.935  0.00  0.00    +0.000 A 
ATOM     15  C   UNL     1       4.543   5.399  17.239  0.00  0.00    +0.000 A 
ATOM     16  C   UNL     1       5.727   4.785  17.687  0.00  0.00    +0.000 A 
ATOM     17  C   UNL     1       6.845   4.717  16.858  0.00  0.00    +0.000 A 
BRANCH  12  18
ATOM     18  O   UNL     1       7.910   5.183  14.779  0.00  0.00    +0.000 OA
ATOM     19  H   UNL     1       8.354   4.335  14.930  0.00  0.00    +0.000 HD
ENDBRANCH  12  18
BRANCH  17  20
ATOM     20  O   UNL     1       7.995   4.126  17.303  0.00  0.00    +0.000 OA
ATOM     21  H   UNL     1       8.419   4.707  17.951  0.00  0.00    +0.000 HD
ENDBRANCH  17  20
ENDBRANCH   1  15
TORSDOF 3
ENDMDL
MODEL 7
REMARK VINA RESULT:      -7.2      3.600      5.542
REMARK  Name = 
REMARK  3 active torsions:
REMARK  status: ('A' for Active; 'I' for Inactive)
REMARK    1  A    between atoms: O_1  and  C_2
REMARK    2  A    between atoms: C_5  and  C_6
REMARK    3  A    between atoms: C_17  and  O_18
REMARK                            x       y       z     vdW  Elec       q    Type
REMARK                         _______ _______ _______ _____ _____    ______ ____
ROOT
ATOM      1  C   UNL     1       3.367   5.866  18.768  0.00  0.00    +0.000 C 
ATOM      2  C   UNL     1       4.039   6.019  17.371  0.00  0.00    +0.000 C 
ATOM      3  N   UNL     1       4.824   4.883  16.867  0.00  0.00    +0.000 NA
ATOM      4  C   UNL     1       4.594   3.621  17.567  0.00  0.00    +0.000 C 
ATOM      5  C   UNL     1       3.204   3.457  18.133  0.00  0.00    +0.000 A 
ATOM      6  C   UNL     1       2.552   2.218  18.097  0.00  0.00    +0.000 A 
ATOM      7  C   UNL     1       1.323   2.054  18.734  0.00  0.00    +0.000 A 
ATOM      8  C   UNL     1       0.755   3.115  19.438  0.00  0.00    +0.000 A 
ATOM      9  C   UNL     1       1.399   4.351  19.485  0.00  0.00    +0.000 A 
ATOM     10  C   UNL     1       2.610   4.545  18.805  0.00  0.00    +0.000 A 
ATOM     11  H   UNL     1       5.817   5.104  16.889  0.00  0.00    +0.000 HD
ENDROOT
BRANCH   1  15
ATOM     12  C   UNL     1       1.061   9.414  19.703  0.00  0.00    +0.000 A 
ATOM     13  C   UNL     1       1.271   8.443  20.680  0.00  0.00    +0.000 A 
ATOM     14  C   UNL     1       2.008   7.295  20.369  0.00  0.00    +0.000 A 
ATOM     15  C   UNL     1       2.541   7.110  19.083  0.00  0.00    +0.000 A 
ATOM     16  C   UNL     1       2.304   8.095  18.106  0.00  0.00    +0.000 A 
ATOM     17  C   UNL     1       1.571   9.239  18.420  0.00  0.00    +0.000 A 
BRANCH  12  18
ATOM     18  O   UNL     1       0.353  10.547  19.993  0.00  0.00    +0.000 OA
ATOM     19  H   UNL     1      -0.186  10.389  20.783  0.00  0.00    +0.000 HD
ENDBRANCH  12  18
BRANCH  17  20
ATOM     20  O   UNL     1       1.352  10.196  17.469  0.00  0.00    +0.000 OA
ATOM     21  H   UNL     1       0.856  10.927  17.865  0.00  0.00    +0.000 HD
ENDBRANCH  17  20
ENDBRANCH   1  15
TORSDOF 3
ENDMDL
MODEL 8
REMARK VINA RESULT:      -7.0      3.674      5.302
REMARK  Name = 
REMARK  3 active torsions:
REMARK  status: ('A' for Active; 'I' for Inactive)
REMARK    1  A    between atoms: O_1  and  C_2
REMARK    2  A    between atoms: C_5  and  C_6
REMARK    3  A    between atoms: C_17  and  O_18
REMARK                            x       y       z     vdW  Elec       q    Type
REMARK                         _______ _______ _______ _____ _____    ______ ____
ROOT
ATOM      1  C   UNL     1       3.489   5.443  19.632  0.00  0.00    +0.000 C 
ATOM      2  C   UNL     1       4.876   5.329  18.932  0.00  0.00    +0.000 C 
ATOM      3  N   UNL     1       5.633   4.084  19.123  0.00  0.00    +0.000 NA
ATOM      4  C   UNL     1       4.852   2.967  19.652  0.00  0.00    +0.000 C 
ATOM      5  C   UNL     1       3.394   2.976  19.262  0.00  0.00    +0.000 A 
ATOM      6  C   UNL     1       2.723   1.787  18.952  0.00  0.00    +0.000 A 
ATOM      7  C   UNL     1       1.349   1.798  18.715  0.00  0.00    +0.000 A 
ATOM      8  C   UNL     1       0.633   2.989  18.821  0.00  0.00    +0.000 A 
ATOM      9  C   UNL     1       1.291   4.178  19.135  0.00  0.00    +0.000 A 
ATOM     10  C   UNL     1       2.680   4.191  19.323  0.00  0.00    +0.000 A 
ATOM     11  H   UNL     1       6.436   4.248  19.727  0.00  0.00    +0.000 HD
ENDROOT
BRANCH   1  15
ATOM     12  C   UNL     1       1.582   9.174  18.525  0.00  0.00    +0.000 A 
ATOM     13  C   UNL     1       2.388   8.505  17.607  0.00  0.00    +0.000 A 
ATOM     14  C   UNL     1       3.010   7.306  17.973  0.00  0.00    +0.000 A 
ATOM     15  C   UNL     1       2.829   6.766  19.257  0.00  0.00    +0.000 A 
ATOM     16  C   UNL     1       2.023   7.465  20.175  0.00  0.00    +0.000 A 
ATOM     17  C   UNL     1       1.403   8.658  19.806  0.00  0.00    +0.000 A 
BRANCH  12  18
ATOM     18  O   UNL     1       0.958  10.340  18.179  0.00  0.00    +0.000 OA
ATOM     19  H   UNL     1       1.538  10.845  17.589  0.00  0.00    +0.000 HD
ENDBRANCH  12  18
BRANCH  17  20
ATOM     20  O   UNL     1       0.615   9.328  20.700  0.00  0.00    +0.000 OA
ATOM     21  H   UNL     1       1.178   9.736  21.374  0.00  0.00    +0.000 HD
ENDBRANCH  17  20
ENDBRANCH   1  15
TORSDOF 3
ENDMDL
MODEL 9
REMARK VINA RESULT:      -7.0      3.921      5.806
REMARK  Name = 
REMARK  3 active torsions:
REMARK  status: ('A' for Active; 'I' for Inactive)
REMARK    1  A    between atoms: O_1  and  C_2
REMARK    2  A    between atoms: C_5  and  C_6
REMARK    3  A    between atoms: C_17  and  O_18
REMARK                            x       y       z     vdW  Elec       q    Type
REMARK                         _______ _______ _______ _____ _____    ______ ____
ROOT
ATOM      1  C   UNL     1       3.433   5.984  18.577  0.00  0.00    +0.000 C 
ATOM      2  C   UNL     1       4.090   6.146  17.174  0.00  0.00    +0.000 C 
ATOM      3  N   UNL     1       4.894   5.026  16.666  0.00  0.00    +0.000 NA
ATOM      4  C   UNL     1       4.697   3.762  17.373  0.00  0.00    +0.000 C 
ATOM      5  C   UNL     1       3.316   3.570  17.951  0.00  0.00    +0.000 A 
ATOM      6  C   UNL     1       2.690   2.318  17.925  0.00  0.00    +0.000 A 
ATOM      7  C   UNL     1       1.469   2.130  18.573  0.00  0.00    +0.000 A 
ATOM      8  C   UNL     1       0.886   3.181  19.279  0.00  0.00    +0.000 A 
ATOM      9  C   UNL     1       1.504   4.431  19.316  0.00  0.00    +0.000 A 
ATOM     10  C   UNL     1       2.705   4.648  18.625  0.00  0.00    +0.000 A 
ATOM     11  H   UNL     1       5.882   5.267  16.678  0.00  0.00    +0.000 HD
ENDROOT
BRANCH   1  15
ATOM     12  C   UNL     1       0.981   9.452  19.443  0.00  0.00    +0.000 A 
ATOM     13  C   UNL     1       1.474   9.251  18.156  0.00  0.00    +0.000 A 
ATOM     14  C   UNL     1       2.274   8.136  17.884  0.00  0.00    +0.000 A 
ATOM     15  C   UNL     1       2.584   7.212  18.895  0.00  0.00    +0.000 A 
ATOM     16  C   UNL     1       2.090   7.440  20.193  0.00  0.00    +0.000 A 
ATOM     17  C   UNL     1       1.291   8.551  20.459  0.00  0.00    +0.000 A 
BRANCH  12  18
ATOM     18  O   UNL     1       0.190  10.530  19.722  0.00  0.00    +0.000 OA
ATOM     19  H   UNL     1      -0.694  10.376  19.356  0.00  0.00    +0.000 HD
ENDBRANCH  12  18
BRANCH  17  20
ATOM     20  O   UNL     1       0.807   8.763  21.720  0.00  0.00    +0.000 OA
ATOM     21  H   UNL     1       0.312   7.980  22.004  0.00  0.00    +0.000 HD
ENDBRANCH  17  20
ENDBRANCH   1  15
TORSDOF 3
ENDMDL
