MODEL 1
REMARK VINA RESULT:      -7.2      0.000      0.000
REMARK  Name = 
REMARK  9 active torsions:
REMARK  status: ('A' for Active; 'I' for Inactive)
REMARK    1  A    between atoms: C_1  and  O_2
REMARK    2  A    between atoms: O_2  and  C_3
REMARK    3  A    between atoms: C_3  and  C_4
REMARK    4  A    between atoms: N_6  and  C_7
REMARK    5  A    between atoms: C_7  and  C_8
REMARK    6  A    between atoms: C_8  and  C_9
REMARK    7  A    between atoms: C_13  and  C_14
REMARK    8  A    between atoms: C_17  and  O_18
REMARK    9  A    between atoms: O_18  and  C_19
REMARK                            x       y       z     vdW  Elec       q    Type
REMARK                         _______ _______ _______ _____ _____    ______ ____
ROOT
ATOM      1  C   UNL     1       3.767   5.173  18.412  0.00  0.00    +0.000 A 
ATOM      2  N   UNL     1       3.161   5.327  19.639  0.00  0.00    +0.000 NA
ATOM      3  C   UNL     1       2.601   6.511  19.546  0.00  0.00    +0.000 A 
ATOM      4  C   UNL     1       1.840   7.318  20.413  0.00  0.00    +0.000 A 
ATOM      5  C   UNL     1       1.448   8.540  19.985  0.00  0.00    +0.000 A 
ATOM      6  N   UNL     1       1.724   9.037  18.712  0.00  0.00    +0.000 NA
ATOM      7  C   UNL     1       2.419   8.281  17.907  0.00  0.00    +0.000 A 
ATOM      8  N   UNL     1       2.858   7.037  18.315  0.00  0.00    +0.000 N 
ATOM      9  N   UNL     1       3.582   6.193  17.554  0.00  0.00    +0.000 NA
ENDROOT
BRANCH   5  10
ATOM     10  C   UNL     1       0.640   9.399  20.896  0.00  0.00    +0.000 A 
ATOM     11  C   UNL     1       0.387   9.039  22.227  0.00  0.00    +0.000 A 
ATOM     12  C   UNL     1      -0.418   9.837  23.048  0.00  0.00    +0.000 A 
ATOM     13  C   UNL     1      -0.956  11.030  22.572  0.00  0.00    +0.000 A 
ATOM     14  C   UNL     1      -0.684  11.424  21.264  0.00  0.00    +0.000 A 
ATOM     15  C   UNL     1       0.110  10.614  20.436  0.00  0.00    +0.000 A 
BRANCH  13  16
ATOM     16  O   UNL     1      -1.772  11.685  23.449  0.00  0.00    +0.000 OA
ATOM     17  C   UNL     1      -2.934  12.292  22.898  0.00  0.00    +0.000 C 
ENDBRANCH  13  16
ENDBRANCH   5  10
BRANCH   1  18
ATOM     18  C   UNL     1       4.529   3.941  18.074  0.00  0.00    +0.000 C 
BRANCH  18  19
ATOM     19  C   UNL     1       5.932   4.230  17.548  0.00  0.00    +0.000 C 
BRANCH  19  22
ATOM     20  C   UNL     1       7.271   6.298  17.324  0.00  0.00    +0.000 C 
ATOM     21  O   UNL     1       7.465   6.142  16.123  0.00  0.00    +0.000 OA
ATOM     22  N   UNL     1       6.492   5.455  18.088  0.00  0.00    +0.000 N 
ATOM     23  H   UNL     1       6.431   5.636  19.084  0.00  0.00    +0.000 HD
BRANCH  20  24
ATOM     24  C   UNL     1       7.889   7.450  18.120  0.00  0.00    +0.000 C 
BRANCH  24  26
ATOM     25  C   UNL     1       8.555   9.715  18.159  0.00  0.00    +0.000 C 
ATOM     26  O   UNL     1       7.938   8.679  17.399  0.00  0.00    +0.000 OA
ENDBRANCH  24  26
ENDBRANCH  20  24
ENDBRANCH  19  22
ENDBRANCH  18  19
ENDBRANCH   1  18
TORSDOF 7
ENDMDL
MODEL 2
REMARK VINA RESULT:      -7.1      1.516      2.053
REMARK  Name = 
REMARK  9 active torsions:
REMARK  status: ('A' for Active; 'I' for Inactive)
REMARK    1  A    between atoms: C_1  and  O_2
REMARK    2  A    between atoms: O_2  and  C_3
REMARK    3  A    between atoms: C_3  and  C_4
REMARK    4  A    between atoms: N_6  and  C_7
REMARK    5  A    between atoms: C_7  and  C_8
REMARK    6  A    between atoms: C_8  and  C_9
REMARK    7  A    between atoms: C_13  and  C_14
REMARK    8  A    between atoms: C_17  and  O_18
REMARK    9  A    between atoms: O_18  and  C_19
REMARK                            x       y       z     vdW  Elec       q    Type
REMARK                         _______ _______ _______ _____ _____    ______ ____
ROOT
ATOM      1  C   UNL     1       4.794   4.994  16.941  0.00  0.00    +0.000 A 
ATOM      2  N   UNL     1       4.321   6.281  16.820  0.00  0.00    +0.000 NA
ATOM      3  C   UNL     1       3.602   6.435  17.908  0.00  0.00    +0.000 A 
ATOM      4  C   UNL     1       2.819   7.478  18.440  0.00  0.00    +0.000 A 
ATOM      5  C   UNL     1       2.163   7.269  19.604  0.00  0.00    +0.000 A 
ATOM      6  N   UNL     1       2.246   6.084  20.335  0.00  0.00    +0.000 NA
ATOM      7  C   UNL     1       2.984   5.124  19.845  0.00  0.00    +0.000 A 
ATOM      8  N   UNL     1       3.649   5.290  18.647  0.00  0.00    +0.000 N 
ATOM      9  N   UNL     1       4.426   4.355  18.066  0.00  0.00    +0.000 NA
ENDROOT
BRANCH   5  10
ATOM     10  C   UNL     1       1.336   8.368  20.174  0.00  0.00    +0.000 A 
ATOM     11  C   UNL     1       0.876   8.342  21.499  0.00  0.00    +0.000 A 
ATOM     12  C   UNL     1       0.056   9.362  21.996  0.00  0.00    +0.000 A 
ATOM     13  C   UNL     1      -0.291  10.449  21.196  0.00  0.00    +0.000 A 
ATOM     14  C   UNL     1       0.188  10.511  19.891  0.00  0.00    +0.000 A 
ATOM     15  C   UNL     1       0.996   9.479  19.388  0.00  0.00    +0.000 A 
BRANCH  13  16
ATOM     16  O   UNL     1      -1.143  11.343  21.778  0.00  0.00    +0.000 OA
ATOM     17  C   UNL     1      -1.369  12.554  21.067  0.00  0.00    +0.000 C 
ENDBRANCH  13  16
ENDBRANCH   5  10
BRANCH   1  18
ATOM     18  C   UNL     1       5.678   4.394  15.905  0.00  0.00    +0.000 C 
BRANCH  18  19
ATOM     19  C   UNL     1       7.153   4.732  16.109  0.00  0.00    +0.000 C 
BRANCH  19  22
ATOM     20  C   UNL     1       7.645   6.678  17.554  0.00  0.00    +0.000 C 
ATOM     21  O   UNL     1       7.811   5.996  18.559  0.00  0.00    +0.000 OA
ATOM     22  N   UNL     1       7.381   6.151  16.308  0.00  0.00    +0.000 N 
ATOM     23  H   UNL     1       7.208   6.797  15.544  0.00  0.00    +0.000 HD
BRANCH  20  24
ATOM     24  C   UNL     1       7.701   8.207  17.573  0.00  0.00    +0.000 C 
BRANCH  24  26
ATOM     25  C   UNL     1       8.811  10.125  18.389  0.00  0.00    +0.000 C 
ATOM     26  O   UNL     1       8.562   8.734  18.580  0.00  0.00    +0.000 OA
ENDBRANCH  24  26
ENDBRANCH  20  24
ENDBRANCH  19  22
ENDBRANCH  18  19
ENDBRANCH   1  18
TORSDOF 7
ENDMDL
MODEL 3
REMARK VINA RESULT:      -7.1      1.586      2.470
REMARK  Name = 
REMARK  9 active torsions:
REMARK  status: ('A' for Active; 'I' for Inactive)
REMARK    1  A    between atoms: C_1  and  O_2
REMARK    2  A    between atoms: O_2  and  C_3
REMARK    3  A    between atoms: C_3  and  C_4
REMARK    4  A    between atoms: N_6  and  C_7
REMARK    5  A    between atoms: C_7  and  C_8
REMARK    6  A    between atoms: C_8  and  C_9
REMARK    7  A    between atoms: C_13  and  C_14
REMARK    8  A    between atoms: C_17  and  O_18
REMARK    9  A    between atoms: O_18  and  C_19
REMARK                            x       y       z     vdW  Elec       q    Type
REMARK                         _______ _______ _______ _____ _____    ______ ____
ROOT
ATOM      1  C   UNL     1       3.763   5.159  18.581  0.00  0.00    +0.000 A 
ATOM      2  N   UNL     1       3.136   5.325  19.795  0.00  0.00    +0.000 NA
ATOM      3  C   UNL     1       2.565   6.502  19.674  0.00  0.00    +0.000 A 
ATOM      4  C   UNL     1       1.781   7.314  20.515  0.00  0.00    +0.000 A 
ATOM      5  C   UNL     1       1.383   8.525  20.062  0.00  0.00    +0.000 A 
ATOM      6  N   UNL     1       1.675   9.005  18.785  0.00  0.00    +0.000 NA
ATOM      7  C   UNL     1       2.391   8.243  18.004  0.00  0.00    +0.000 A 
ATOM      8  N   UNL     1       2.837   7.011  18.439  0.00  0.00    +0.000 N 
ATOM      9  N   UNL     1       3.583   6.163  17.704  0.00  0.00    +0.000 NA
ENDROOT
BRANCH   5  10
ATOM     10  C   UNL     1       0.551   9.389  20.945  0.00  0.00    +0.000 A 
ATOM     11  C   UNL     1       0.389   9.119  22.311  0.00  0.00    +0.000 A 
ATOM     12  C   UNL     1      -0.439   9.916  23.109  0.00  0.00    +0.000 A 
ATOM     13  C   UNL     1      -1.093  11.022  22.572  0.00  0.00    +0.000 A 
ATOM     14  C   UNL     1      -0.914  11.329  21.226  0.00  0.00    +0.000 A 
ATOM     15  C   UNL     1      -0.096  10.519  20.422  0.00  0.00    +0.000 A 
BRANCH  13  16
ATOM     16  O   UNL     1      -1.919  11.680  23.438  0.00  0.00    +0.000 OA
ATOM     17  C   UNL     1      -2.582  12.829  22.928  0.00  0.00    +0.000 C 
ENDBRANCH  13  16
ENDBRANCH   5  10
BRANCH   1  18
ATOM     18  C   UNL     1       4.544   3.930  18.275  0.00  0.00    +0.000 C 
BRANCH  18  19
ATOM     19  C   UNL     1       5.980   4.223  17.848  0.00  0.00    +0.000 C 
BRANCH  19  22
ATOM     20  C   UNL     1       6.923   5.007  15.700  0.00  0.00    +0.000 C 
ATOM     21  O   UNL     1       7.559   5.921  16.216  0.00  0.00    +0.000 OA
ATOM     22  N   UNL     1       6.176   4.097  16.415  0.00  0.00    +0.000 N 
ATOM     23  H   UNL     1       5.643   3.406  15.897  0.00  0.00    +0.000 HD
BRANCH  20  24
ATOM     24  C   UNL     1       6.879   4.782  14.187  0.00  0.00    +0.000 C 
BRANCH  24  26
ATOM     25  C   UNL     1       6.045   3.337  12.516  0.00  0.00    +0.000 C 
ATOM     26  O   UNL     1       5.781   3.978  13.762  0.00  0.00    +0.000 OA
ENDBRANCH  24  26
ENDBRANCH  20  24
ENDBRANCH  19  22
ENDBRANCH  18  19
ENDBRANCH   1  18
TORSDOF 7
ENDMDL
MODEL 4
REMARK VINA RESULT:      -7.1      3.631      9.022
REMARK  Name = 
REMARK  9 active torsions:
REMARK  status: ('A' for Active; 'I' for Inactive)
REMARK    1  A    between atoms: C_1  and  O_2
REMARK    2  A    between atoms: O_2  and  C_3
REMARK    3  A    between atoms: C_3  and  C_4
REMARK    4  A    between atoms: N_6  and  C_7
REMARK    5  A    between atoms: C_7  and  C_8
REMARK    6  A    between atoms: C_8  and  C_9
REMARK    7  A    between atoms: C_13  and  C_14
REMARK    8  A    between atoms: C_17  and  O_18
REMARK    9  A    between atoms: O_18  and  C_19
REMARK                            x       y       z     vdW  Elec       q    Type
REMARK                         _______ _______ _______ _____ _____    ______ ____
ROOT
ATOM      1  C   UNL     1       0.180  10.899  19.472  0.00  0.00    +0.000 A 
ATOM      2  N   UNL     1       0.773  10.514  18.291  0.00  0.00    +0.000 NA
ATOM      3  C   UNL     1       1.350   9.378  18.607  0.00  0.00    +0.000 A 
ATOM      4  C   UNL     1       2.141   8.441  17.913  0.00  0.00    +0.000 A 
ATOM      5  C   UNL     1       2.614   7.367  18.586  0.00  0.00    +0.000 A 
ATOM      6  N   UNL     1       2.333   7.111  19.927  0.00  0.00    +0.000 NA
ATOM      7  C   UNL     1       1.589   7.974  20.563  0.00  0.00    +0.000 A 
ATOM      8  N   UNL     1       1.107   9.096  19.918  0.00  0.00    +0.000 N 
ATOM      9  N   UNL     1       0.337  10.040  20.495  0.00  0.00    +0.000 NA
ENDROOT
BRANCH   5  10
ATOM     10  C   UNL     1       3.449   6.371  17.858  0.00  0.00    +0.000 A 
ATOM     11  C   UNL     1       4.565   6.749  17.098  0.00  0.00    +0.000 A 
ATOM     12  C   UNL     1       5.303   5.800  16.381  0.00  0.00    +0.000 A 
ATOM     13  C   UNL     1       4.969   4.449  16.439  0.00  0.00    +0.000 A 
ATOM     14  C   UNL     1       3.888   4.049  17.220  0.00  0.00    +0.000 A 
ATOM     15  C   UNL     1       3.138   5.004  17.925  0.00  0.00    +0.000 A 
BRANCH  13  16
ATOM     16  O   UNL     1       5.727   3.633  15.648  0.00  0.00    +0.000 OA
ATOM     17  C   UNL     1       6.268   4.220  14.472  0.00  0.00    +0.000 C 
ENDBRANCH  13  16
ENDBRANCH   5  10
BRANCH   1  18
ATOM     18  C   UNL     1      -0.606  12.159  19.569  0.00  0.00    +0.000 C 
BRANCH  18  19
ATOM     19  C   UNL     1      -1.945  12.087  18.841  0.00  0.00    +0.000 C 
BRANCH  19  22
ATOM     20  C   UNL     1      -2.985  11.098  16.826  0.00  0.00    +0.000 C 
ATOM     21  O   UNL     1      -4.027  11.733  16.950  0.00  0.00    +0.000 OA
ATOM     22  N   UNL     1      -1.897  11.246  17.660  0.00  0.00    +0.000 N 
ATOM     23  H   UNL     1      -1.096  10.641  17.509  0.00  0.00    +0.000 HD
BRANCH  20  24
ATOM     24  C   UNL     1      -2.778  10.053  15.728  0.00  0.00    +0.000 C 
BRANCH  24  26
ATOM     25  C   UNL     1      -3.842   9.974  13.622  0.00  0.00    +0.000 C 
ATOM     26  O   UNL     1      -2.828  10.592  14.410  0.00  0.00    +0.000 OA
ENDBRANCH  24  26
ENDBRANCH  20  24
ENDBRANCH  19  22
ENDBRANCH  18  19
ENDBRANCH   1  18
TORSDOF 7
ENDMDL
MODEL 5
REMARK VINA RESULT:      -7.1      1.629      2.201
REMARK  Name = 
REMARK  9 active torsions:
REMARK  status: ('A' for Active; 'I' for Inactive)
REMARK    1  A    between atoms: C_1  and  O_2
REMARK    2  A    between atoms: O_2  and  C_3
REMARK    3  A    between atoms: C_3  and  C_4
REMARK    4  A    between atoms: N_6  and  C_7
REMARK    5  A    between atoms: C_7  and  C_8
REMARK    6  A    between atoms: C_8  and  C_9
REMARK    7  A    between atoms: C_13  and  C_14
REMARK    8  A    between atoms: C_17  and  O_18
REMARK    9  A    between atoms: O_18  and  C_19
REMARK                            x       y       z     vdW  Elec       q    Type
REMARK                         _______ _______ _______ _____ _____    ______ ____
ROOT
ATOM      1  C   UNL     1       2.934   4.775  19.272  0.00  0.00    +0.000 A 
ATOM      2  N   UNL     1       2.261   5.124  20.421  0.00  0.00    +0.000 NA
ATOM      3  C   UNL     1       1.952   6.383  20.211  0.00  0.00    +0.000 A 
ATOM      4  C   UNL     1       1.286   7.377  20.954  0.00  0.00    +0.000 A 
ATOM      5  C   UNL     1       1.178   8.618  20.427  0.00  0.00    +0.000 A 
ATOM      6  N   UNL     1       1.659   8.965  19.165  0.00  0.00    +0.000 NA
ATOM      7  C   UNL     1       2.264   8.038  18.474  0.00  0.00    +0.000 A 
ATOM      8  N   UNL     1       2.416   6.765  18.988  0.00  0.00    +0.000 N 
ATOM      9  N   UNL     1       3.029   5.749  18.349  0.00  0.00    +0.000 NA
ENDROOT
BRANCH   5  10
ATOM     10  C   UNL     1       0.473   9.674  21.206  0.00  0.00    +0.000 A 
ATOM     11  C   UNL     1       0.508  11.024  20.829  0.00  0.00    +0.000 A 
ATOM     12  C   UNL     1      -0.120  12.005  21.605  0.00  0.00    +0.000 A 
ATOM     13  C   UNL     1      -0.829  11.657  22.753  0.00  0.00    +0.000 A 
ATOM     14  C   UNL     1      -0.908  10.317  23.121  0.00  0.00    +0.000 A 
ATOM     15  C   UNL     1      -0.263   9.336  22.351  0.00  0.00    +0.000 A 
BRANCH  13  16
ATOM     16  O   UNL     1      -1.342  12.710  23.454  0.00  0.00    +0.000 OA
ATOM     17  C   UNL     1      -2.760  12.784  23.534  0.00  0.00    +0.000 C 
ENDBRANCH  13  16
ENDBRANCH   5  10
BRANCH   1  18
ATOM     18  C   UNL     1       3.471   3.401  19.077  0.00  0.00    +0.000 C 
BRANCH  18  19
ATOM     19  C   UNL     1       4.943   3.274  19.458  0.00  0.00    +0.000 C 
BRANCH  19  22
ATOM     20  C   UNL     1       6.592   4.936  18.661  0.00  0.00    +0.000 C 
ATOM     21  O   UNL     1       6.658   5.513  19.742  0.00  0.00    +0.000 OA
ATOM     22  N   UNL     1       5.833   3.806  18.443  0.00  0.00    +0.000 N 
ATOM     23  H   UNL     1       5.802   3.428  17.502  0.00  0.00    +0.000 HD
BRANCH  20  24
ATOM     24  C   UNL     1       7.343   5.419  17.418  0.00  0.00    +0.000 C 
BRANCH  24  26
ATOM     25  C   UNL     1       7.152   4.878  15.128  0.00  0.00    +0.000 C 
ATOM     26  O   UNL     1       7.511   4.410  16.426  0.00  0.00    +0.000 OA
ENDBRANCH  24  26
ENDBRANCH  20  24
ENDBRANCH  19  22
ENDBRANCH  18  19
ENDBRANCH   1  18
TORSDOF 7
ENDMDL
MODEL 6
REMARK VINA RESULT:      -7.0      3.278      4.576
REMARK  Name = 
REMARK  9 active torsions:
REMARK  status: ('A' for Active; 'I' for Inactive)
REMARK    1  A    between atoms: C_1  and  O_2
REMARK    2  A    between atoms: O_2  and  C_3
REMARK    3  A    between atoms: C_3  and  C_4
REMARK    4  A    between atoms: N_6  and  C_7
REMARK    5  A    between atoms: C_7  and  C_8
REMARK    6  A    between atoms: C_8  and  C_9
REMARK    7  A    between atoms: C_13  and  C_14
REMARK    8  A    between atoms: C_17  and  O_18
REMARK    9  A    between atoms: O_18  and  C_19
REMARK                            x       y       z     vdW  Elec       q    Type
REMARK                         _______ _______ _______ _____ _____    ______ ____
ROOT
ATOM      1  C   UNL     1       5.763   4.927  16.836  0.00  0.00    +0.000 A 
ATOM      2  N   UNL     1       5.238   6.147  16.471  0.00  0.00    +0.000 NA
ATOM      3  C   UNL     1       4.362   6.387  17.419  0.00  0.00    +0.000 A 
ATOM      4  C   UNL     1       3.452   7.427  17.686  0.00  0.00    +0.000 A 
ATOM      5  C   UNL     1       2.647   7.324  18.769  0.00  0.00    +0.000 A 
ATOM      6  N   UNL     1       2.693   6.255  19.665  0.00  0.00    +0.000 NA
ATOM      7  C   UNL     1       3.547   5.299  19.420  0.00  0.00    +0.000 A 
ATOM      8  N   UNL     1       4.368   5.357  18.311  0.00  0.00    +0.000 N 
ATOM      9  N   UNL     1       5.274   4.416  17.979  0.00  0.00    +0.000 NA
ENDROOT
BRANCH   5  10
ATOM     10  C   UNL     1       1.684   8.421  19.060  0.00  0.00    +0.000 A 
ATOM     11  C   UNL     1       1.218   8.677  20.358  0.00  0.00    +0.000 A 
ATOM     12  C   UNL     1       0.272   9.680  20.599  0.00  0.00    +0.000 A 
ATOM     13  C   UNL     1      -0.199  10.477  19.558  0.00  0.00    +0.000 A 
ATOM     14  C   UNL     1       0.281  10.264  18.269  0.00  0.00    +0.000 A 
ATOM     15  C   UNL     1       1.216   9.246  18.026  0.00  0.00    +0.000 A 
BRANCH  13  16
ATOM     16  O   UNL     1      -1.162  11.378  19.913  0.00  0.00    +0.000 OA
ATOM     17  C   UNL     1      -2.187  11.616  18.956  0.00  0.00    +0.000 C 
ENDBRANCH  13  16
ENDBRANCH   5  10
BRANCH   1  18
ATOM     18  C   UNL     1       6.821   4.266  16.024  0.00  0.00    +0.000 C 
BRANCH  18  19
ATOM     19  C   UNL     1       6.787   4.670  14.553  0.00  0.00    +0.000 C 
BRANCH  19  22
ATOM     20  C   UNL     1       6.305   3.582  12.384  0.00  0.00    +0.000 C 
ATOM     21  O   UNL     1       7.230   4.141  11.803  0.00  0.00    +0.000 OA
ATOM     22  N   UNL     1       6.048   3.730  13.730  0.00  0.00    +0.000 N 
ATOM     23  H   UNL     1       5.230   3.267  14.113  0.00  0.00    +0.000 HD
BRANCH  20  24
ATOM     24  C   UNL     1       5.317   2.658  11.670  0.00  0.00    +0.000 C 
BRANCH  24  26
ATOM     25  C   UNL     1       3.559   3.562  10.380  0.00  0.00    +0.000 C 
ATOM     26  O   UNL     1       3.977   3.141  11.676  0.00  0.00    +0.000 OA
ENDBRANCH  24  26
ENDBRANCH  20  24
ENDBRANCH  19  22
ENDBRANCH  18  19
ENDBRANCH   1  18
TORSDOF 7
ENDMDL
MODEL 7
REMARK VINA RESULT:      -7.0      3.398      9.292
REMARK  Name = 
REMARK  9 active torsions:
REMARK  status: ('A' for Active; 'I' for Inactive)
REMARK    1  A    between atoms: C_1  and  O_2
REMARK    2  A    between atoms: O_2  and  C_3
REMARK    3  A    between atoms: C_3  and  C_4
REMARK    4  A    between atoms: N_6  and  C_7
REMARK    5  A    between atoms: C_7  and  C_8
REMARK    6  A    between atoms: C_8  and  C_9
REMARK    7  A    between atoms: C_13  and  C_14
REMARK    8  A    between atoms: C_17  and  O_18
REMARK    9  A    between atoms: O_18  and  C_19
REMARK                            x       y       z     vdW  Elec       q    Type
REMARK                         _______ _______ _______ _____ _____    ______ ____
ROOT
ATOM      1  C   UNL     1       0.266  10.660  19.422  0.00  0.00    +0.000 A 
ATOM      2  N   UNL     1       0.859  10.325  18.225  0.00  0.00    +0.000 NA
ATOM      3  C   UNL     1       1.468   9.196  18.503  0.00  0.00    +0.000 A 
ATOM      4  C   UNL     1       2.276   8.301  17.776  0.00  0.00    +0.000 A 
ATOM      5  C   UNL     1       2.783   7.220  18.412  0.00  0.00    +0.000 A 
ATOM      6  N   UNL     1       2.520   6.917  19.748  0.00  0.00    +0.000 NA
ATOM      7  C   UNL     1       1.759   7.742  20.415  0.00  0.00    +0.000 A 
ATOM      8  N   UNL     1       1.243   8.870  19.807  0.00  0.00    +0.000 N 
ATOM      9  N   UNL     1       0.454   9.776  20.418  0.00  0.00    +0.000 NA
ENDROOT
BRANCH   5  10
ATOM     10  C   UNL     1       3.637   6.268  17.650  0.00  0.00    +0.000 A 
ATOM     11  C   UNL     1       4.747   6.694  16.907  0.00  0.00    +0.000 A 
ATOM     12  C   UNL     1       5.504   5.787  16.157  0.00  0.00    +0.000 A 
ATOM     13  C   UNL     1       5.194   4.429  16.161  0.00  0.00    +0.000 A 
ATOM     14  C   UNL     1       4.119   3.981  16.924  0.00  0.00    +0.000 A 
ATOM     15  C   UNL     1       3.350   4.894  17.662  0.00  0.00    +0.000 A 
BRANCH  13  16
ATOM     16  O   UNL     1       5.968   3.658  15.342  0.00  0.00    +0.000 OA
ATOM     17  C   UNL     1       5.873   3.925  13.949  0.00  0.00    +0.000 C 
ENDBRANCH  13  16
ENDBRANCH   5  10
BRANCH   1  18
ATOM     18  C   UNL     1      -0.551  11.896  19.562  0.00  0.00    +0.000 C 
BRANCH  18  19
ATOM     19  C   UNL     1      -1.097  12.406  18.231  0.00  0.00    +0.000 C 
BRANCH  19  22
ATOM     20  C   UNL     1      -2.881  11.057  17.176  0.00  0.00    +0.000 C 
ATOM     21  O   UNL     1      -2.094  10.307  16.608  0.00  0.00    +0.000 OA
ATOM     22  N   UNL     1      -2.493  12.067  18.030  0.00  0.00    +0.000 N 
ATOM     23  H   UNL     1      -3.214  12.669  18.415  0.00  0.00    +0.000 HD
BRANCH  20  24
ATOM     24  C   UNL     1      -4.397  10.961  16.989  0.00  0.00    +0.000 C 
BRANCH  24  26
ATOM     25  C   UNL     1      -6.183  12.358  17.647  0.00  0.00    +0.000 C 
ATOM     26  O   UNL     1      -5.031  12.225  16.817  0.00  0.00    +0.000 OA
ENDBRANCH  24  26
ENDBRANCH  20  24
ENDBRANCH  19  22
ENDBRANCH  18  19
ENDBRANCH   1  18
TORSDOF 7
ENDMDL
MODEL 8
REMARK VINA RESULT:      -7.0      1.585      2.478
REMARK  Name = 
REMARK  9 active torsions:
REMARK  status: ('A' for Active; 'I' for Inactive)
REMARK    1  A    between atoms: C_1  and  O_2
REMARK    2  A    between atoms: O_2  and  C_3
REMARK    3  A    between atoms: C_3  and  C_4
REMARK    4  A    between atoms: N_6  and  C_7
REMARK    5  A    between atoms: C_7  and  C_8
REMARK    6  A    between atoms: C_8  and  C_9
REMARK    7  A    between atoms: C_13  and  C_14
REMARK    8  A    between atoms: C_17  and  O_18
REMARK    9  A    between atoms: O_18  and  C_19
REMARK                            x       y       z     vdW  Elec       q    Type
REMARK                         _______ _______ _______ _____ _____    ______ ____
ROOT
ATOM      1  C   UNL     1       4.766   4.577  16.609  0.00  0.00    +0.000 A 
ATOM      2  N   UNL     1       4.434   5.909  16.502  0.00  0.00    +0.000 NA
ATOM      3  C   UNL     1       3.730   6.126  17.588  0.00  0.00    +0.000 A 
ATOM      4  C   UNL     1       3.060   7.240  18.129  0.00  0.00    +0.000 A 
ATOM      5  C   UNL     1       2.379   7.089  19.288  0.00  0.00    +0.000 A 
ATOM      6  N   UNL     1       2.330   5.893  20.004  0.00  0.00    +0.000 NA
ATOM      7  C   UNL     1       2.964   4.866  19.506  0.00  0.00    +0.000 A 
ATOM      8  N   UNL     1       3.650   4.975  18.312  0.00  0.00    +0.000 N 
ATOM      9  N   UNL     1       4.326   3.968  17.724  0.00  0.00    +0.000 NA
ENDROOT
BRANCH   5  10
ATOM     10  C   UNL     1       1.670   8.263  19.868  0.00  0.00    +0.000 A 
ATOM     11  C   UNL     1       1.245   9.340  19.077  0.00  0.00    +0.000 A 
ATOM     12  C   UNL     1       0.627  10.456  19.652  0.00  0.00    +0.000 A 
ATOM     13  C   UNL     1       0.384  10.506  21.023  0.00  0.00    +0.000 A 
ATOM     14  C   UNL     1       0.763   9.430  21.819  0.00  0.00    +0.000 A 
ATOM     15  C   UNL     1       1.398   8.318  21.243  0.00  0.00    +0.000 A 
BRANCH  13  16
ATOM     16  O   UNL     1      -0.169  11.673  21.468  0.00  0.00    +0.000 OA
ATOM     17  C   UNL     1      -1.530  11.899  21.124  0.00  0.00    +0.000 C 
ENDBRANCH  13  16
ENDBRANCH   5  10
BRANCH   1  18
ATOM     18  C   UNL     1       5.588   3.899  15.570  0.00  0.00    +0.000 C 
BRANCH  18  19
ATOM     19  C   UNL     1       6.936   4.575  15.336  0.00  0.00    +0.000 C 
BRANCH  19  22
ATOM     20  C   UNL     1       7.693   5.432  17.529  0.00  0.00    +0.000 C 
ATOM     21  O   UNL     1       8.063   4.332  17.926  0.00  0.00    +0.000 OA
ATOM     22  N   UNL     1       7.188   5.659  16.267  0.00  0.00    +0.000 N 
ATOM     23  H   UNL     1       6.861   6.594  16.046  0.00  0.00    +0.000 HD
BRANCH  20  24
ATOM     24  C   UNL     1       7.740   6.686  18.405  0.00  0.00    +0.000 C 
BRANCH  24  26
ATOM     25  C   UNL     1       8.249   8.965  18.052  0.00  0.00    +0.000 C 
ATOM     26  O   UNL     1       7.389   7.880  17.711  0.00  0.00    +0.000 OA
ENDBRANCH  24  26
ENDBRANCH  20  24
ENDBRANCH  19  22
ENDBRANCH  18  19
ENDBRANCH   1  18
TORSDOF 7
ENDMDL
MODEL 9
REMARK VINA RESULT:      -6.9      1.211      1.593
REMARK  Name = 
REMARK  9 active torsions:
REMARK  status: ('A' for Active; 'I' for Inactive)
REMARK    1  A    between atoms: C_1  and  O_2
REMARK    2  A    between atoms: O_2  and  C_3
REMARK    3  A    between atoms: C_3  and  C_4
REMARK    4  A    between atoms: N_6  and  C_7
REMARK    5  A    between atoms: C_7  and  C_8
REMARK    6  A    between atoms: C_8  and  C_9
REMARK    7  A    between atoms: C_13  and  C_14
REMARK    8  A    between atoms: C_17  and  O_18
REMARK    9  A    between atoms: O_18  and  C_19
REMARK                            x       y       z     vdW  Elec       q    Type
REMARK                         _______ _______ _______ _____ _____    ______ ____
ROOT
ATOM      1  C   UNL     1       3.180   4.868  18.723  0.00  0.00    +0.000 A 
ATOM      2  N   UNL     1       2.532   5.107  19.913  0.00  0.00    +0.000 NA
ATOM      3  C   UNL     1       2.152   6.358  19.796  0.00  0.00    +0.000 A 
ATOM      4  C   UNL     1       1.464   7.266  20.624  0.00  0.00    +0.000 A 
ATOM      5  C   UNL     1       1.275   8.531  20.183  0.00  0.00    +0.000 A 
ATOM      6  N   UNL     1       1.694   8.984  18.932  0.00  0.00    +0.000 NA
ATOM      7  C   UNL     1       2.321   8.135  18.163  0.00  0.00    +0.000 A 
ATOM      8  N   UNL     1       2.554   6.841  18.587  0.00  0.00    +0.000 N 
ATOM      9  N   UNL     1       3.194   5.902  17.864  0.00  0.00    +0.000 NA
ENDROOT
BRANCH   5  10
ATOM     10  C   UNL     1       0.545   9.497  21.051  0.00  0.00    +0.000 A 
ATOM     11  C   UNL     1       0.214  10.787  20.613  0.00  0.00    +0.000 A 
ATOM     12  C   UNL     1      -0.426  11.695  21.465  0.00  0.00    +0.000 A 
ATOM     13  C   UNL     1      -0.786  11.323  22.758  0.00  0.00    +0.000 A 
ATOM     14  C   UNL     1      -0.501  10.033  23.198  0.00  0.00    +0.000 A 
ATOM     15  C   UNL     1       0.157   9.129  22.348  0.00  0.00    +0.000 A 
BRANCH  13  16
ATOM     16  O   UNL     1      -1.349  12.316  23.508  0.00  0.00    +0.000 OA
ATOM     17  C   UNL     1      -1.100  13.648  23.080  0.00  0.00    +0.000 C 
ENDBRANCH  13  16
ENDBRANCH   5  10
BRANCH   1  18
ATOM     18  C   UNL     1       3.778   3.539  18.421  0.00  0.00    +0.000 C 
BRANCH  18  19
ATOM     19  C   UNL     1       5.215   3.402  18.918  0.00  0.00    +0.000 C 
BRANCH  19  22
ATOM     20  C   UNL     1       6.843   5.262  18.827  0.00  0.00    +0.000 C 
ATOM     21  O   UNL     1       6.825   5.448  20.039  0.00  0.00    +0.000 OA
ATOM     22  N   UNL     1       6.141   4.257  18.198  0.00  0.00    +0.000 N 
ATOM     23  H   UNL     1       6.177   4.212  17.184  0.00  0.00    +0.000 HD
BRANCH  20  24
ATOM     24  C   UNL     1       7.645   6.143  17.867  0.00  0.00    +0.000 C 
BRANCH  24  26
ATOM     25  C   UNL     1       7.887   8.481  17.640  0.00  0.00    +0.000 C 
ATOM     26  O   UNL     1       6.998   7.371  17.543  0.00  0.00    +0.000 OA
ENDBRANCH  24  26
ENDBRANCH  20  24
ENDBRANCH  19  22
ENDBRANCH  18  19
ENDBRANCH   1  18
TORSDOF 7
ENDMDL
