MODEL 1
REMARK VINA RESULT:      -8.0      0.000      0.000
REMARK  Name = 
REMARK  0 active torsions:
REMARK  status: ('A' for Active; 'I' for Inactive)
REMARK                            x       y       z     vdW  Elec       q    Type
REMARK                         _______ _______ _______ _____ _____    ______ ____
ROOT
ATOM      1  O   UNL     1       4.070   1.169  18.469  0.00  0.00    +0.000 OA
ATOM      2  C   UNL     1       3.567   2.208  18.863  0.00  0.00    +0.000 C 
ATOM      3  N   UNL     1       2.698   2.246  19.956  0.00  0.00    +0.000 N 
ATOM      4  C   UNL     1       2.159   3.469  20.269  0.00  0.00    +0.000 C 
ATOM      5  O   UNL     1       1.358   3.639  21.187  0.00  0.00    +0.000 OA
ATOM      6  C   UNL     1       2.753   4.332  19.300  0.00  0.00    +0.000 A 
ATOM      7  C   UNL     1       3.632   3.582  18.429  0.00  0.00    +0.000 A 
ATOM      8  C   UNL     1       4.390   4.133  17.355  0.00  0.00    +0.000 A 
ATOM      9  C   UNL     1       4.213   5.501  17.125  0.00  0.00    +0.000 A 
ATOM     10  C   UNL     1       3.361   6.199  17.970  0.00  0.00    +0.000 A 
ATOM     11  N   UNL     1       3.050   7.534  17.946  0.00  0.00    +0.000 N 
ATOM     12  C   UNL     1       2.260   7.875  19.008  0.00  0.00    +0.000 A 
ATOM     13  C   UNL     1       1.833   9.156  19.354  0.00  0.00    +0.000 A 
ATOM     14  C   UNL     1       1.024   9.272  20.469  0.00  0.00    +0.000 A 
ATOM     15  C   UNL     1       0.644   8.138  21.190  0.00  0.00    +0.000 A 
ATOM     16  C   UNL     1       1.091   6.850  20.826  0.00  0.00    +0.000 A 
ATOM     17  C   UNL     1       1.940   6.702  19.713  0.00  0.00    +0.000 A 
ATOM     18  C   UNL     1       2.655   5.715  19.023  0.00  0.00    +0.000 A 
ATOM     19  C   UNL     1       4.831   6.264  16.012  0.00  0.00    +0.000 C 
ATOM     20  C   UNL     1       6.014   5.662  15.312  0.00  0.00    +0.000 C 
ATOM     21  C   UNL     1       6.164   4.153  15.413  0.00  0.00    +0.000 C 
ATOM     22  C   UNL     1       5.345   3.361  16.470  0.00  0.00    +0.000 C 
ATOM     23  H   UNL     1       2.443   1.415  20.455  0.00  0.00    +0.000 HD
ATOM     24  H   UNL     1       3.414   8.190  17.273  0.00  0.00    +0.000 HD
ENDROOT
TORSDOF 0
ENDMDL
MODEL 2
REMARK VINA RESULT:      -8.0      2.196      5.907
REMARK  Name = 
REMARK  0 active torsions:
REMARK  status: ('A' for Active; 'I' for Inactive)
REMARK                            x       y       z     vdW  Elec       q    Type
REMARK                         _______ _______ _______ _____ _____    ______ ____
ROOT
ATOM      1  O   UNL     1       1.093   7.414  20.886  0.00  0.00    +0.000 OA
ATOM      2  C   UNL     1       1.835   7.166  19.951  0.00  0.00    +0.000 C 
ATOM      3  N   UNL     1       2.165   8.124  18.989  0.00  0.00    +0.000 N 
ATOM      4  C   UNL     1       2.970   7.707  17.959  0.00  0.00    +0.000 C 
ATOM      5  O   UNL     1       3.312   8.437  17.030  0.00  0.00    +0.000 OA
ATOM      6  C   UNL     1       3.220   6.341  18.288  0.00  0.00    +0.000 A 
ATOM      7  C   UNL     1       2.542   5.986  19.516  0.00  0.00    +0.000 A 
ATOM      8  C   UNL     1       2.581   4.703  20.135  0.00  0.00    +0.000 A 
ATOM      9  C   UNL     1       3.306   3.721  19.454  0.00  0.00    +0.000 A 
ATOM     10  C   UNL     1       3.945   4.082  18.275  0.00  0.00    +0.000 A 
ATOM     11  N   UNL     1       4.717   3.301  17.455  0.00  0.00    +0.000 N 
ATOM     12  C   UNL     1       5.267   4.040  16.445  0.00  0.00    +0.000 A 
ATOM     13  C   UNL     1       6.179   3.597  15.487  0.00  0.00    +0.000 A 
ATOM     14  C   UNL     1       6.599   4.517  14.545  0.00  0.00    +0.000 A 
ATOM     15  C   UNL     1       6.101   5.821  14.556  0.00  0.00    +0.000 A 
ATOM     16  C   UNL     1       5.183   6.251  15.537  0.00  0.00    +0.000 A 
ATOM     17  C   UNL     1       4.759   5.347  16.528  0.00  0.00    +0.000 A 
ATOM     18  C   UNL     1       3.959   5.301  17.679  0.00  0.00    +0.000 A 
ATOM     19  C   UNL     1       3.411   2.299  19.866  0.00  0.00    +0.000 C 
ATOM     20  C   UNL     1       3.061   1.945  21.282  0.00  0.00    +0.000 C 
ATOM     21  C   UNL     1       2.151   2.916  22.017  0.00  0.00    +0.000 C 
ATOM     22  C   UNL     1       1.910   4.340  21.442  0.00  0.00    +0.000 C 
ATOM     23  H   UNL     1       1.793   9.053  19.023  0.00  0.00    +0.000 HD
ATOM     24  H   UNL     1       4.909   2.325  17.616  0.00  0.00    +0.000 HD
ENDROOT
TORSDOF 0
ENDMDL
MODEL 3
REMARK VINA RESULT:      -7.9      0.723      5.103
REMARK  Name = 
REMARK  0 active torsions:
REMARK  status: ('A' for Active; 'I' for Inactive)
REMARK                            x       y       z     vdW  Elec       q    Type
REMARK                         _______ _______ _______ _____ _____    ______ ____
ROOT
ATOM      1  O   UNL     1       1.149   3.158  21.572  0.00  0.00    +0.000 OA
ATOM      2  C   UNL     1       1.870   3.256  20.593  0.00  0.00    +0.000 C 
ATOM      3  N   UNL     1       2.459   2.143  19.989  0.00  0.00    +0.000 N 
ATOM      4  C   UNL     1       3.289   2.390  18.924  0.00  0.00    +0.000 C 
ATOM      5  O   UNL     1       3.895   1.506  18.320  0.00  0.00    +0.000 OA
ATOM      6  C   UNL     1       3.220   3.810  18.795  0.00  0.00    +0.000 A 
ATOM      7  C   UNL     1       2.345   4.366  19.803  0.00  0.00    +0.000 A 
ATOM      8  C   UNL     1       2.045   5.750  19.958  0.00  0.00    +0.000 A 
ATOM      9  C   UNL     1       2.699   6.616  19.076  0.00  0.00    +0.000 A 
ATOM     10  C   UNL     1       3.538   6.061  18.120  0.00  0.00    +0.000 A 
ATOM     11  N   UNL     1       4.264   6.706  17.151  0.00  0.00    +0.000 N 
ATOM     12  C   UNL     1       4.885   5.812  16.325  0.00  0.00    +0.000 A 
ATOM     13  C   UNL     1       5.624   6.107  15.179  0.00  0.00    +0.000 A 
ATOM     14  C   UNL     1       6.178   5.042  14.494  0.00  0.00    +0.000 A 
ATOM     15  C   UNL     1       6.013   3.737  14.960  0.00  0.00    +0.000 A 
ATOM     16  C   UNL     1       5.257   3.458  16.119  0.00  0.00    +0.000 A 
ATOM     17  C   UNL     1       4.655   4.518  16.822  0.00  0.00    +0.000 A 
ATOM     18  C   UNL     1       3.816   4.748  17.921  0.00  0.00    +0.000 A 
ATOM     19  C   UNL     1       2.606   8.097  19.110  0.00  0.00    +0.000 C 
ATOM     20  C   UNL     1       1.462   8.717  19.859  0.00  0.00    +0.000 C 
ATOM     21  C   UNL     1       0.813   7.860  20.933  0.00  0.00    +0.000 C 
ATOM     22  C   UNL     1       1.095   6.333  20.983  0.00  0.00    +0.000 C 
ATOM     23  H   UNL     1       2.322   1.217  20.345  0.00  0.00    +0.000 HD
ATOM     24  H   UNL     1       4.280   7.705  17.024  0.00  0.00    +0.000 HD
ENDROOT
TORSDOF 0
ENDMDL
MODEL 4
REMARK VINA RESULT:      -7.7      1.067      1.243
REMARK  Name = 
REMARK  0 active torsions:
REMARK  status: ('A' for Active; 'I' for Inactive)
REMARK                            x       y       z     vdW  Elec       q    Type
REMARK                         _______ _______ _______ _____ _____    ______ ____
ROOT
ATOM      1  O   UNL     1       4.227   2.146  19.580  0.00  0.00    +0.000 OA
ATOM      2  C   UNL     1       3.731   3.259  19.633  0.00  0.00    +0.000 C 
ATOM      3  N   UNL     1       2.847   3.632  20.648  0.00  0.00    +0.000 N 
ATOM      4  C   UNL     1       2.319   4.896  20.568  0.00  0.00    +0.000 C 
ATOM      5  O   UNL     1       1.506   5.342  21.377  0.00  0.00    +0.000 OA
ATOM      6  C   UNL     1       2.937   5.422  19.394  0.00  0.00    +0.000 A 
ATOM      7  C   UNL     1       3.819   4.438  18.806  0.00  0.00    +0.000 A 
ATOM      8  C   UNL     1       4.599   4.633  17.629  0.00  0.00    +0.000 A 
ATOM      9  C   UNL     1       4.443   5.868  16.994  0.00  0.00    +0.000 A 
ATOM     10  C   UNL     1       3.588   6.796  17.573  0.00  0.00    +0.000 A 
ATOM     11  N   UNL     1       3.293   8.063  17.141  0.00  0.00    +0.000 N 
ATOM     12  C   UNL     1       2.491   8.715  18.037  0.00  0.00    +0.000 A 
ATOM     13  C   UNL     1       2.075  10.044  17.973  0.00  0.00    +0.000 A 
ATOM     14  C   UNL     1       1.252  10.497  18.986  0.00  0.00    +0.000 A 
ATOM     15  C   UNL     1       0.848   9.637  20.009  0.00  0.00    +0.000 A 
ATOM     16  C   UNL     1       1.284   8.295  20.059  0.00  0.00    +0.000 A 
ATOM     17  C   UNL     1       2.147   7.812  19.058  0.00  0.00    +0.000 A 
ATOM     18  C   UNL     1       2.860   6.657  18.711  0.00  0.00    +0.000 A 
ATOM     19  C   UNL     1       5.086   6.255  15.713  0.00  0.00    +0.000 C 
ATOM     20  C   UNL     1       6.272   5.461  15.248  0.00  0.00    +0.000 C 
ATOM     21  C   UNL     1       6.402   4.052  15.803  0.00  0.00    +0.000 C 
ATOM     22  C   UNL     1       5.558   3.622  17.035  0.00  0.00    +0.000 C 
ATOM     23  H   UNL     1       2.575   2.993  21.370  0.00  0.00    +0.000 HD
ATOM     24  H   UNL     1       3.674   8.482  16.308  0.00  0.00    +0.000 HD
ENDROOT
TORSDOF 0
ENDMDL
MODEL 5
REMARK VINA RESULT:      -7.7      2.194      4.060
REMARK  Name = 
REMARK  0 active torsions:
REMARK  status: ('A' for Active; 'I' for Inactive)
REMARK                            x       y       z     vdW  Elec       q    Type
REMARK                         _______ _______ _______ _____ _____    ______ ____
ROOT
ATOM      1  O   UNL     1       5.610   3.377  16.807  0.00  0.00    +0.000 OA
ATOM      2  C   UNL     1       4.995   4.406  17.033  0.00  0.00    +0.000 C 
ATOM      3  N   UNL     1       5.057   5.512  16.182  0.00  0.00    +0.000 N 
ATOM      4  C   UNL     1       4.359   6.627  16.573  0.00  0.00    +0.000 C 
ATOM      5  O   UNL     1       4.351   7.678  15.935  0.00  0.00    +0.000 OA
ATOM      6  C   UNL     1       3.752   6.206  17.794  0.00  0.00    +0.000 A 
ATOM      7  C   UNL     1       4.118   4.839  18.094  0.00  0.00    +0.000 A 
ATOM      8  C   UNL     1       3.684   4.103  19.235  0.00  0.00    +0.000 A 
ATOM      9  C   UNL     1       2.875   4.801  20.136  0.00  0.00    +0.000 A 
ATOM     10  C   UNL     1       2.539   6.113  19.831  0.00  0.00    +0.000 A 
ATOM     11  N   UNL     1       1.754   6.977  20.550  0.00  0.00    +0.000 N 
ATOM     12  C   UNL     1       1.563   8.148  19.872  0.00  0.00    +0.000 A 
ATOM     13  C   UNL     1       0.745   9.211  20.255  0.00  0.00    +0.000 A 
ATOM     14  C   UNL     1       0.708  10.311  19.419  0.00  0.00    +0.000 A 
ATOM     15  C   UNL     1       1.483  10.346  18.259  0.00  0.00    +0.000 A 
ATOM     16  C   UNL     1       2.300   9.258  17.885  0.00  0.00    +0.000 A 
ATOM     17  C   UNL     1       2.337   8.111  18.700  0.00  0.00    +0.000 A 
ATOM     18  C   UNL     1       2.904   6.830  18.738  0.00  0.00    +0.000 A 
ATOM     19  C   UNL     1       2.381   4.264  21.429  0.00  0.00    +0.000 C 
ATOM     20  C   UNL     1       2.402   2.777  21.632  0.00  0.00    +0.000 C 
ATOM     21  C   UNL     1       3.377   1.991  20.772  0.00  0.00    +0.000 C 
ATOM     22  C   UNL     1       4.029   2.659  19.530  0.00  0.00    +0.000 C 
ATOM     23  H   UNL     1       5.622   5.508  15.355  0.00  0.00    +0.000 HD
ATOM     24  H   UNL     1       1.320   6.750  21.430  0.00  0.00    +0.000 HD
ENDROOT
TORSDOF 0
ENDMDL
MODEL 6
REMARK VINA RESULT:      -7.1      5.969      9.205
REMARK  Name = 
REMARK  0 active torsions:
REMARK  status: ('A' for Active; 'I' for Inactive)
REMARK                            x       y       z     vdW  Elec       q    Type
REMARK                         _______ _______ _______ _____ _____    ______ ____
ROOT
ATOM      1  O   UNL     1       1.433  10.428  22.126  0.00  0.00    +0.000 OA
ATOM      2  C   UNL     1       0.785  10.363  21.095  0.00  0.00    +0.000 C 
ATOM      3  N   UNL     1       1.208   9.611  19.996  0.00  0.00    +0.000 N 
ATOM      4  C   UNL     1       0.414   9.659  18.878  0.00  0.00    +0.000 C 
ATOM      5  O   UNL     1       0.684   9.070  17.832  0.00  0.00    +0.000 OA
ATOM      6  C   UNL     1      -0.657  10.508  19.288  0.00  0.00    +0.000 A 
ATOM      7  C   UNL     1      -0.459  10.945  20.653  0.00  0.00    +0.000 A 
ATOM      8  C   UNL     1      -1.341  11.798  21.379  0.00  0.00    +0.000 A 
ATOM      9  C   UNL     1      -2.454  12.263  20.673  0.00  0.00    +0.000 A 
ATOM     10  C   UNL     1      -2.622  11.834  19.363  0.00  0.00    +0.000 A 
ATOM     11  N   UNL     1      -3.635  12.143  18.493  0.00  0.00    +0.000 N 
ATOM     12  C   UNL     1      -3.515  11.440  17.327  0.00  0.00    +0.000 A 
ATOM     13  C   UNL     1      -4.414  11.430  16.261  0.00  0.00    +0.000 A 
ATOM     14  C   UNL     1      -4.087  10.650  15.168  0.00  0.00    +0.000 A 
ATOM     15  C   UNL     1      -2.891   9.930  15.143  0.00  0.00    +0.000 A 
ATOM     16  C   UNL     1      -1.997   9.949  16.234  0.00  0.00    +0.000 A 
ATOM     17  C   UNL     1      -2.315  10.709  17.375  0.00  0.00    +0.000 A 
ATOM     18  C   UNL     1      -1.824  10.995  18.656  0.00  0.00    +0.000 A 
ATOM     19  C   UNL     1      -3.455  13.226  21.198  0.00  0.00    +0.000 C 
ATOM     20  C   UNL     1      -3.529  13.430  22.683  0.00  0.00    +0.000 C 
ATOM     21  C   UNL     1      -2.283  13.073  23.478  0.00  0.00    +0.000 C 
ATOM     22  C   UNL     1      -1.160  12.222  22.821  0.00  0.00    +0.000 C 
ATOM     23  H   UNL     1       2.071   9.103  20.008  0.00  0.00    +0.000 HD
ATOM     24  H   UNL     1      -4.405  12.756  18.712  0.00  0.00    +0.000 HD
ENDROOT
TORSDOF 0
ENDMDL
MODEL 7
REMARK VINA RESULT:      -7.0      6.108      8.718
REMARK  Name = 
REMARK  0 active torsions:
REMARK  status: ('A' for Active; 'I' for Inactive)
REMARK                            x       y       z     vdW  Elec       q    Type
REMARK                         _______ _______ _______ _____ _____    ______ ____
ROOT
ATOM      1  O   UNL     1       0.919   9.087  17.798  0.00  0.00    +0.000 OA
ATOM      2  C   UNL     1       0.496   9.888  18.615  0.00  0.00    +0.000 C 
ATOM      3  N   UNL     1       1.235  10.264  19.739  0.00  0.00    +0.000 N 
ATOM      4  C   UNL     1       0.627  11.136  20.608  0.00  0.00    +0.000 C 
ATOM      5  O   UNL     1       1.152  11.525  21.651  0.00  0.00    +0.000 OA
ATOM      6  C   UNL     1      -0.631  11.381  19.981  0.00  0.00    +0.000 A 
ATOM      7  C   UNL     1      -0.732  10.634  18.746  0.00  0.00    +0.000 A 
ATOM      8  C   UNL     1      -1.852  10.650  17.865  0.00  0.00    +0.000 A 
ATOM      9  C   UNL     1      -2.939  11.428  18.278  0.00  0.00    +0.000 A 
ATOM     10  C   UNL     1      -2.821  12.133  19.468  0.00  0.00    +0.000 A 
ATOM     11  N   UNL     1      -3.740  12.963  20.057  0.00  0.00    +0.000 N 
ATOM     12  C   UNL     1      -3.220  13.565  21.168  0.00  0.00    +0.000 A 
ATOM     13  C   UNL     1      -3.833  14.539  21.956  0.00  0.00    +0.000 A 
ATOM     14  C   UNL     1      -3.125  15.005  23.047  0.00  0.00    +0.000 A 
ATOM     15  C   UNL     1      -1.862  14.492  23.344  0.00  0.00    +0.000 A 
ATOM     16  C   UNL     1      -1.255  13.510  22.532  0.00  0.00    +0.000 A 
ATOM     17  C   UNL     1      -1.937  13.037  21.396  0.00  0.00    +0.000 A 
ATOM     18  C   UNL     1      -1.757  12.169  20.310  0.00  0.00    +0.000 A 
ATOM     19  C   UNL     1      -4.237  11.524  17.565  0.00  0.00    +0.000 C 
ATOM     20  C   UNL     1      -4.290  11.093  16.129  0.00  0.00    +0.000 C 
ATOM     21  C   UNL     1      -3.208  10.128  15.673  0.00  0.00    +0.000 C 
ATOM     22  C   UNL     1      -1.945   9.905  16.551  0.00  0.00    +0.000 C 
ATOM     23  H   UNL     1       2.140   9.879  19.926  0.00  0.00    +0.000 HD
ATOM     24  H   UNL     1      -4.654  13.157  19.679  0.00  0.00    +0.000 HD
ENDROOT
TORSDOF 0
ENDMDL
MODEL 8
REMARK VINA RESULT:      -7.0      6.688      9.253
REMARK  Name = 
REMARK  0 active torsions:
REMARK  status: ('A' for Active; 'I' for Inactive)
REMARK                            x       y       z     vdW  Elec       q    Type
REMARK                         _______ _______ _______ _____ _____    ______ ____
ROOT
ATOM      1  O   UNL     1       0.753   9.450  19.124  0.00  0.00    +0.000 OA
ATOM      2  C   UNL     1       0.085  10.279  19.719  0.00  0.00    +0.000 C 
ATOM      3  N   UNL     1       0.474  10.801  20.955  0.00  0.00    +0.000 N 
ATOM      4  C   UNL     1      -0.389  11.689  21.545  0.00  0.00    +0.000 C 
ATOM      5  O   UNL     1      -0.185  12.201  22.645  0.00  0.00    +0.000 OA
ATOM      6  C   UNL     1      -1.446  11.783  20.590  0.00  0.00    +0.000 A 
ATOM      7  C   UNL     1      -1.173  10.934  19.452  0.00  0.00    +0.000 A 
ATOM      8  C   UNL     1      -2.016  10.791  18.312  0.00  0.00    +0.000 A 
ATOM      9  C   UNL     1      -3.214  11.512  18.348  0.00  0.00    +0.000 A 
ATOM     10  C   UNL     1      -3.457  12.317  19.452  0.00  0.00    +0.000 A 
ATOM     11  N   UNL     1      -4.544  13.117  19.696  0.00  0.00    +0.000 N 
ATOM     12  C   UNL     1      -4.373  13.845  20.840  0.00  0.00    +0.000 A 
ATOM     13  C   UNL     1      -5.227  14.827  21.341  0.00  0.00    +0.000 A 
ATOM     14  C   UNL     1      -4.863  15.434  22.528  0.00  0.00    +0.000 A 
ATOM     15  C   UNL     1      -3.698  15.047  23.194  0.00  0.00    +0.000 A 
ATOM     16  C   UNL     1      -2.844  14.054  22.668  0.00  0.00    +0.000 A 
ATOM     17  C   UNL     1      -3.171  13.439  21.446  0.00  0.00    +0.000 A 
ATOM     18  C   UNL     1      -2.660  12.504  20.535  0.00  0.00    +0.000 A 
ATOM     19  C   UNL     1      -4.278  11.448  17.315  0.00  0.00    +0.000 C 
ATOM     20  C   UNL     1      -3.922  10.900  15.964  0.00  0.00    +0.000 C 
ATOM     21  C   UNL     1      -2.706   9.990  15.903  0.00  0.00    +0.000 C 
ATOM     22  C   UNL     1      -1.714   9.938  17.098  0.00  0.00    +0.000 C 
ATOM     23  H   UNL     1       1.317  10.505  21.408  0.00  0.00    +0.000 HD
ATOM     24  H   UNL     1      -5.333  13.207  19.076  0.00  0.00    +0.000 HD
ENDROOT
TORSDOF 0
ENDMDL
MODEL 9
REMARK VINA RESULT:      -6.8      8.258     10.561
REMARK  Name = 
REMARK  0 active torsions:
REMARK  status: ('A' for Active; 'I' for Inactive)
REMARK                            x       y       z     vdW  Elec       q    Type
REMARK                         _______ _______ _______ _____ _____    ______ ____
ROOT
ATOM      1  O   UNL     1      -3.195  11.098  15.899  0.00  0.00    +0.000 OA
ATOM      2  C   UNL     1      -3.883  11.332  16.878  0.00  0.00    +0.000 C 
ATOM      3  N   UNL     1      -5.279  11.295  16.832  0.00  0.00    +0.000 N 
ATOM      4  C   UNL     1      -5.940  11.626  17.988  0.00  0.00    +0.000 C 
ATOM      5  O   UNL     1      -7.166  11.663  18.079  0.00  0.00    +0.000 OA
ATOM      6  C   UNL     1      -4.872  11.883  18.899  0.00  0.00    +0.000 A 
ATOM      7  C   UNL     1      -3.596  11.698  18.244  0.00  0.00    +0.000 A 
ATOM      8  C   UNL     1      -2.322  11.867  18.862  0.00  0.00    +0.000 A 
ATOM      9  C   UNL     1      -2.345  12.286  20.196  0.00  0.00    +0.000 A 
ATOM     10  C   UNL     1      -3.581  12.461  20.803  0.00  0.00    +0.000 A 
ATOM     11  N   UNL     1      -3.846  12.847  22.092  0.00  0.00    +0.000 N 
ATOM     12  C   UNL     1      -5.186  12.800  22.355  0.00  0.00    +0.000 A 
ATOM     13  C   UNL     1      -5.805  13.031  23.583  0.00  0.00    +0.000 A 
ATOM     14  C   UNL     1      -7.184  12.941  23.621  0.00  0.00    +0.000 A 
ATOM     15  C   UNL     1      -7.907  12.654  22.462  0.00  0.00    +0.000 A 
ATOM     16  C   UNL     1      -7.262  12.419  21.230  0.00  0.00    +0.000 A 
ATOM     17  C   UNL     1      -5.858  12.473  21.165  0.00  0.00    +0.000 A 
ATOM     18  C   UNL     1      -4.809  12.273  20.256  0.00  0.00    +0.000 A 
ATOM     19  C   UNL     1      -1.145  12.607  21.008  0.00  0.00    +0.000 C 
ATOM     20  C   UNL     1       0.186  12.097  20.538  0.00  0.00    +0.000 C 
ATOM     21  C   UNL     1       0.299  11.766  19.059  0.00  0.00    +0.000 C 
ATOM     22  C   UNL     1      -0.985  11.632  18.193  0.00  0.00    +0.000 C 
ATOM     23  H   UNL     1      -5.772  11.085  15.985  0.00  0.00    +0.000 HD
ATOM     24  H   UNL     1      -3.138  13.068  22.775  0.00  0.00    +0.000 HD
ENDROOT
TORSDOF 0
ENDMDL
