MODEL 1
REMARK VINA RESULT:      -9.2      0.000      0.000
REMARK  Name = 
REMARK  4 active torsions:
REMARK  status: ('A' for Active; 'I' for Inactive)
REMARK    1  A    between atoms: C_1  and  C_2
REMARK    2  A    between atoms: CA_3  and  C_4
REMARK    3  A    between atoms: C_7  and  C_8
REMARK    4  A    between atoms: C_19  and  O_20
REMARK                            x       y       z     vdW  Elec       q    Type
REMARK                         _______ _______ _______ _____ _____    ______ ____
ROOT
ATOM      1  C   UNL     1       3.302   1.897  18.169  0.00  0.00    +0.000 C 
ATOM      2  C   UNL     1       2.946   3.330  18.417  0.00  0.00    +0.000 A 
ATOM      3  CA  UNL     1       2.015   3.793  19.295  0.00  0.00    +0.000 A 
ATOM      4  N   UNL     1       1.814   5.157  19.502  0.00  0.00    +0.000 N 
ATOM      5  C   UNL     1       2.496   6.157  18.816  0.00  0.00    +0.000 A 
ATOM      6  C   UNL     1       3.372   5.794  17.858  0.00  0.00    +0.000 A 
ATOM      7  N   UNL     1       4.117   6.573  17.013  0.00  0.00    +0.000 NA
ATOM      8  C   UNL     1       4.839   5.717  16.371  0.00  0.00    +0.000 A 
ATOM      9  C   UNL     1       5.851   6.047  15.356  0.00  0.00    +0.000 A 
ATOM     10  C   UNL     1       6.558   5.048  14.811  0.00  0.00    +0.000 A 
ATOM     11  C   UNL     1       6.346   3.651  15.165  0.00  0.00    +0.000 A 
ATOM     12  C   UNL     1       5.411   3.280  16.059  0.00  0.00    +0.000 A 
ATOM     13  C   UNL     1       4.626   4.291  16.708  0.00  0.00    +0.000 A 
ATOM     14  C   UNL     1       3.662   4.368  17.641  0.00  0.00    +0.000 A 
ATOM     15  H   UNL     1       1.022   5.449  20.100  0.00  0.00    +0.000 HD
ENDROOT
BRANCH   5  16
ATOM     16  C   UNL     1       2.181   7.578  19.090  0.00  0.00    +0.000 A 
ATOM     17  C   UNL     1       1.728   8.443  18.081  0.00  0.00    +0.000 A 
ATOM     18  C   UNL     1       1.037   9.611  18.418  0.00  0.00    +0.000 A 
ATOM     19  C   UNL     1       0.843   9.895  19.759  0.00  0.00    +0.000 A 
ATOM     20  C   UNL     1       1.531   9.085  20.668  0.00  0.00    +0.000 A 
ATOM     21  N   UNL     1       2.206   7.944  20.387  0.00  0.00    +0.000 NA
ATOM     22  C   UNL     1       1.170   9.308  22.066  0.00  0.00    +0.000 C 
ATOM     23  O   UNL     1       1.908   9.533  23.002  0.00  0.00    +0.000 OA
ATOM     24  C   UNL     1      -0.332   9.411  22.179  0.00  0.00    +0.000 C 
ATOM     25  N   UNL     1      -1.021   8.539  22.835  0.00  0.00    +0.000 NA
ATOM     26  C   UNL     1      -0.883  10.526  21.379  0.00  0.00    +0.000 C 
ATOM     27  C   UNL     1      -0.219  10.814  20.244  0.00  0.00    +0.000 C 
ATOM     28  H   UNL     1      -0.376   7.834  23.229  0.00  0.00    +0.000 HD
BRANCH  27  29
ATOM     29  O   UNL     1      -0.557  11.849  19.407  0.00  0.00    +0.000 OA
ATOM     30  H   UNL     1       0.211  12.442  19.323  0.00  0.00    +0.000 HD
ENDBRANCH  27  29
ENDBRANCH   5  16
BRANCH   3  31
ATOM     31  C   UNL     1       1.165   2.896  20.144  0.00  0.00    +0.000 C 
ATOM     32  O   UNL     1       1.301   2.830  21.364  0.00  0.00    +0.000 OA
ENDBRANCH   3  31
TORSDOF 3
ENDMDL
MODEL 2
REMARK VINA RESULT:      -8.4      1.726      2.763
REMARK  Name = 
REMARK  4 active torsions:
REMARK  status: ('A' for Active; 'I' for Inactive)
REMARK    1  A    between atoms: C_1  and  C_2
REMARK    2  A    between atoms: CA_3  and  C_4
REMARK    3  A    between atoms: C_7  and  C_8
REMARK    4  A    between atoms: C_19  and  O_20
REMARK                            x       y       z     vdW  Elec       q    Type
REMARK                         _______ _______ _______ _____ _____    ______ ____
ROOT
ATOM      1  C   UNL     1       4.202   2.585  19.650  0.00  0.00    +0.000 C 
ATOM      2  C   UNL     1       3.448   3.855  19.896  0.00  0.00    +0.000 A 
ATOM      3  CA  UNL     1       2.590   4.102  20.923  0.00  0.00    +0.000 A 
ATOM      4  N   UNL     1       1.995   5.350  21.100  0.00  0.00    +0.000 N 
ATOM      5  C   UNL     1       2.178   6.428  20.239  0.00  0.00    +0.000 A 
ATOM      6  C   UNL     1       2.936   6.249  19.141  0.00  0.00    +0.000 A 
ATOM      7  N   UNL     1       3.221   7.120  18.122  0.00  0.00    +0.000 NA
ATOM      8  C   UNL     1       4.055   6.464  17.388  0.00  0.00    +0.000 A 
ATOM      9  C   UNL     1       4.704   6.974  16.171  0.00  0.00    +0.000 A 
ATOM     10  C   UNL     1       5.589   6.190  15.540  0.00  0.00    +0.000 A 
ATOM     11  C   UNL     1       5.912   4.845  16.000  0.00  0.00    +0.000 A 
ATOM     12  C   UNL     1       5.327   4.307  17.084  0.00  0.00    +0.000 A 
ATOM     13  C   UNL     1       4.384   5.090  17.831  0.00  0.00    +0.000 A 
ATOM     14  C   UNL     1       3.633   4.969  18.938  0.00  0.00    +0.000 A 
ATOM     15  H   UNL     1       1.272   5.447  21.834  0.00  0.00    +0.000 HD
ENDROOT
BRANCH   5  16
ATOM     16  C   UNL     1       1.470   7.703  20.503  0.00  0.00    +0.000 A 
ATOM     17  C   UNL     1       1.490   8.310  21.769  0.00  0.00    +0.000 A 
ATOM     18  C   UNL     1       1.209   9.675  21.894  0.00  0.00    +0.000 A 
ATOM     19  C   UNL     1       0.889  10.387  20.751  0.00  0.00    +0.000 A 
ATOM     20  C   UNL     1       0.681   9.633  19.592  0.00  0.00    +0.000 A 
ATOM     21  N   UNL     1       0.944   8.315  19.424  0.00  0.00    +0.000 NA
ATOM     22  C   UNL     1       0.513  10.431  18.378  0.00  0.00    +0.000 C 
ATOM     23  O   UNL     1      -0.384  10.371  17.564  0.00  0.00    +0.000 OA
ATOM     24  C   UNL     1       1.554  11.523  18.356  0.00  0.00    +0.000 C 
ATOM     25  N   UNL     1       2.474  11.560  17.452  0.00  0.00    +0.000 NA
ATOM     26  C   UNL     1       1.446  12.430  19.519  0.00  0.00    +0.000 C 
ATOM     27  C   UNL     1       1.012  11.865  20.661  0.00  0.00    +0.000 C 
ATOM     28  H   UNL     1       2.343  10.759  16.811  0.00  0.00    +0.000 HD
BRANCH  27  29
ATOM     29  O   UNL     1       0.802  12.565  21.824  0.00  0.00    +0.000 OA
ATOM     30  H   UNL     1       0.173  13.287  21.641  0.00  0.00    +0.000 HD
ENDBRANCH  27  29
ENDBRANCH   5  16
BRANCH   3  31
ATOM     31  C   UNL     1       2.248   3.088  21.972  0.00  0.00    +0.000 C 
ATOM     32  O   UNL     1       1.147   2.542  22.019  0.00  0.00    +0.000 OA
ENDBRANCH   3  31
TORSDOF 3
ENDMDL
MODEL 3
REMARK VINA RESULT:      -7.6      5.471      8.601
REMARK  Name = 
REMARK  4 active torsions:
REMARK  status: ('A' for Active; 'I' for Inactive)
REMARK    1  A    between atoms: C_1  and  C_2
REMARK    2  A    between atoms: CA_3  and  C_4
REMARK    3  A    between atoms: C_7  and  C_8
REMARK    4  A    between atoms: C_19  and  O_20
REMARK                            x       y       z     vdW  Elec       q    Type
REMARK                         _______ _______ _______ _____ _____    ______ ____
ROOT
ATOM      1  C   UNL     1       0.537   9.531  18.376  0.00  0.00    +0.000 C 
ATOM      2  C   UNL     1      -0.296  10.424  19.243  0.00  0.00    +0.000 A 
ATOM      3  CA  UNL     1       0.024  10.871  20.488  0.00  0.00    +0.000 A 
ATOM      4  N   UNL     1      -0.795  11.763  21.181  0.00  0.00    +0.000 N 
ATOM      5  C   UNL     1      -2.012  12.236  20.700  0.00  0.00    +0.000 A 
ATOM      6  C   UNL     1      -2.456  11.774  19.515  0.00  0.00    +0.000 A 
ATOM      7  N   UNL     1      -3.630  12.034  18.859  0.00  0.00    +0.000 NA
ATOM      8  C   UNL     1      -3.497  11.404  17.740  0.00  0.00    +0.000 A 
ATOM      9  C   UNL     1      -4.479  11.394  16.645  0.00  0.00    +0.000 A 
ATOM     10  C   UNL     1      -4.176  10.731  15.521  0.00  0.00    +0.000 A 
ATOM     11  C   UNL     1      -2.925  10.003  15.351  0.00  0.00    +0.000 A 
ATOM     12  C   UNL     1      -2.002   9.944  16.327  0.00  0.00    +0.000 A 
ATOM     13  C   UNL     1      -2.238  10.646  17.556  0.00  0.00    +0.000 A 
ATOM     14  C   UNL     1      -1.605  10.877  18.718  0.00  0.00    +0.000 A 
ATOM     15  H   UNL     1      -0.555  11.983  22.162  0.00  0.00    +0.000 HD
ENDROOT
BRANCH   5  16
ATOM     16  C   UNL     1      -2.820  13.156  21.534  0.00  0.00    +0.000 A 
ATOM     17  C   UNL     1      -2.995  14.506  21.186  0.00  0.00    +0.000 A 
ATOM     18  C   UNL     1      -4.074  15.228  21.708  0.00  0.00    +0.000 A 
ATOM     19  C   UNL     1      -4.929  14.586  22.586  0.00  0.00    +0.000 A 
ATOM     20  C   UNL     1      -4.527  13.322  23.030  0.00  0.00    +0.000 A 
ATOM     21  N   UNL     1      -3.496  12.585  22.550  0.00  0.00    +0.000 NA
ATOM     22  C   UNL     1      -5.533  12.612  23.817  0.00  0.00    +0.000 C 
ATOM     23  O   UNL     1      -5.404  12.107  24.912  0.00  0.00    +0.000 OA
ATOM     24  C   UNL     1      -6.876  12.750  23.144  0.00  0.00    +0.000 C 
ATOM     25  N   UNL     1      -7.497  11.727  22.662  0.00  0.00    +0.000 NA
ATOM     26  C   UNL     1      -7.303  14.160  23.019  0.00  0.00    +0.000 C 
ATOM     27  C   UNL     1      -6.314  15.057  22.853  0.00  0.00    +0.000 C 
ATOM     28  H   UNL     1      -6.927  10.881  22.832  0.00  0.00    +0.000 HD
BRANCH  27  29
ATOM     29  O   UNL     1      -6.521  16.412  22.772  0.00  0.00    +0.000 OA
ATOM     30  H   UNL     1      -7.094  16.592  22.004  0.00  0.00    +0.000 HD
ENDBRANCH  27  29
ENDBRANCH   5  16
BRANCH   3  31
ATOM     31  C   UNL     1       1.287  10.494  21.200  0.00  0.00    +0.000 C 
ATOM     32  O   UNL     1       1.278   9.967  22.311  0.00  0.00    +0.000 OA
ENDBRANCH   3  31
TORSDOF 3
ENDMDL
MODEL 4
REMARK VINA RESULT:      -7.6      5.724      8.871
REMARK  Name = 
REMARK  4 active torsions:
REMARK  status: ('A' for Active; 'I' for Inactive)
REMARK    1  A    between atoms: C_1  and  C_2
REMARK    2  A    between atoms: CA_3  and  C_4
REMARK    3  A    between atoms: C_7  and  C_8
REMARK    4  A    between atoms: C_19  and  O_20
REMARK                            x       y       z     vdW  Elec       q    Type
REMARK                         _______ _______ _______ _____ _____    ______ ____
ROOT
ATOM      1  C   UNL     1      -2.714  10.104  16.255  0.00  0.00    +0.000 C 
ATOM      2  C   UNL     1      -3.010  10.970  17.440  0.00  0.00    +0.000 A 
ATOM      3  CA  UNL     1      -4.148  11.683  17.658  0.00  0.00    +0.000 A 
ATOM      4  N   UNL     1      -4.351  12.401  18.836  0.00  0.00    +0.000 N 
ATOM      5  C   UNL     1      -3.415  12.495  19.861  0.00  0.00    +0.000 A 
ATOM      6  C   UNL     1      -2.219  11.898  19.693  0.00  0.00    +0.000 A 
ATOM      7  N   UNL     1      -1.121  11.890  20.514  0.00  0.00    +0.000 NA
ATOM      8  C   UNL     1      -0.299  11.100  19.910  0.00  0.00    +0.000 A 
ATOM      9  C   UNL     1       1.034  10.719  20.402  0.00  0.00    +0.000 A 
ATOM     10  C   UNL     1       1.756   9.847  19.685  0.00  0.00    +0.000 A 
ATOM     11  C   UNL     1       1.283   9.285  18.426  0.00  0.00    +0.000 A 
ATOM     12  C   UNL     1       0.090   9.621  17.903  0.00  0.00    +0.000 A 
ATOM     13  C   UNL     1      -0.756  10.531  18.621  0.00  0.00    +0.000 A 
ATOM     14  C   UNL     1      -1.975  11.080  18.494  0.00  0.00    +0.000 A 
ATOM     15  H   UNL     1      -5.185  13.009  18.900  0.00  0.00    +0.000 HD
ENDROOT
BRANCH   5  16
ATOM     16  C   UNL     1      -3.720  13.313  21.058  0.00  0.00    +0.000 A 
ATOM     17  C   UNL     1      -3.764  14.716  21.002  0.00  0.00    +0.000 A 
ATOM     18  C   UNL     1      -4.460  15.433  21.981  0.00  0.00    +0.000 A 
ATOM     19  C   UNL     1      -5.067  14.727  23.004  0.00  0.00    +0.000 A 
ATOM     20  C   UNL     1      -4.766  13.363  23.079  0.00  0.00    +0.000 A 
ATOM     21  N   UNL     1      -4.103  12.628  22.153  0.00  0.00    +0.000 NA
ATOM     22  C   UNL     1      -5.555  12.625  24.063  0.00  0.00    +0.000 C 
ATOM     23  O   UNL     1      -5.155  11.899  24.948  0.00  0.00    +0.000 OA
ATOM     24  C   UNL     1      -7.001  13.043  23.952  0.00  0.00    +0.000 C 
ATOM     25  N   UNL     1      -7.916  12.212  23.582  0.00  0.00    +0.000 NA
ATOM     26  C   UNL     1      -7.192  14.488  24.201  0.00  0.00    +0.000 C 
ATOM     27  C   UNL     1      -6.176  15.285  23.822  0.00  0.00    +0.000 C 
ATOM     28  H   UNL     1      -7.480  11.292  23.406  0.00  0.00    +0.000 HD
BRANCH  27  29
ATOM     29  O   UNL     1      -6.158  16.643  24.024  0.00  0.00    +0.000 OA
ATOM     30  H   UNL     1      -5.346  17.005  23.626  0.00  0.00    +0.000 HD
ENDBRANCH  27  29
ENDBRANCH   5  16
BRANCH   3  31
ATOM     31  C   UNL     1      -5.292  11.725  16.691  0.00  0.00    +0.000 C 
ATOM     32  O   UNL     1      -6.326  12.347  16.928  0.00  0.00    +0.000 OA
ENDBRANCH   3  31
TORSDOF 3
ENDMDL
MODEL 5
REMARK VINA RESULT:      -7.5      2.388      4.109
REMARK  Name = 
REMARK  4 active torsions:
REMARK  status: ('A' for Active; 'I' for Inactive)
REMARK    1  A    between atoms: C_1  and  C_2
REMARK    2  A    between atoms: CA_3  and  C_4
REMARK    3  A    between atoms: C_7  and  C_8
REMARK    4  A    between atoms: C_19  and  O_20
REMARK                            x       y       z     vdW  Elec       q    Type
REMARK                         _______ _______ _______ _____ _____    ______ ____
ROOT
ATOM      1  C   UNL     1       5.827   4.456  17.944  0.00  0.00    +0.000 C 
ATOM      2  C   UNL     1       4.885   5.618  18.005  0.00  0.00    +0.000 A 
ATOM      3  CA  UNL     1       5.046   6.823  17.393  0.00  0.00    +0.000 A 
ATOM      4  N   UNL     1       4.067   7.815  17.455  0.00  0.00    +0.000 N 
ATOM      5  C   UNL     1       2.880   7.692  18.170  0.00  0.00    +0.000 A 
ATOM      6  C   UNL     1       2.675   6.569  18.885  0.00  0.00    +0.000 A 
ATOM      7  N   UNL     1       1.631   6.231  19.706  0.00  0.00    +0.000 NA
ATOM      8  C   UNL     1       1.904   5.021  20.059  0.00  0.00    +0.000 A 
ATOM      9  C   UNL     1       1.065   4.175  20.922  0.00  0.00    +0.000 A 
ATOM     10  C   UNL     1       1.458   2.916  21.161  0.00  0.00    +0.000 A 
ATOM     11  C   UNL     1       2.694   2.364  20.620  0.00  0.00    +0.000 A 
ATOM     12  C   UNL     1       3.522   3.096  19.854  0.00  0.00    +0.000 A 
ATOM     13  C   UNL     1       3.163   4.447  19.531  0.00  0.00    +0.000 A 
ATOM     14  C   UNL     1       3.650   5.469  18.807  0.00  0.00    +0.000 A 
ATOM     15  H   UNL     1       4.289   8.745  17.063  0.00  0.00    +0.000 HD
ENDROOT
BRANCH   5  16
ATOM     16  C   UNL     1       1.921   8.822  18.196  0.00  0.00    +0.000 A 
ATOM     17  C   UNL     1       0.732   8.798  17.450  0.00  0.00    +0.000 A 
ATOM     18  C   UNL     1      -0.334   9.631  17.807  0.00  0.00    +0.000 A 
ATOM     19  C   UNL     1      -0.168  10.483  18.884  0.00  0.00    +0.000 A 
ATOM     20  C   UNL     1       1.127  10.580  19.403  0.00  0.00    +0.000 A 
ATOM     21  N   UNL     1       2.185   9.793  19.092  0.00  0.00    +0.000 NA
ATOM     22  C   UNL     1       1.224  11.356  20.638  0.00  0.00    +0.000 C 
ATOM     23  O   UNL     1       1.967  12.284  20.880  0.00  0.00    +0.000 OA
ATOM     24  C   UNL     1       0.101  10.957  21.563  0.00  0.00    +0.000 C 
ATOM     25  N   UNL     1       0.331  10.380  22.694  0.00  0.00    +0.000 NA
ATOM     26  C   UNL     1      -1.232  11.202  20.971  0.00  0.00    +0.000 C 
ATOM     27  C   UNL     1      -1.311  11.067  19.634  0.00  0.00    +0.000 C 
ATOM     28  H   UNL     1       1.352  10.272  22.811  0.00  0.00    +0.000 HD
BRANCH  27  29
ATOM     29  O   UNL     1      -2.454  11.308  18.912  0.00  0.00    +0.000 OA
ATOM     30  H   UNL     1      -2.236  11.259  17.963  0.00  0.00    +0.000 HD
ENDBRANCH  27  29
ENDBRANCH   5  16
BRANCH   3  31
ATOM     31  C   UNL     1       6.246   7.175  16.568  0.00  0.00    +0.000 C 
ATOM     32  O   UNL     1       7.288   7.588  17.074  0.00  0.00    +0.000 OA
ENDBRANCH   3  31
TORSDOF 3
ENDMDL
MODEL 6
REMARK VINA RESULT:      -7.5      7.421     10.047
REMARK  Name = 
REMARK  4 active torsions:
REMARK  status: ('A' for Active; 'I' for Inactive)
REMARK    1  A    between atoms: C_1  and  C_2
REMARK    2  A    between atoms: CA_3  and  C_4
REMARK    3  A    between atoms: C_7  and  C_8
REMARK    4  A    between atoms: C_19  and  O_20
REMARK                            x       y       z     vdW  Elec       q    Type
REMARK                         _______ _______ _______ _____ _____    ______ ____
ROOT
ATOM      1  C   UNL     1      -5.141  11.002  17.903  0.00  0.00    +0.000 C 
ATOM      2  C   UNL     1      -3.739  11.492  18.096  0.00  0.00    +0.000 A 
ATOM      3  CA  UNL     1      -2.704  11.350  17.224  0.00  0.00    +0.000 A 
ATOM      4  N   UNL     1      -1.452  11.912  17.471  0.00  0.00    +0.000 N 
ATOM      5  C   UNL     1      -1.131  12.616  18.627  0.00  0.00    +0.000 A 
ATOM      6  C   UNL     1      -2.065  12.727  19.591  0.00  0.00    +0.000 A 
ATOM      7  N   UNL     1      -1.982  13.311  20.828  0.00  0.00    +0.000 NA
ATOM      8  C   UNL     1      -3.182  13.207  21.291  0.00  0.00    +0.000 A 
ATOM      9  C   UNL     1      -3.641  13.721  22.591  0.00  0.00    +0.000 A 
ATOM     10  C   UNL     1      -4.933  13.580  22.915  0.00  0.00    +0.000 A 
ATOM     11  C   UNL     1      -5.893  12.918  22.041  0.00  0.00    +0.000 A 
ATOM     12  C   UNL     1      -5.530  12.395  20.856  0.00  0.00    +0.000 A 
ATOM     13  C   UNL     1      -4.168  12.524  20.423  0.00  0.00    +0.000 A 
ATOM     14  C   UNL     1      -3.420  12.202  19.356  0.00  0.00    +0.000 A 
ATOM     15  H   UNL     1      -0.678  11.681  16.826  0.00  0.00    +0.000 HD
ENDROOT
BRANCH   5  16
ATOM     16  C   UNL     1       0.242  13.144  18.804  0.00  0.00    +0.000 A 
ATOM     17  C   UNL     1       1.368  12.445  18.339  0.00  0.00    +0.000 A 
ATOM     18  C   UNL     1       2.571  13.123  18.118  0.00  0.00    +0.000 A 
ATOM     19  C   UNL     1       2.621  14.478  18.395  0.00  0.00    +0.000 A 
ATOM     20  C   UNL     1       1.514  15.014  19.062  0.00  0.00    +0.000 A 
ATOM     21  N   UNL     1       0.330  14.397  19.292  0.00  0.00    +0.000 NA
ATOM     22  C   UNL     1       1.533  16.470  19.184  0.00  0.00    +0.000 C 
ATOM     23  O   UNL     1       1.398  17.137  20.188  0.00  0.00    +0.000 OA
ATOM     24  C   UNL     1       1.945  17.073  17.863  0.00  0.00    +0.000 C 
ATOM     25  N   UNL     1       1.137  17.807  17.175  0.00  0.00    +0.000 NA
ATOM     26  C   UNL     1       3.290  16.631  17.436  0.00  0.00    +0.000 C 
ATOM     27  C   UNL     1       3.640  15.385  17.806  0.00  0.00    +0.000 C 
ATOM     28  H   UNL     1       0.242  17.886  17.686  0.00  0.00    +0.000 HD
BRANCH  27  29
ATOM     29  O   UNL     1       4.869  14.830  17.543  0.00  0.00    +0.000 OA
ATOM     30  H   UNL     1       5.289  15.336  16.823  0.00  0.00    +0.000 HD
ENDBRANCH  27  29
ENDBRANCH   5  16
BRANCH   3  31
ATOM     31  C   UNL     1      -2.823  10.631  15.914  0.00  0.00    +0.000 C 
ATOM     32  O   UNL     1      -3.267  11.178  14.906  0.00  0.00    +0.000 OA
ENDBRANCH   3  31
TORSDOF 3
ENDMDL
MODEL 7
REMARK VINA RESULT:      -7.4      1.345      1.411
REMARK  Name = 
REMARK  4 active torsions:
REMARK  status: ('A' for Active; 'I' for Inactive)
REMARK    1  A    between atoms: C_1  and  C_2
REMARK    2  A    between atoms: CA_3  and  C_4
REMARK    3  A    between atoms: C_7  and  C_8
REMARK    4  A    between atoms: C_19  and  O_20
REMARK                            x       y       z     vdW  Elec       q    Type
REMARK                         _______ _______ _______ _____ _____    ______ ____
ROOT
ATOM      1  C   UNL     1       4.200   3.114  19.681  0.00  0.00    +0.000 C 
ATOM      2  C   UNL     1       3.526   4.432  19.458  0.00  0.00    +0.000 A 
ATOM      3  CA  UNL     1       2.543   4.979  20.224  0.00  0.00    +0.000 A 
ATOM      4  N   UNL     1       2.034   6.252  19.968  0.00  0.00    +0.000 N 
ATOM      5  C   UNL     1       2.437   7.051  18.903  0.00  0.00    +0.000 A 
ATOM      6  C   UNL     1       3.340   6.555  18.035  0.00  0.00    +0.000 A 
ATOM      7  N   UNL     1       3.851   7.110  16.891  0.00  0.00    +0.000 NA
ATOM      8  C   UNL     1       4.732   6.248  16.506  0.00  0.00    +0.000 A 
ATOM      9  C   UNL     1       5.603   6.388  15.329  0.00  0.00    +0.000 A 
ATOM     10  C   UNL     1       6.506   5.429  15.084  0.00  0.00    +0.000 A 
ATOM     11  C   UNL     1       6.640   4.245  15.922  0.00  0.00    +0.000 A 
ATOM     12  C   UNL     1       5.851   4.040  16.992  0.00  0.00    +0.000 A 
ATOM     13  C   UNL     1       4.872   5.031  17.338  0.00  0.00    +0.000 A 
ATOM     14  C   UNL     1       3.950   5.241  18.292  0.00  0.00    +0.000 A 
ATOM     15  H   UNL     1       1.216   6.570  20.516  0.00  0.00    +0.000 HD
ENDROOT
BRANCH   5  16
ATOM     16  C   UNL     1       1.807   8.377  18.704  0.00  0.00    +0.000 A 
ATOM     17  C   UNL     1       0.973   8.640  17.605  0.00  0.00    +0.000 A 
ATOM     18  C   UNL     1       0.063   9.702  17.655  0.00  0.00    +0.000 A 
ATOM     19  C   UNL     1       0.034  10.487  18.794  0.00  0.00    +0.000 A 
ATOM     20  C   UNL     1       1.058  10.270  19.721  0.00  0.00    +0.000 A 
ATOM     21  N   UNL     1       1.955   9.255  19.716  0.00  0.00    +0.000 NA
ATOM     22  C   UNL     1       0.896  10.997  20.979  0.00  0.00    +0.000 C 
ATOM     23  O   UNL     1       1.696  11.721  21.532  0.00  0.00    +0.000 OA
ATOM     24  C   UNL     1      -0.536  10.876  21.439  0.00  0.00    +0.000 C 
ATOM     25  N   UNL     1      -0.845  10.257  22.529  0.00  0.00    +0.000 NA
ATOM     26  C   UNL     1      -1.494  11.433  20.460  0.00  0.00    +0.000 C 
ATOM     27  C   UNL     1      -1.136  11.325  19.166  0.00  0.00    +0.000 C 
ATOM     28  H   UNL     1       0.022   9.909  22.970  0.00  0.00    +0.000 HD
BRANCH  27  29
ATOM     29  O   UNL     1      -1.876  11.833  18.127  0.00  0.00    +0.000 OA
ATOM     30  H   UNL     1      -1.979  11.138  17.452  0.00  0.00    +0.000 HD
ENDBRANCH  27  29
ENDBRANCH   5  16
BRANCH   3  31
ATOM     31  C   UNL     1       1.957   4.297  21.423  0.00  0.00    +0.000 C 
ATOM     32  O   UNL     1       1.187   3.344  21.322  0.00  0.00    +0.000 OA
ENDBRANCH   3  31
TORSDOF 3
ENDMDL
MODEL 8
REMARK VINA RESULT:      -7.3      5.310     11.381
REMARK  Name = 
REMARK  4 active torsions:
REMARK  status: ('A' for Active; 'I' for Inactive)
REMARK    1  A    between atoms: C_1  and  C_2
REMARK    2  A    between atoms: CA_3  and  C_4
REMARK    3  A    between atoms: C_7  and  C_8
REMARK    4  A    between atoms: C_19  and  O_20
REMARK                            x       y       z     vdW  Elec       q    Type
REMARK                         _______ _______ _______ _____ _____    ______ ____
ROOT
ATOM      1  C   UNL     1      -5.711  15.701  23.962  0.00  0.00    +0.000 C 
ATOM      2  C   UNL     1      -4.607  14.727  23.690  0.00  0.00    +0.000 A 
ATOM      3  CA  UNL     1      -4.726  13.521  23.070  0.00  0.00    +0.000 A 
ATOM      4  N   UNL     1      -3.616  12.721  22.800  0.00  0.00    +0.000 N 
ATOM      5  C   UNL     1      -2.315  13.047  23.170  0.00  0.00    +0.000 A 
ATOM      6  C   UNL     1      -2.111  14.178  23.872  0.00  0.00    +0.000 A 
ATOM      7  N   UNL     1      -0.952  14.687  24.397  0.00  0.00    +0.000 NA
ATOM      8  C   UNL     1      -1.317  15.824  24.887  0.00  0.00    +0.000 A 
ATOM      9  C   UNL     1      -0.426  16.795  25.540  0.00  0.00    +0.000 A 
ATOM     10  C   UNL     1      -0.943  17.958  25.957  0.00  0.00    +0.000 A 
ATOM     11  C   UNL     1      -2.355  18.287  25.809  0.00  0.00    +0.000 A 
ATOM     12  C   UNL     1      -3.229  17.428  25.254  0.00  0.00    +0.000 A 
ATOM     13  C   UNL     1      -2.751  16.168  24.760  0.00  0.00    +0.000 A 
ATOM     14  C   UNL     1      -3.240  15.085  24.133  0.00  0.00    +0.000 A 
ATOM     15  H   UNL     1      -3.778  11.771  22.425  0.00  0.00    +0.000 HD
ENDROOT
BRANCH   5  16
ATOM     16  C   UNL     1      -1.211  12.108  22.862  0.00  0.00    +0.000 A 
ATOM     17  C   UNL     1      -1.230  10.775  23.304  0.00  0.00    +0.000 A 
ATOM     18  C   UNL     1      -0.440   9.814  22.664  0.00  0.00    +0.000 A 
ATOM     19  C   UNL     1       0.368  10.221  21.617  0.00  0.00    +0.000 A 
ATOM     20  C   UNL     1       0.473  11.601  21.417  0.00  0.00    +0.000 A 
ATOM     21  N   UNL     1      -0.274  12.565  22.008  0.00  0.00    +0.000 NA
ATOM     22  C   UNL     1       1.196  11.980  20.204  0.00  0.00    +0.000 C 
ATOM     23  O   UNL     1       2.131  12.747  20.101  0.00  0.00    +0.000 OA
ATOM     24  C   UNL     1       0.731  11.115  19.059  0.00  0.00    +0.000 C 
ATOM     25  N   UNL     1       0.110  11.616  18.045  0.00  0.00    +0.000 NA
ATOM     26  C   UNL     1       0.969   9.677  19.305  0.00  0.00    +0.000 C 
ATOM     27  C   UNL     1       0.891   9.283  20.589  0.00  0.00    +0.000 C 
ATOM     28  H   UNL     1       0.023  12.637  18.179  0.00  0.00    +0.000 HD
BRANCH  27  29
ATOM     29  O   UNL     1       1.135   7.998  21.007  0.00  0.00    +0.000 OA
ATOM     30  H   UNL     1       1.942   7.677  20.565  0.00  0.00    +0.000 HD
ENDBRANCH  27  29
ENDBRANCH   5  16
BRANCH   3  31
ATOM     31  C   UNL     1      -6.031  12.970  22.584  0.00  0.00    +0.000 C 
ATOM     32  O   UNL     1      -6.538  11.962  23.072  0.00  0.00    +0.000 OA
ENDBRANCH   3  31
TORSDOF 3
ENDMDL
MODEL 9
REMARK VINA RESULT:      -7.3      2.513      7.633
REMARK  Name = 
REMARK  4 active torsions:
REMARK  status: ('A' for Active; 'I' for Inactive)
REMARK    1  A    between atoms: C_1  and  C_2
REMARK    2  A    between atoms: CA_3  and  C_4
REMARK    3  A    between atoms: C_7  and  C_8
REMARK    4  A    between atoms: C_19  and  O_20
REMARK                            x       y       z     vdW  Elec       q    Type
REMARK                         _______ _______ _______ _____ _____    ______ ____
ROOT
ATOM      1  C   UNL     1      -1.065  11.142  21.818  0.00  0.00    +0.000 C 
ATOM      2  C   UNL     1      -0.204  10.265  20.962  0.00  0.00    +0.000 A 
ATOM      3  CA  UNL     1       0.898   9.574  21.360  0.00  0.00    +0.000 A 
ATOM      4  N   UNL     1       1.586   8.725  20.494  0.00  0.00    +0.000 N 
ATOM      5  C   UNL     1       1.250   8.540  19.157  0.00  0.00    +0.000 A 
ATOM      6  C   UNL     1       0.228   9.255  18.648  0.00  0.00    +0.000 A 
ATOM      7  N   UNL     1      -0.257   9.298  17.367  0.00  0.00    +0.000 NA
ATOM      8  C   UNL     1      -1.285  10.072  17.460  0.00  0.00    +0.000 A 
ATOM      9  C   UNL     1      -2.193  10.420  16.357  0.00  0.00    +0.000 A 
ATOM     10  C   UNL     1      -3.250  11.200  16.620  0.00  0.00    +0.000 A 
ATOM     11  C   UNL     1      -3.520  11.735  17.948  0.00  0.00    +0.000 A 
ATOM     12  C   UNL     1      -2.709  11.485  18.991  0.00  0.00    +0.000 A 
ATOM     13  C   UNL     1      -1.566  10.638  18.800  0.00  0.00    +0.000 A 
ATOM     14  C   UNL     1      -0.566  10.121  19.533  0.00  0.00    +0.000 A 
ATOM     15  H   UNL     1       2.476   8.311  20.821  0.00  0.00    +0.000 HD
ENDROOT
BRANCH   5  16
ATOM     16  C   UNL     1       2.070   7.637  18.315  0.00  0.00    +0.000 A 
ATOM     17  C   UNL     1       3.285   8.056  17.750  0.00  0.00    +0.000 A 
ATOM     18  C   UNL     1       4.232   7.109  17.345  0.00  0.00    +0.000 A 
ATOM     19  C   UNL     1       3.924   5.769  17.494  0.00  0.00    +0.000 A 
ATOM     20  C   UNL     1       2.606   5.473  17.855  0.00  0.00    +0.000 A 
ATOM     21  N   UNL     1       1.659   6.355  18.258  0.00  0.00    +0.000 NA
ATOM     22  C   UNL     1       2.367   4.065  18.164  0.00  0.00    +0.000 C 
ATOM     23  O   UNL     1       1.514   3.334  17.707  0.00  0.00    +0.000 OA
ATOM     24  C   UNL     1       3.489   3.552  19.034  0.00  0.00    +0.000 C 
ATOM     25  N   UNL     1       3.279   3.164  20.246  0.00  0.00    +0.000 NA
ATOM     26  C   UNL     1       4.809   3.660  18.375  0.00  0.00    +0.000 C 
ATOM     27  C   UNL     1       4.959   4.703  17.537  0.00  0.00    +0.000 C 
ATOM     28  H   UNL     1       2.273   3.267  20.459  0.00  0.00    +0.000 HD
BRANCH  27  29
ATOM     29  O   UNL     1       6.096   4.929  16.801  0.00  0.00    +0.000 OA
ATOM     30  H   UNL     1       6.854   4.983  17.411  0.00  0.00    +0.000 HD
ENDBRANCH  27  29
ENDBRANCH   5  16
BRANCH   3  31
ATOM     31  C   UNL     1       1.440   9.622  22.757  0.00  0.00    +0.000 C 
ATOM     32  O   UNL     1       0.707   9.595  23.743  0.00  0.00    +0.000 OA
ENDBRANCH   3  31
TORSDOF 3
ENDMDL
