MODEL 1
REMARK VINA RESULT:      -8.5      0.000      0.000
REMARK  Name = 
REMARK  2 active torsions:
REMARK  status: ('A' for Active; 'I' for Inactive)
REMARK    1  A    between atoms: C_1  and  C_2
REMARK    2  A    between atoms: C_17  and  C_18
REMARK                            x       y       z     vdW  Elec       q    Type
REMARK                         _______ _______ _______ _____ _____    ______ ____
ROOT
ATOM      1  C   UNL     1       6.248   7.147  17.513  0.00  0.00    +0.000 C 
ATOM      2  C   UNL     1       5.224   6.064  17.791  0.00  0.00    +0.000 A 
ATOM      3  N   UNL     1       4.491   6.247  18.849  0.00  0.00    +0.000 NA
ATOM      4  C   UNL     1       3.465   5.343  19.130  0.00  0.00    +0.000 A 
ATOM      5  C   UNL     1       2.588   5.627  20.182  0.00  0.00    +0.000 A 
ATOM      6  C   UNL     1       1.535   4.762  20.488  0.00  0.00    +0.000 A 
ATOM      7  C   UNL     1       1.362   3.597  19.745  0.00  0.00    +0.000 A 
ATOM      8  C   UNL     1       2.237   3.309  18.702  0.00  0.00    +0.000 A 
ATOM      9  F   UNL     1       2.025   2.189  17.997  0.00  0.00    +0.000 F 
ATOM     10  C   UNL     1       3.282   4.181  18.392  0.00  0.00    +0.000 A 
ATOM     11  C   UNL     1       4.216   3.926  17.288  0.00  0.00    +0.000 A 
ATOM     12  O   UNL     1       4.249   2.796  16.806  0.00  0.00    +0.000 OA
ATOM     13  N   UNL     1       5.060   4.986  16.941  0.00  0.00    +0.000 N 
ATOM     14  C   UNL     1       5.847   4.856  15.792  0.00  0.00    +0.000 A 
ATOM     15  N   UNL     1       7.021   5.406  15.553  0.00  0.00    +0.000 NA
ATOM     16  N   UNL     1       7.504   5.136  14.289  0.00  0.00    +0.000 NA
ATOM     17  C   UNL     1       6.655   4.426  13.572  0.00  0.00    +0.000 A 
ATOM     18  S   UNL     1       5.203   4.055  14.406  0.00  0.00    +0.000 S 
ENDROOT
BRANCH  17  19
ATOM     19  C   UNL     1       6.837   3.968  12.165  0.00  0.00    +0.000 C 
ATOM     20  F   UNL     1       7.533   2.805  12.071  0.00  0.00    +0.000 F 
ATOM     21  F   UNL     1       5.649   3.759  11.535  0.00  0.00    +0.000 F 
ATOM     22  F   UNL     1       7.514   4.882  11.417  0.00  0.00    +0.000 F 
ENDBRANCH  17  19
TORSDOF 1
ENDMDL
MODEL 2
REMARK VINA RESULT:      -7.8      3.790      4.866
REMARK  Name = 
REMARK  2 active torsions:
REMARK  status: ('A' for Active; 'I' for Inactive)
REMARK    1  A    between atoms: C_1  and  C_2
REMARK    2  A    between atoms: C_17  and  C_18
REMARK                            x       y       z     vdW  Elec       q    Type
REMARK                         _______ _______ _______ _____ _____    ______ ____
ROOT
ATOM      1  C   UNL     1       2.403   4.765  20.604  0.00  0.00    +0.000 C 
ATOM      2  C   UNL     1       2.178   6.167  20.074  0.00  0.00    +0.000 A 
ATOM      3  N   UNL     1       1.487   6.952  20.846  0.00  0.00    +0.000 NA
ATOM      4  C   UNL     1       1.307   8.286  20.475  0.00  0.00    +0.000 A 
ATOM      5  C   UNL     1       0.692   9.159  21.379  0.00  0.00    +0.000 A 
ATOM      6  C   UNL     1       0.509  10.506  21.059  0.00  0.00    +0.000 A 
ATOM      7  C   UNL     1       0.934  10.985  19.822  0.00  0.00    +0.000 A 
ATOM      8  C   UNL     1       1.540  10.118  18.919  0.00  0.00    +0.000 A 
ATOM      9  F   UNL     1       1.954  10.620  17.747  0.00  0.00    +0.000 F 
ATOM     10  C   UNL     1       1.731   8.774  19.245  0.00  0.00    +0.000 A 
ATOM     11  C   UNL     1       2.384   7.829  18.331  0.00  0.00    +0.000 A 
ATOM     12  O   UNL     1       2.517   8.157  17.154  0.00  0.00    +0.000 OA
ATOM     13  N   UNL     1       2.721   6.583  18.872  0.00  0.00    +0.000 N 
ATOM     14  C   UNL     1       3.494   5.712  18.098  0.00  0.00    +0.000 A 
ATOM     15  N   UNL     1       3.495   4.394  18.126  0.00  0.00    +0.000 NA
ATOM     16  N   UNL     1       4.429   3.830  17.282  0.00  0.00    +0.000 NA
ATOM     17  C   UNL     1       5.159   4.739  16.667  0.00  0.00    +0.000 A 
ATOM     18  S   UNL     1       4.747   6.348  17.097  0.00  0.00    +0.000 S 
ENDROOT
BRANCH  17  19
ATOM     19  C   UNL     1       6.267   4.494  15.700  0.00  0.00    +0.000 C 
ATOM     20  F   UNL     1       7.491   4.476  16.290  0.00  0.00    +0.000 F 
ATOM     21  F   UNL     1       6.132   3.304  15.054  0.00  0.00    +0.000 F 
ATOM     22  F   UNL     1       6.320   5.452  14.734  0.00  0.00    +0.000 F 
ENDBRANCH  17  19
TORSDOF 1
ENDMDL
MODEL 3
REMARK VINA RESULT:      -7.5      5.351      7.267
REMARK  Name = 
REMARK  2 active torsions:
REMARK  status: ('A' for Active; 'I' for Inactive)
REMARK    1  A    between atoms: C_1  and  C_2
REMARK    2  A    between atoms: C_17  and  C_18
REMARK                            x       y       z     vdW  Elec       q    Type
REMARK                         _______ _______ _______ _____ _____    ______ ____
ROOT
ATOM      1  C   UNL     1       3.299   7.839  17.264  0.00  0.00    +0.000 C 
ATOM      2  C   UNL     1       2.384   8.410  18.330  0.00  0.00    +0.000 A 
ATOM      3  N   UNL     1       1.893   9.585  18.073  0.00  0.00    +0.000 NA
ATOM      4  C   UNL     1       0.974  10.147  18.961  0.00  0.00    +0.000 A 
ATOM      5  C   UNL     1       0.337  11.341  18.605  0.00  0.00    +0.000 A 
ATOM      6  C   UNL     1      -0.604  11.930  19.452  0.00  0.00    +0.000 A 
ATOM      7  C   UNL     1      -0.906  11.327  20.671  0.00  0.00    +0.000 A 
ATOM      8  C   UNL     1      -0.271  10.143  21.030  0.00  0.00    +0.000 A 
ATOM      9  F   UNL     1      -0.603   9.583  22.202  0.00  0.00    +0.000 F 
ATOM     10  C   UNL     1       0.662   9.552  20.177  0.00  0.00    +0.000 A 
ATOM     11  C   UNL     1       1.342   8.293  20.507  0.00  0.00    +0.000 A 
ATOM     12  O   UNL     1       1.296   7.897  21.669  0.00  0.00    +0.000 OA
ATOM     13  N   UNL     1       2.066   7.695  19.470  0.00  0.00    +0.000 N 
ATOM     14  C   UNL     1       2.589   6.415  19.680  0.00  0.00    +0.000 A 
ATOM     15  N   UNL     1       3.671   5.888  19.142  0.00  0.00    +0.000 NA
ATOM     16  N   UNL     1       3.876   4.572  19.502  0.00  0.00    +0.000 NA
ATOM     17  C   UNL     1       2.909   4.110  20.270  0.00  0.00    +0.000 A 
ATOM     18  S   UNL     1       1.680   5.263  20.588  0.00  0.00    +0.000 S 
ENDROOT
BRANCH  17  19
ATOM     19  C   UNL     1       2.793   2.733  20.832  0.00  0.00    +0.000 C 
ATOM     20  F   UNL     1       2.075   1.895  20.039  0.00  0.00    +0.000 F 
ATOM     21  F   UNL     1       4.008   2.148  21.013  0.00  0.00    +0.000 F 
ATOM     22  F   UNL     1       2.180   2.731  22.048  0.00  0.00    +0.000 F 
ENDBRANCH  17  19
TORSDOF 1
ENDMDL
MODEL 4
REMARK VINA RESULT:      -7.3      1.938      2.407
REMARK  Name = 
REMARK  2 active torsions:
REMARK  status: ('A' for Active; 'I' for Inactive)
REMARK    1  A    between atoms: C_1  and  C_2
REMARK    2  A    between atoms: C_17  and  C_18
REMARK                            x       y       z     vdW  Elec       q    Type
REMARK                         _______ _______ _______ _____ _____    ______ ____
ROOT
ATOM      1  C   UNL     1       2.638   7.188  17.535  0.00  0.00    +0.000 C 
ATOM      2  C   UNL     1       2.966   5.948  18.343  0.00  0.00    +0.000 A 
ATOM      3  N   UNL     1       2.172   5.707  19.344  0.00  0.00    +0.000 NA
ATOM      4  C   UNL     1       2.351   4.539  20.088  0.00  0.00    +0.000 A 
ATOM      5  C   UNL     1       1.404   4.213  21.064  0.00  0.00    +0.000 A 
ATOM      6  C   UNL     1       1.530   3.045  21.820  0.00  0.00    +0.000 A 
ATOM      7  C   UNL     1       2.616   2.199  21.606  0.00  0.00    +0.000 A 
ATOM      8  C   UNL     1       3.562   2.525  20.639  0.00  0.00    +0.000 A 
ATOM      9  F   UNL     1       4.582   1.676  20.448  0.00  0.00    +0.000 F 
ATOM     10  C   UNL     1       3.428   3.688  19.879  0.00  0.00    +0.000 A 
ATOM     11  C   UNL     1       4.392   4.059  18.835  0.00  0.00    +0.000 A 
ATOM     12  O   UNL     1       5.477   3.485  18.817  0.00  0.00    +0.000 OA
ATOM     13  N   UNL     1       4.014   5.114  17.997  0.00  0.00    +0.000 N 
ATOM     14  C   UNL     1       4.813   5.395  16.885  0.00  0.00    +0.000 A 
ATOM     15  N   UNL     1       4.991   6.560  16.294  0.00  0.00    +0.000 NA
ATOM     16  N   UNL     1       5.792   6.488  15.173  0.00  0.00    +0.000 NA
ATOM     17  C   UNL     1       6.164   5.252  14.905  0.00  0.00    +0.000 A 
ATOM     18  S   UNL     1       5.543   4.099  16.012  0.00  0.00    +0.000 S 
ENDROOT
BRANCH  17  19
ATOM     19  C   UNL     1       7.014   4.801  13.766  0.00  0.00    +0.000 C 
ATOM     20  F   UNL     1       6.962   5.640  12.699  0.00  0.00    +0.000 F 
ATOM     21  F   UNL     1       8.326   4.696  14.113  0.00  0.00    +0.000 F 
ATOM     22  F   UNL     1       6.639   3.574  13.308  0.00  0.00    +0.000 F 
ENDBRANCH  17  19
TORSDOF 1
ENDMDL
MODEL 5
REMARK VINA RESULT:      -7.3      1.985      6.671
REMARK  Name = 
REMARK  2 active torsions:
REMARK  status: ('A' for Active; 'I' for Inactive)
REMARK    1  A    between atoms: C_1  and  C_2
REMARK    2  A    between atoms: C_17  and  C_18
REMARK                            x       y       z     vdW  Elec       q    Type
REMARK                         _______ _______ _______ _____ _____    ______ ____
ROOT
ATOM      1  C   UNL     1       7.390   6.291  17.967  0.00  0.00    +0.000 C 
ATOM      2  C   UNL     1       6.835   5.635  16.718  0.00  0.00    +0.000 A 
ATOM      3  N   UNL     1       7.543   5.796  15.640  0.00  0.00    +0.000 NA
ATOM      4  C   UNL     1       7.150   5.153  14.465  0.00  0.00    +0.000 A 
ATOM      5  C   UNL     1       7.995   5.210  13.352  0.00  0.00    +0.000 A 
ATOM      6  C   UNL     1       7.653   4.565  12.162  0.00  0.00    +0.000 A 
ATOM      7  C   UNL     1       6.452   3.864  12.077  0.00  0.00    +0.000 A 
ATOM      8  C   UNL     1       5.608   3.810  13.181  0.00  0.00    +0.000 A 
ATOM      9  F   UNL     1       4.470   3.109  13.068  0.00  0.00    +0.000 F 
ATOM     10  C   UNL     1       5.957   4.448  14.373  0.00  0.00    +0.000 A 
ATOM     11  C   UNL     1       5.104   4.401  15.568  0.00  0.00    +0.000 A 
ATOM     12  O   UNL     1       3.941   4.029  15.436  0.00  0.00    +0.000 OA
ATOM     13  N   UNL     1       5.679   4.876  16.751  0.00  0.00    +0.000 N 
ATOM     14  C   UNL     1       4.976   4.697  17.947  0.00  0.00    +0.000 A 
ATOM     15  N   UNL     1       5.012   5.456  19.024  0.00  0.00    +0.000 NA
ATOM     16  N   UNL     1       4.251   4.965  20.065  0.00  0.00    +0.000 NA
ATOM     17  C   UNL     1       3.692   3.808  19.770  0.00  0.00    +0.000 A 
ATOM     18  S   UNL     1       4.077   3.246  18.196  0.00  0.00    +0.000 S 
ENDROOT
BRANCH  17  19
ATOM     19  C   UNL     1       2.821   2.983  20.657  0.00  0.00    +0.000 C 
ATOM     20  F   UNL     1       3.527   2.199  21.513  0.00  0.00    +0.000 F 
ATOM     21  F   UNL     1       1.996   3.747  21.422  0.00  0.00    +0.000 F 
ATOM     22  F   UNL     1       2.018   2.146  19.943  0.00  0.00    +0.000 F 
ENDBRANCH  17  19
TORSDOF 1
ENDMDL
MODEL 6
REMARK VINA RESULT:      -7.2      4.779      7.680
REMARK  Name = 
REMARK  2 active torsions:
REMARK  status: ('A' for Active; 'I' for Inactive)
REMARK    1  A    between atoms: C_1  and  C_2
REMARK    2  A    between atoms: C_17  and  C_18
REMARK                            x       y       z     vdW  Elec       q    Type
REMARK                         _______ _______ _______ _____ _____    ______ ____
ROOT
ATOM      1  C   UNL     1       2.071   5.074  20.653  0.00  0.00    +0.000 C 
ATOM      2  C   UNL     1       2.867   5.403  19.405  0.00  0.00    +0.000 A 
ATOM      3  N   UNL     1       3.525   4.411  18.884  0.00  0.00    +0.000 NA
ATOM      4  C   UNL     1       4.214   4.607  17.686  0.00  0.00    +0.000 A 
ATOM      5  C   UNL     1       4.794   3.501  17.055  0.00  0.00    +0.000 A 
ATOM      6  C   UNL     1       5.476   3.644  15.845  0.00  0.00    +0.000 A 
ATOM      7  C   UNL     1       5.590   4.905  15.263  0.00  0.00    +0.000 A 
ATOM      8  C   UNL     1       5.019   6.007  15.891  0.00  0.00    +0.000 A 
ATOM      9  F   UNL     1       5.133   7.200  15.290  0.00  0.00    +0.000 F 
ATOM     10  C   UNL     1       4.330   5.859  17.095  0.00  0.00    +0.000 A 
ATOM     11  C   UNL     1       3.696   6.992  17.782  0.00  0.00    +0.000 A 
ATOM     12  O   UNL     1       4.010   8.128  17.438  0.00  0.00    +0.000 OA
ATOM     13  N   UNL     1       2.845   6.668  18.844  0.00  0.00    +0.000 N 
ATOM     14  C   UNL     1       2.086   7.691  19.420  0.00  0.00    +0.000 A 
ATOM     15  N   UNL     1       1.661   7.776  20.665  0.00  0.00    +0.000 NA
ATOM     16  N   UNL     1       0.872   8.884  20.900  0.00  0.00    +0.000 NA
ATOM     17  C   UNL     1       0.672   9.593  19.806  0.00  0.00    +0.000 A 
ATOM     18  S   UNL     1       1.433   8.934  18.418  0.00  0.00    +0.000 S 
ENDROOT
BRANCH  17  19
ATOM     19  C   UNL     1      -0.139  10.838  19.683  0.00  0.00    +0.000 C 
ATOM     20  F   UNL     1       0.545  11.863  19.109  0.00  0.00    +0.000 F 
ATOM     21  F   UNL     1      -1.258  10.651  18.932  0.00  0.00    +0.000 F 
ATOM     22  F   UNL     1      -0.561  11.291  20.897  0.00  0.00    +0.000 F 
ENDBRANCH  17  19
TORSDOF 1
ENDMDL
MODEL 7
REMARK VINA RESULT:      -7.1      5.314      7.462
REMARK  Name = 
REMARK  2 active torsions:
REMARK  status: ('A' for Active; 'I' for Inactive)
REMARK    1  A    between atoms: C_1  and  C_2
REMARK    2  A    between atoms: C_17  and  C_18
REMARK                            x       y       z     vdW  Elec       q    Type
REMARK                         _______ _______ _______ _____ _____    ______ ____
ROOT
ATOM      1  C   UNL     1       1.621   9.296  17.541  0.00  0.00    +0.000 C 
ATOM      2  C   UNL     1       1.142   9.505  18.964  0.00  0.00    +0.000 A 
ATOM      3  N   UNL     1       0.435  10.577  19.163  0.00  0.00    +0.000 NA
ATOM      4  C   UNL     1      -0.118  10.803  20.425  0.00  0.00    +0.000 A 
ATOM      5  C   UNL     1      -0.998  11.877  20.591  0.00  0.00    +0.000 A 
ATOM      6  C   UNL     1      -1.591  12.130  21.830  0.00  0.00    +0.000 A 
ATOM      7  C   UNL     1      -1.296  11.309  22.916  0.00  0.00    +0.000 A 
ATOM      8  C   UNL     1      -0.417  10.243  22.754  0.00  0.00    +0.000 A 
ATOM      9  F   UNL     1      -0.173   9.464  23.818  0.00  0.00    +0.000 F 
ATOM     10  C   UNL     1       0.167   9.987  21.513  0.00  0.00    +0.000 A 
ATOM     11  C   UNL     1       1.085   8.863  21.293  0.00  0.00    +0.000 A 
ATOM     12  O   UNL     1       1.562   8.303  22.277  0.00  0.00    +0.000 OA
ATOM     13  N   UNL     1       1.407   8.584  19.960  0.00  0.00    +0.000 N 
ATOM     14  C   UNL     1       2.137   7.424  19.685  0.00  0.00    +0.000 A 
ATOM     15  N   UNL     1       2.973   7.215  18.687  0.00  0.00    +0.000 NA
ATOM     16  N   UNL     1       3.481   5.933  18.657  0.00  0.00    +0.000 NA
ATOM     17  C   UNL     1       2.975   5.174  19.610  0.00  0.00    +0.000 A 
ATOM     18  S   UNL     1       1.833   5.990  20.595  0.00  0.00    +0.000 S 
ENDROOT
BRANCH  17  19
ATOM     19  C   UNL     1       3.280   3.738  19.867  0.00  0.00    +0.000 C 
ATOM     20  F   UNL     1       2.888   3.324  21.100  0.00  0.00    +0.000 F 
ATOM     21  F   UNL     1       2.671   2.914  18.970  0.00  0.00    +0.000 F 
ATOM     22  F   UNL     1       4.615   3.479  19.781  0.00  0.00    +0.000 F 
ENDBRANCH  17  19
TORSDOF 1
ENDMDL
MODEL 8
REMARK VINA RESULT:      -7.0      5.698      7.758
REMARK  Name = 
REMARK  2 active torsions:
REMARK  status: ('A' for Active; 'I' for Inactive)
REMARK    1  A    between atoms: C_1  and  C_2
REMARK    2  A    between atoms: C_17  and  C_18
REMARK                            x       y       z     vdW  Elec       q    Type
REMARK                         _______ _______ _______ _____ _____    ______ ____
ROOT
ATOM      1  C   UNL     1       3.696   7.692  17.452  0.00  0.00    +0.000 C 
ATOM      2  C   UNL     1       3.336   6.579  18.416  0.00  0.00    +0.000 A 
ATOM      3  N   UNL     1       3.990   5.468  18.255  0.00  0.00    +0.000 NA
ATOM      4  C   UNL     1       3.784   4.420  19.154  0.00  0.00    +0.000 A 
ATOM      5  C   UNL     1       4.598   3.286  19.064  0.00  0.00    +0.000 A 
ATOM      6  C   UNL     1       4.441   2.221  19.954  0.00  0.00    +0.000 A 
ATOM      7  C   UNL     1       3.456   2.284  20.937  0.00  0.00    +0.000 A 
ATOM      8  C   UNL     1       2.642   3.408  21.025  0.00  0.00    +0.000 A 
ATOM      9  F   UNL     1       1.719   3.440  21.997  0.00  0.00    +0.000 F 
ATOM     10  C   UNL     1       2.808   4.475  20.140  0.00  0.00    +0.000 A 
ATOM     11  C   UNL     1       1.983   5.688  20.210  0.00  0.00    +0.000 A 
ATOM     12  O   UNL     1       0.952   5.652  20.877  0.00  0.00    +0.000 OA
ATOM     13  N   UNL     1       2.408   6.765  19.424  0.00  0.00    +0.000 N 
ATOM     14  C   UNL     1       1.762   7.995  19.582  0.00  0.00    +0.000 A 
ATOM     15  N   UNL     1       1.596   8.940  18.678  0.00  0.00    +0.000 NA
ATOM     16  N   UNL     1       0.973  10.067  19.173  0.00  0.00    +0.000 NA
ATOM     17  C   UNL     1       0.726   9.974  20.464  0.00  0.00    +0.000 A 
ATOM     18  S   UNL     1       1.255   8.495  21.154  0.00  0.00    +0.000 S 
ENDROOT
BRANCH  17  19
ATOM     19  C   UNL     1       0.083  11.004  21.330  0.00  0.00    +0.000 C 
ATOM     20  F   UNL     1      -1.182  11.310  20.940  0.00  0.00    +0.000 F 
ATOM     21  F   UNL     1       0.003  10.607  22.629  0.00  0.00    +0.000 F 
ATOM     22  F   UNL     1       0.779  12.175  21.328  0.00  0.00    +0.000 F 
ENDBRANCH  17  19
TORSDOF 1
ENDMDL
