MODEL 1
REMARK VINA RESULT:      -6.9      0.000      0.000
REMARK  Name = 
REMARK  17 active torsions:
REMARK  status: ('A' for Active; 'I' for Inactive)
REMARK    1  A    between atoms: C_1  and  C_2
REMARK    2  A    between atoms: C_5  and  S_6
REMARK    3  A    between atoms: S_6  and  N_9
REMARK    4  A    between atoms: N_9  and  C_10
REMARK    5  A    between atoms: N_9  and  C_14
REMARK    6  A    between atoms: C_10  and  C_11
REMARK    7  A    between atoms: C_11  and  C_12
REMARK    8  A    between atoms: C_11  and  C_13
REMARK    9  A    between atoms: C_14  and  C_15
REMARK   10  A    between atoms: C_14  and  C_30
REMARK   11  A    between atoms: C_15  and  C_16
REMARK   12  A    between atoms: C_16  and  C_17
REMARK   13  A    between atoms: C_17  and  C_18
REMARK   14  A    between atoms: C_18  and  N_19
REMARK   15  A    between atoms: C_20  and  C_22
REMARK   16  A    between atoms: C_23  and  C_24
REMARK   17  A    between atoms: C_30  and  O_32
REMARK                            x       y       z     vdW  Elec       q    Type
REMARK                         _______ _______ _______ _____ _____    ______ ____
ROOT
ATOM      1  C   UNL     1       4.203   5.948  18.528  0.00  0.00    +0.000 C 
ENDROOT
BRANCH   1   2
ATOM      2  C   UNL     1       4.269   5.627  17.031  0.00  0.00    +0.000 C 
ATOM      3  O   UNL     1       4.041   4.529  16.545  0.00  0.00    +0.000 OA
BRANCH   2   4
ATOM      4  O   UNL     1       4.545   6.716  16.266  0.00  0.00    +0.000 OA
ATOM      5  H   UNL     1       3.728   7.247  16.139  0.00  0.00    +0.000 HD
ENDBRANCH   2   4
ENDBRANCH   1   2
BRANCH   1   6
ATOM      6  N   UNL     1       2.748   6.272  18.962  0.00  0.00    +0.000 NA
BRANCH   6   7
ATOM      7  S   UNL     1       2.159   7.806  18.409  0.00  0.00    +0.000 S 
ATOM      8  O   UNL     1       1.111   7.566  17.444  0.00  0.00    +0.000 OA
ATOM      9  O   UNL     1       3.337   8.567  18.024  0.00  0.00    +0.000 OA
BRANCH   7  14
ATOM     10  C   UNL     1      -0.892  10.442  22.984  0.00  0.00    +0.000 C 
ATOM     11  C   UNL     1       0.017   9.888  21.917  0.00  0.00    +0.000 A 
ATOM     12  C   UNL     1       0.026  10.444  20.634  0.00  0.00    +0.000 A 
ATOM     13  C   UNL     1       0.751   9.844  19.599  0.00  0.00    +0.000 A 
ATOM     14  C   UNL     1       1.466   8.670  19.826  0.00  0.00    +0.000 A 
ATOM     15  C   UNL     1       1.483   8.116  21.114  0.00  0.00    +0.000 A 
ATOM     16  C   UNL     1       0.772   8.730  22.157  0.00  0.00    +0.000 A 
ENDBRANCH   7  14
ENDBRANCH   6   7
BRANCH   6  17
ATOM     17  C   UNL     1       1.797   5.089  18.836  0.00  0.00    +0.000 C 
BRANCH  17  18
ATOM     18  C   UNL     1       1.218   4.460  20.115  0.00  0.00    +0.000 C 
ATOM     19  C   UNL     1       0.870   2.986  19.837  0.00  0.00    +0.000 C 
ATOM     20  C   UNL     1       2.152   4.434  21.319  0.00  0.00    +0.000 C 
ENDBRANCH  17  18
ENDBRANCH   6  17
ENDBRANCH   1   6
BRANCH   1  21
ATOM     21  C   UNL     1       4.919   4.774  19.262  0.00  0.00    +0.000 C 
BRANCH  21  22
ATOM     22  C   UNL     1       6.447   4.914  19.387  0.00  0.00    +0.000 C 
BRANCH  22  23
ATOM     23  C   UNL     1       7.283   4.564  18.150  0.00  0.00    +0.000 C 
BRANCH  23  24
ATOM     24  C   UNL     1       7.576   5.724  17.202  0.00  0.00    +0.000 C 
BRANCH  24  25
ATOM     25  N   UNL     1       8.197   6.831  17.910  0.00  0.00    +0.000 N 
ATOM     26  C   UNL     1       7.792   8.135  17.748  0.00  0.00    +0.000 C 
ATOM     27  O   UNL     1       6.853   8.494  17.052  0.00  0.00    +0.000 OA
ATOM     28  H   UNL     1       9.008   6.625  18.476  0.00  0.00    +0.000 HD
BRANCH  26  29
ATOM     29  C   UNL     1       8.647   9.088  18.510  0.00  0.00    +0.000 C 
ATOM     30  C   UNL     1       8.892  10.328  18.055  0.00  0.00    +0.000 C 
BRANCH  30  31
ATOM     31  C   UNL     1       9.780  11.290  18.734  0.00  0.00    +0.000 A 
ATOM     32  C   UNL     1      10.723  11.995  17.973  0.00  0.00    +0.000 A 
ATOM     33  C   UNL     1      11.600  12.900  18.578  0.00  0.00    +0.000 A 
ATOM     34  C   UNL     1      11.537  13.122  19.952  0.00  0.00    +0.000 A 
ATOM     35  C   UNL     1      10.587  12.451  20.717  0.00  0.00    +0.000 A 
ATOM     36  C   UNL     1       9.708  11.549  20.111  0.00  0.00    +0.000 A 
ENDBRANCH  30  31
ENDBRANCH  26  29
ENDBRANCH  24  25
ENDBRANCH  23  24
ENDBRANCH  22  23
ENDBRANCH  21  22
ENDBRANCH   1  21
TORSDOF 14
ENDMDL
MODEL 2
REMARK VINA RESULT:      -6.7      4.340      9.532
REMARK  Name = 
REMARK  17 active torsions:
REMARK  status: ('A' for Active; 'I' for Inactive)
REMARK    1  A    between atoms: C_1  and  C_2
REMARK    2  A    between atoms: C_5  and  S_6
REMARK    3  A    between atoms: S_6  and  N_9
REMARK    4  A    between atoms: N_9  and  C_10
REMARK    5  A    between atoms: N_9  and  C_14
REMARK    6  A    between atoms: C_10  and  C_11
REMARK    7  A    between atoms: C_11  and  C_12
REMARK    8  A    between atoms: C_11  and  C_13
REMARK    9  A    between atoms: C_14  and  C_15
REMARK   10  A    between atoms: C_14  and  C_30
REMARK   11  A    between atoms: C_15  and  C_16
REMARK   12  A    between atoms: C_16  and  C_17
REMARK   13  A    between atoms: C_17  and  C_18
REMARK   14  A    between atoms: C_18  and  N_19
REMARK   15  A    between atoms: C_20  and  C_22
REMARK   16  A    between atoms: C_23  and  C_24
REMARK   17  A    between atoms: C_30  and  O_32
REMARK                            x       y       z     vdW  Elec       q    Type
REMARK                         _______ _______ _______ _____ _____    ______ ____
ROOT
ATOM      1  C   UNL     1       9.853  11.673  19.275  0.00  0.00    +0.000 C 
ENDROOT
BRANCH   1   2
ATOM      2  C   UNL     1      11.384  11.643  19.228  0.00  0.00    +0.000 C 
ATOM      3  O   UNL     1      12.048  11.646  18.203  0.00  0.00    +0.000 OA
BRANCH   2   4
ATOM      4  O   UNL     1      11.953  11.683  20.461  0.00  0.00    +0.000 OA
ATOM      5  H   UNL     1      11.395  12.217  21.067  0.00  0.00    +0.000 HD
ENDBRANCH   2   4
ENDBRANCH   1   2
BRANCH   1   6
ATOM      6  N   UNL     1       9.334  13.109  19.555  0.00  0.00    +0.000 NA
BRANCH   6   7
ATOM      7  S   UNL     1       9.484  13.618  21.205  0.00  0.00    +0.000 S 
ATOM      8  O   UNL     1      10.685  14.413  21.325  0.00  0.00    +0.000 OA
ATOM      9  O   UNL     1       9.331  12.414  22.006  0.00  0.00    +0.000 OA
BRANCH   7  14
ATOM     10  C   UNL     1       4.682  17.333  21.769  0.00  0.00    +0.000 C 
ATOM     11  C   UNL     1       5.853  16.386  21.821  0.00  0.00    +0.000 A 
ATOM     12  C   UNL     1       7.162  16.878  21.863  0.00  0.00    +0.000 A 
ATOM     13  C   UNL     1       8.256  16.013  21.759  0.00  0.00    +0.000 A 
ATOM     14  C   UNL     1       8.059  14.644  21.595  0.00  0.00    +0.000 A 
ATOM     15  C   UNL     1       6.753  14.136  21.574  0.00  0.00    +0.000 A 
ATOM     16  C   UNL     1       5.655  15.003  21.700  0.00  0.00    +0.000 A 
ENDBRANCH   7  14
ENDBRANCH   6   7
BRANCH   6  17
ATOM     17  C   UNL     1       9.736  14.120  18.488  0.00  0.00    +0.000 C 
BRANCH  17  18
ATOM     18  C   UNL     1       8.634  14.885  17.735  0.00  0.00    +0.000 C 
ATOM     19  C   UNL     1       7.295  14.149  17.921  0.00  0.00    +0.000 C 
ATOM     20  C   UNL     1       8.379  16.311  18.208  0.00  0.00    +0.000 C 
ENDBRANCH  17  18
ENDBRANCH   6  17
ENDBRANCH   1   6
BRANCH   1  21
ATOM     21  C   UNL     1       9.359  10.981  17.968  0.00  0.00    +0.000 C 
BRANCH  21  22
ATOM     22  C   UNL     1       8.150  10.044  18.140  0.00  0.00    +0.000 C 
BRANCH  22  23
ATOM     23  C   UNL     1       8.447   8.559  18.390  0.00  0.00    +0.000 C 
BRANCH  23  24
ATOM     24  C   UNL     1       7.811   7.584  17.404  0.00  0.00    +0.000 C 
BRANCH  24  25
ATOM     25  N   UNL     1       6.878   6.696  18.077  0.00  0.00    +0.000 N 
ATOM     26  C   UNL     1       6.878   5.334  17.882  0.00  0.00    +0.000 C 
ATOM     27  O   UNL     1       7.675   4.728  17.182  0.00  0.00    +0.000 OA
ATOM     28  H   UNL     1       6.158   7.122  18.644  0.00  0.00    +0.000 HD
BRANCH  26  29
ATOM     29  C   UNL     1       5.766   4.663  18.612  0.00  0.00    +0.000 C 
ATOM     30  C   UNL     1       4.492   5.064  18.468  0.00  0.00    +0.000 C 
BRANCH  30  31
ATOM     31  C   UNL     1       3.360   4.479  19.212  0.00  0.00    +0.000 A 
ATOM     32  C   UNL     1       3.197   3.086  19.211  0.00  0.00    +0.000 A 
ATOM     33  C   UNL     1       2.126   2.490  19.884  0.00  0.00    +0.000 A 
ATOM     34  C   UNL     1       1.210   3.278  20.577  0.00  0.00    +0.000 A 
ATOM     35  C   UNL     1       1.375   4.659  20.612  0.00  0.00    +0.000 A 
ATOM     36  C   UNL     1       2.448   5.255  19.943  0.00  0.00    +0.000 A 
ENDBRANCH  30  31
ENDBRANCH  26  29
ENDBRANCH  24  25
ENDBRANCH  23  24
ENDBRANCH  22  23
ENDBRANCH  21  22
ENDBRANCH   1  21
TORSDOF 14
ENDMDL
MODEL 3
REMARK VINA RESULT:      -6.6      4.268      7.610
REMARK  Name = 
REMARK  17 active torsions:
REMARK  status: ('A' for Active; 'I' for Inactive)
REMARK    1  A    between atoms: C_1  and  C_2
REMARK    2  A    between atoms: C_5  and  S_6
REMARK    3  A    between atoms: S_6  and  N_9
REMARK    4  A    between atoms: N_9  and  C_10
REMARK    5  A    between atoms: N_9  and  C_14
REMARK    6  A    between atoms: C_10  and  C_11
REMARK    7  A    between atoms: C_11  and  C_12
REMARK    8  A    between atoms: C_11  and  C_13
REMARK    9  A    between atoms: C_14  and  C_15
REMARK   10  A    between atoms: C_14  and  C_30
REMARK   11  A    between atoms: C_15  and  C_16
REMARK   12  A    between atoms: C_16  and  C_17
REMARK   13  A    between atoms: C_17  and  C_18
REMARK   14  A    between atoms: C_18  and  N_19
REMARK   15  A    between atoms: C_20  and  C_22
REMARK   16  A    between atoms: C_23  and  C_24
REMARK   17  A    between atoms: C_30  and  O_32
REMARK                            x       y       z     vdW  Elec       q    Type
REMARK                         _______ _______ _______ _____ _____    ______ ____
ROOT
ATOM      1  C   UNL     1       2.605   4.726  20.636  0.00  0.00    +0.000 C 
ENDROOT
BRANCH   1   2
ATOM      2  C   UNL     1       1.934   3.543  21.342  0.00  0.00    +0.000 C 
ATOM      3  O   UNL     1       2.382   2.979  22.330  0.00  0.00    +0.000 OA
BRANCH   2   4
ATOM      4  O   UNL     1       0.733   3.212  20.800  0.00  0.00    +0.000 OA
ATOM      5  H   UNL     1       0.750   3.375  19.832  0.00  0.00    +0.000 HD
ENDBRANCH   2   4
ENDBRANCH   1   2
BRANCH   1   6
ATOM      6  N   UNL     1       3.447   4.245  19.425  0.00  0.00    +0.000 NA
BRANCH   6   7
ATOM      7  S   UNL     1       4.612   5.395  18.857  0.00  0.00    +0.000 S 
ATOM      8  O   UNL     1       5.678   5.477  19.831  0.00  0.00    +0.000 OA
ATOM      9  O   UNL     1       3.856   6.588  18.511  0.00  0.00    +0.000 OA
BRANCH   7  14
ATOM     10  C   UNL     1       6.817   4.051  13.333  0.00  0.00    +0.000 C 
ATOM     11  C   UNL     1       6.280   4.193  14.734  0.00  0.00    +0.000 A 
ATOM     12  C   UNL     1       4.905   4.320  14.957  0.00  0.00    +0.000 A 
ATOM     13  C   UNL     1       4.410   4.602  16.233  0.00  0.00    +0.000 A 
ATOM     14  C   UNL     1       5.281   4.778  17.306  0.00  0.00    +0.000 A 
ATOM     15  C   UNL     1       6.660   4.631  17.099  0.00  0.00    +0.000 A 
ATOM     16  C   UNL     1       7.156   4.327  15.821  0.00  0.00    +0.000 A 
ENDBRANCH   7  14
ENDBRANCH   6   7
BRANCH   6  17
ATOM     17  C   UNL     1       3.915   2.799  19.545  0.00  0.00    +0.000 C 
BRANCH  17  18
ATOM     18  C   UNL     1       3.287   1.735  18.628  0.00  0.00    +0.000 C 
ATOM     19  C   UNL     1       2.173   2.388  17.790  0.00  0.00    +0.000 C 
ATOM     20  C   UNL     1       4.231   1.096  17.616  0.00  0.00    +0.000 C 
ENDBRANCH  17  18
ENDBRANCH   6  17
ENDBRANCH   1   6
BRANCH   1  21
ATOM     21  C   UNL     1       1.478   5.764  20.351  0.00  0.00    +0.000 C 
BRANCH  21  22
ATOM     22  C   UNL     1       1.723   7.173  20.924  0.00  0.00    +0.000 C 
BRANCH  22  23
ATOM     23  C   UNL     1       1.090   8.351  20.172  0.00  0.00    +0.000 C 
BRANCH  23  24
ATOM     24  C   UNL     1       0.763   9.576  21.022  0.00  0.00    +0.000 C 
BRANCH  24  25
ATOM     25  N   UNL     1       0.994  10.803  20.278  0.00  0.00    +0.000 N 
ATOM     26  C   UNL     1       0.029  11.384  19.489  0.00  0.00    +0.000 C 
ATOM     27  O   UNL     1      -1.117  10.975  19.370  0.00  0.00    +0.000 OA
ATOM     28  H   UNL     1       1.929  11.185  20.290  0.00  0.00    +0.000 HD
BRANCH  26  29
ATOM     29  C   UNL     1       0.544  12.578  18.761  0.00  0.00    +0.000 C 
ATOM     30  C   UNL     1       1.355  13.466  19.358  0.00  0.00    +0.000 C 
BRANCH  30  31
ATOM     31  C   UNL     1       1.844  14.696  18.708  0.00  0.00    +0.000 A 
ATOM     32  C   UNL     1       1.086  15.870  18.822  0.00  0.00    +0.000 A 
ATOM     33  C   UNL     1       1.500  17.054  18.204  0.00  0.00    +0.000 A 
ATOM     34  C   UNL     1       2.685  17.082  17.472  0.00  0.00    +0.000 A 
ATOM     35  C   UNL     1       3.463  15.933  17.373  0.00  0.00    +0.000 A 
ATOM     36  C   UNL     1       3.052  14.751  17.995  0.00  0.00    +0.000 A 
ENDBRANCH  30  31
ENDBRANCH  26  29
ENDBRANCH  24  25
ENDBRANCH  23  24
ENDBRANCH  22  23
ENDBRANCH  21  22
ENDBRANCH   1  21
TORSDOF 14
ENDMDL
MODEL 4
REMARK VINA RESULT:      -6.5      4.264      7.432
REMARK  Name = 
REMARK  17 active torsions:
REMARK  status: ('A' for Active; 'I' for Inactive)
REMARK    1  A    between atoms: C_1  and  C_2
REMARK    2  A    between atoms: C_5  and  S_6
REMARK    3  A    between atoms: S_6  and  N_9
REMARK    4  A    between atoms: N_9  and  C_10
REMARK    5  A    between atoms: N_9  and  C_14
REMARK    6  A    between atoms: C_10  and  C_11
REMARK    7  A    between atoms: C_11  and  C_12
REMARK    8  A    between atoms: C_11  and  C_13
REMARK    9  A    between atoms: C_14  and  C_15
REMARK   10  A    between atoms: C_14  and  C_30
REMARK   11  A    between atoms: C_15  and  C_16
REMARK   12  A    between atoms: C_16  and  C_17
REMARK   13  A    between atoms: C_17  and  C_18
REMARK   14  A    between atoms: C_18  and  N_19
REMARK   15  A    between atoms: C_20  and  C_22
REMARK   16  A    between atoms: C_23  and  C_24
REMARK   17  A    between atoms: C_30  and  O_32
REMARK                            x       y       z     vdW  Elec       q    Type
REMARK                         _______ _______ _______ _____ _____    ______ ____
ROOT
ATOM      1  C   UNL     1       2.751   4.795  20.152  0.00  0.00    +0.000 C 
ENDROOT
BRANCH   1   2
ATOM      2  C   UNL     1       2.016   3.687  19.391  0.00  0.00    +0.000 C 
ATOM      3  O   UNL     1       1.225   3.877  18.479  0.00  0.00    +0.000 OA
BRANCH   2   4
ATOM      4  O   UNL     1       2.384   2.439  19.783  0.00  0.00    +0.000 OA
ATOM      5  H   UNL     1       2.331   2.370  20.761  0.00  0.00    +0.000 HD
ENDBRANCH   2   4
ENDBRANCH   1   2
BRANCH   1   6
ATOM      6  N   UNL     1       3.892   5.398  19.291  0.00  0.00    +0.000 NA
BRANCH   6   7
ATOM      7  S   UNL     1       5.352   4.463  19.277  0.00  0.00    +0.000 S 
ATOM      8  O   UNL     1       5.068   3.172  19.859  0.00  0.00    +0.000 OA
ATOM      9  O   UNL     1       6.373   5.315  19.867  0.00  0.00    +0.000 OA
BRANCH   7  14
ATOM     10  C   UNL     1       6.547   4.320  13.298  0.00  0.00    +0.000 C 
ATOM     11  C   UNL     1       6.356   4.192  14.788  0.00  0.00    +0.000 A 
ATOM     12  C   UNL     1       5.180   3.641  15.308  0.00  0.00    +0.000 A 
ATOM     13  C   UNL     1       4.930   3.656  16.683  0.00  0.00    +0.000 A 
ATOM     14  C   UNL     1       5.842   4.238  17.561  0.00  0.00    +0.000 A 
ATOM     15  C   UNL     1       7.034   4.773  17.054  0.00  0.00    +0.000 A 
ATOM     16  C   UNL     1       7.296   4.739  15.675  0.00  0.00    +0.000 A 
ENDBRANCH   7  14
ENDBRANCH   6   7
BRANCH   6  17
ATOM     17  C   UNL     1       3.418   5.945  17.950  0.00  0.00    +0.000 C 
BRANCH  17  18
ATOM     18  C   UNL     1       3.836   7.368  17.537  0.00  0.00    +0.000 C 
ATOM     19  C   UNL     1       4.418   7.326  16.113  0.00  0.00    +0.000 C 
ATOM     20  C   UNL     1       2.713   8.396  17.484  0.00  0.00    +0.000 C 
ENDBRANCH  17  18
ENDBRANCH   6  17
ENDBRANCH   1   6
BRANCH   1  21
ATOM     21  C   UNL     1       1.655   5.775  20.668  0.00  0.00    +0.000 C 
BRANCH  21  22
ATOM     22  C   UNL     1       2.034   7.267  20.619  0.00  0.00    +0.000 C 
BRANCH  22  23
ATOM     23  C   UNL     1       1.256   8.215  21.541  0.00  0.00    +0.000 C 
BRANCH  23  24
ATOM     24  C   UNL     1       0.146   9.021  20.873  0.00  0.00    +0.000 C 
BRANCH  24  25
ATOM     25  N   UNL     1       0.665  10.253  20.304  0.00  0.00    +0.000 N 
ATOM     26  C   UNL     1       0.588  11.462  20.956  0.00  0.00    +0.000 C 
ATOM     27  O   UNL     1       0.134  11.622  22.080  0.00  0.00    +0.000 OA
ATOM     28  H   UNL     1       1.021  10.215  19.359  0.00  0.00    +0.000 HD
BRANCH  26  29
ATOM     29  C   UNL     1       1.105  12.583  20.122  0.00  0.00    +0.000 C 
ATOM     30  C   UNL     1       2.319  13.116  20.341  0.00  0.00    +0.000 C 
BRANCH  30  31
ATOM     31  C   UNL     1       2.857  14.265  19.590  0.00  0.00    +0.000 A 
ATOM     32  C   UNL     1       3.235  15.417  20.294  0.00  0.00    +0.000 A 
ATOM     33  C   UNL     1       3.729  16.539  19.621  0.00  0.00    +0.000 A 
ATOM     34  C   UNL     1       3.863  16.519  18.234  0.00  0.00    +0.000 A 
ATOM     35  C   UNL     1       3.518  15.373  17.524  0.00  0.00    +0.000 A 
ATOM     36  C   UNL     1       3.028  14.250  18.197  0.00  0.00    +0.000 A 
ENDBRANCH  30  31
ENDBRANCH  26  29
ENDBRANCH  24  25
ENDBRANCH  23  24
ENDBRANCH  22  23
ENDBRANCH  21  22
ENDBRANCH   1  21
TORSDOF 14
ENDMDL
MODEL 5
REMARK VINA RESULT:      -6.5      3.721      9.481
REMARK  Name = 
REMARK  17 active torsions:
REMARK  status: ('A' for Active; 'I' for Inactive)
REMARK    1  A    between atoms: C_1  and  C_2
REMARK    2  A    between atoms: C_5  and  S_6
REMARK    3  A    between atoms: S_6  and  N_9
REMARK    4  A    between atoms: N_9  and  C_10
REMARK    5  A    between atoms: N_9  and  C_14
REMARK    6  A    between atoms: C_10  and  C_11
REMARK    7  A    between atoms: C_11  and  C_12
REMARK    8  A    between atoms: C_11  and  C_13
REMARK    9  A    between atoms: C_14  and  C_15
REMARK   10  A    between atoms: C_14  and  C_30
REMARK   11  A    between atoms: C_15  and  C_16
REMARK   12  A    between atoms: C_16  and  C_17
REMARK   13  A    between atoms: C_17  and  C_18
REMARK   14  A    between atoms: C_18  and  N_19
REMARK   15  A    between atoms: C_20  and  C_22
REMARK   16  A    between atoms: C_23  and  C_24
REMARK   17  A    between atoms: C_30  and  O_32
REMARK                            x       y       z     vdW  Elec       q    Type
REMARK                         _______ _______ _______ _____ _____    ______ ____
ROOT
ATOM      1  C   UNL     1       3.336   6.123  18.312  0.00  0.00    +0.000 C 
ENDROOT
BRANCH   1   2
ATOM      2  C   UNL     1       2.883   5.725  19.721  0.00  0.00    +0.000 C 
ATOM      3  O   UNL     1       1.721   5.709  20.099  0.00  0.00    +0.000 OA
BRANCH   2   4
ATOM      4  O   UNL     1       3.909   5.314  20.512  0.00  0.00    +0.000 OA
ATOM      5  H   UNL     1       4.499   4.715  20.005  0.00  0.00    +0.000 HD
ENDBRANCH   2   4
ENDBRANCH   1   2
BRANCH   1   6
ATOM      6  N   UNL     1       3.654   4.868  17.456  0.00  0.00    +0.000 NA
BRANCH   6   7
ATOM      7  S   UNL     1       5.264   4.257  17.647  0.00  0.00    +0.000 S 
ATOM      8  O   UNL     1       5.574   3.433  16.501  0.00  0.00    +0.000 OA
ATOM      9  O   UNL     1       5.315   3.687  18.984  0.00  0.00    +0.000 OA
BRANCH   7  14
ATOM     10  C   UNL     1       8.500   9.400  18.170  0.00  0.00    +0.000 C 
ATOM     11  C   UNL     1       7.843   8.065  17.926  0.00  0.00    +0.000 A 
ATOM     12  C   UNL     1       6.828   7.939  16.971  0.00  0.00    +0.000 A 
ATOM     13  C   UNL     1       6.111   6.746  16.843  0.00  0.00    +0.000 A 
ATOM     14  C   UNL     1       6.385   5.664  17.678  0.00  0.00    +0.000 A 
ATOM     15  C   UNL     1       7.414   5.772  18.623  0.00  0.00    +0.000 A 
ATOM     16  C   UNL     1       8.148   6.963  18.737  0.00  0.00    +0.000 A 
ENDBRANCH   7  14
ENDBRANCH   6   7
BRANCH   6  17
ATOM     17  C   UNL     1       2.529   3.840  17.443  0.00  0.00    +0.000 C 
BRANCH  17  18
ATOM     18  C   UNL     1       2.456   2.803  18.578  0.00  0.00    +0.000 C 
ATOM     19  C   UNL     1       0.978   2.493  18.879  0.00  0.00    +0.000 C 
ATOM     20  C   UNL     1       3.099   1.454  18.282  0.00  0.00    +0.000 C 
ENDBRANCH  17  18
ENDBRANCH   6  17
ENDBRANCH   1   6
BRANCH   1  21
ATOM     21  C   UNL     1       2.255   7.104  17.764  0.00  0.00    +0.000 C 
BRANCH  21  22
ATOM     22  C   UNL     1       2.553   8.598  17.987  0.00  0.00    +0.000 C 
BRANCH  22  23
ATOM     23  C   UNL     1       1.584   9.375  18.888  0.00  0.00    +0.000 C 
BRANCH  23  24
ATOM     24  C   UNL     1       1.322  10.822  18.482  0.00  0.00    +0.000 C 
BRANCH  24  25
ATOM     25  N   UNL     1      -0.099  11.062  18.294  0.00  0.00    +0.000 N 
ATOM     26  C   UNL     1      -0.947  11.356  19.336  0.00  0.00    +0.000 C 
ATOM     27  O   UNL     1      -0.600  11.498  20.500  0.00  0.00    +0.000 OA
ATOM     28  H   UNL     1      -0.475  10.924  17.365  0.00  0.00    +0.000 HD
BRANCH  26  29
ATOM     29  C   UNL     1      -2.365  11.464  18.893  0.00  0.00    +0.000 C 
ATOM     30  C   UNL     1      -3.261  12.189  19.584  0.00  0.00    +0.000 C 
BRANCH  30  31
ATOM     31  C   UNL     1      -4.689  12.281  19.228  0.00  0.00    +0.000 A 
ATOM     32  C   UNL     1      -5.614  12.630  20.222  0.00  0.00    +0.000 A 
ATOM     33  C   UNL     1      -6.980  12.707  19.936  0.00  0.00    +0.000 A 
ATOM     34  C   UNL     1      -7.439  12.448  18.646  0.00  0.00    +0.000 A 
ATOM     35  C   UNL     1      -6.531  12.129  17.641  0.00  0.00    +0.000 A 
ATOM     36  C   UNL     1      -5.165  12.055  17.927  0.00  0.00    +0.000 A 
ENDBRANCH  30  31
ENDBRANCH  26  29
ENDBRANCH  24  25
ENDBRANCH  23  24
ENDBRANCH  22  23
ENDBRANCH  21  22
ENDBRANCH   1  21
TORSDOF 14
ENDMDL
MODEL 6
REMARK VINA RESULT:      -6.5      4.703      7.319
REMARK  Name = 
REMARK  17 active torsions:
REMARK  status: ('A' for Active; 'I' for Inactive)
REMARK    1  A    between atoms: C_1  and  C_2
REMARK    2  A    between atoms: C_5  and  S_6
REMARK    3  A    between atoms: S_6  and  N_9
REMARK    4  A    between atoms: N_9  and  C_10
REMARK    5  A    between atoms: N_9  and  C_14
REMARK    6  A    between atoms: C_10  and  C_11
REMARK    7  A    between atoms: C_11  and  C_12
REMARK    8  A    between atoms: C_11  and  C_13
REMARK    9  A    between atoms: C_14  and  C_15
REMARK   10  A    between atoms: C_14  and  C_30
REMARK   11  A    between atoms: C_15  and  C_16
REMARK   12  A    between atoms: C_16  and  C_17
REMARK   13  A    between atoms: C_17  and  C_18
REMARK   14  A    between atoms: C_18  and  N_19
REMARK   15  A    between atoms: C_20  and  C_22
REMARK   16  A    between atoms: C_23  and  C_24
REMARK   17  A    between atoms: C_30  and  O_32
REMARK                            x       y       z     vdW  Elec       q    Type
REMARK                         _______ _______ _______ _____ _____    ______ ____
ROOT
ATOM      1  C   UNL     1       1.210  10.999  19.311  0.00  0.00    +0.000 C 
ENDROOT
BRANCH   1   2
ATOM      2  C   UNL     1       1.907  12.256  18.780  0.00  0.00    +0.000 C 
ATOM      3  O   UNL     1       2.202  13.227  19.461  0.00  0.00    +0.000 OA
BRANCH   2   4
ATOM      4  O   UNL     1       2.239  12.165  17.466  0.00  0.00    +0.000 OA
ATOM      5  H   UNL     1       3.012  12.740  17.279  0.00  0.00    +0.000 HD
ENDBRANCH   2   4
ENDBRANCH   1   2
BRANCH   1   6
ATOM      6  N   UNL     1      -0.264  11.302  19.694  0.00  0.00    +0.000 NA
BRANCH   6   7
ATOM      7  S   UNL     1      -1.318  11.559  18.342  0.00  0.00    +0.000 S 
ATOM      8  O   UNL     1      -1.430  10.316  17.613  0.00  0.00    +0.000 OA
ATOM      9  O   UNL     1      -0.820  12.750  17.672  0.00  0.00    +0.000 OA
BRANCH   7  14
ATOM     10  C   UNL     1      -6.822  12.353  20.846  0.00  0.00    +0.000 C 
ATOM     11  C   UNL     1      -5.488  12.330  20.145  0.00  0.00    +0.000 A 
ATOM     12  C   UNL     1      -5.329  11.630  18.944  0.00  0.00    +0.000 A 
ATOM     13  C   UNL     1      -4.066  11.477  18.366  0.00  0.00    +0.000 A 
ATOM     14  C   UNL     1      -2.937  12.008  18.987  0.00  0.00    +0.000 A 
ATOM     15  C   UNL     1      -3.086  12.731  20.178  0.00  0.00    +0.000 A 
ATOM     16  C   UNL     1      -4.357  12.902  20.747  0.00  0.00    +0.000 A 
ENDBRANCH   7  14
ENDBRANCH   6   7
BRANCH   6  17
ATOM     17  C   UNL     1      -0.795  10.420  20.817  0.00  0.00    +0.000 C 
BRANCH  17  18
ATOM     18  C   UNL     1      -0.255  10.626  22.244  0.00  0.00    +0.000 C 
ATOM     19  C   UNL     1      -1.348  11.289  23.102  0.00  0.00    +0.000 C 
ATOM     20  C   UNL     1       0.132   9.356  22.992  0.00  0.00    +0.000 C 
ENDBRANCH  17  18
ENDBRANCH   6  17
ENDBRANCH   1   6
BRANCH   1  21
ATOM     21  C   UNL     1       1.454   9.881  18.254  0.00  0.00    +0.000 C 
BRANCH  21  22
ATOM     22  C   UNL     1       1.312   8.440  18.779  0.00  0.00    +0.000 C 
BRANCH  22  23
ATOM     23  C   UNL     1       2.603   7.712  19.176  0.00  0.00    +0.000 C 
BRANCH  23  24
ATOM     24  C   UNL     1       2.620   6.209  18.915  0.00  0.00    +0.000 C 
BRANCH  24  25
ATOM     25  N   UNL     1       3.545   5.876  17.845  0.00  0.00    +0.000 N 
ATOM     26  C   UNL     1       4.570   4.972  18.004  0.00  0.00    +0.000 C 
ATOM     27  O   UNL     1       4.779   4.325  19.020  0.00  0.00    +0.000 OA
ATOM     28  H   UNL     1       3.467   6.398  16.983  0.00  0.00    +0.000 HD
BRANCH  26  29
ATOM     29  C   UNL     1       5.430   4.880  16.792  0.00  0.00    +0.000 C 
ATOM     30  C   UNL     1       4.915   4.573  15.590  0.00  0.00    +0.000 C 
BRANCH  30  31
ATOM     31  C   UNL     1       5.725   4.406  14.369  0.00  0.00    +0.000 A 
ATOM     32  C   UNL     1       5.249   3.571  13.349  0.00  0.00    +0.000 A 
ATOM     33  C   UNL     1       5.995   3.366  12.183  0.00  0.00    +0.000 A 
ATOM     34  C   UNL     1       7.222   4.004  12.018  0.00  0.00    +0.000 A 
ATOM     35  C   UNL     1       7.695   4.859  13.009  0.00  0.00    +0.000 A 
ATOM     36  C   UNL     1       6.948   5.067  14.172  0.00  0.00    +0.000 A 
ENDBRANCH  30  31
ENDBRANCH  26  29
ENDBRANCH  24  25
ENDBRANCH  23  24
ENDBRANCH  22  23
ENDBRANCH  21  22
ENDBRANCH   1  21
TORSDOF 14
ENDMDL
MODEL 7
REMARK VINA RESULT:      -6.5      4.264      9.768
REMARK  Name = 
REMARK  17 active torsions:
REMARK  status: ('A' for Active; 'I' for Inactive)
REMARK    1  A    between atoms: C_1  and  C_2
REMARK    2  A    between atoms: C_5  and  S_6
REMARK    3  A    between atoms: S_6  and  N_9
REMARK    4  A    between atoms: N_9  and  C_10
REMARK    5  A    between atoms: N_9  and  C_14
REMARK    6  A    between atoms: C_10  and  C_11
REMARK    7  A    between atoms: C_11  and  C_12
REMARK    8  A    between atoms: C_11  and  C_13
REMARK    9  A    between atoms: C_14  and  C_15
REMARK   10  A    between atoms: C_14  and  C_30
REMARK   11  A    between atoms: C_15  and  C_16
REMARK   12  A    between atoms: C_16  and  C_17
REMARK   13  A    between atoms: C_17  and  C_18
REMARK   14  A    between atoms: C_18  and  N_19
REMARK   15  A    between atoms: C_20  and  C_22
REMARK   16  A    between atoms: C_23  and  C_24
REMARK   17  A    between atoms: C_30  and  O_32
REMARK                            x       y       z     vdW  Elec       q    Type
REMARK                         _______ _______ _______ _____ _____    ______ ____
ROOT
ATOM      1  C   UNL     1      10.553  12.562  18.406  0.00  0.00    +0.000 C 
ENDROOT
BRANCH   1   2
ATOM      2  C   UNL     1      11.335  13.252  17.284  0.00  0.00    +0.000 C 
ATOM      3  O   UNL     1      11.204  14.424  16.965  0.00  0.00    +0.000 OA
BRANCH   2   4
ATOM      4  O   UNL     1      12.260  12.442  16.705  0.00  0.00    +0.000 OA
ATOM      5  H   UNL     1      11.947  11.511  16.730  0.00  0.00    +0.000 HD
ENDBRANCH   2   4
ENDBRANCH   1   2
BRANCH   1   6
ATOM      6  N   UNL     1       9.586  13.557  19.103  0.00  0.00    +0.000 NA
BRANCH   6   7
ATOM      7  S   UNL     1      10.279  14.413  20.441  0.00  0.00    +0.000 S 
ATOM      8  O   UNL     1      10.103  15.829  20.212  0.00  0.00    +0.000 OA
ATOM      9  O   UNL     1      11.617  13.868  20.610  0.00  0.00    +0.000 OA
BRANCH   7  14
ATOM     10  C   UNL     1       7.901  12.538  25.734  0.00  0.00    +0.000 C 
ATOM     11  C   UNL     1       8.307  13.045  24.374  0.00  0.00    +0.000 A 
ATOM     12  C   UNL     1       8.540  12.150  23.324  0.00  0.00    +0.000 A 
ATOM     13  C   UNL     1       9.061  12.596  22.106  0.00  0.00    +0.000 A 
ATOM     14  C   UNL     1       9.373  13.942  21.922  0.00  0.00    +0.000 A 
ATOM     15  C   UNL     1       9.123  14.851  22.959  0.00  0.00    +0.000 A 
ATOM     16  C   UNL     1       8.580  14.406  24.174  0.00  0.00    +0.000 A 
ENDBRANCH   7  14
ENDBRANCH   6   7
BRANCH   6  17
ATOM     17  C   UNL     1       8.748  14.375  18.127  0.00  0.00    +0.000 C 
BRANCH  17  18
ATOM     18  C   UNL     1       7.346  14.839  18.558  0.00  0.00    +0.000 C 
ATOM     19  C   UNL     1       7.257  16.369  18.416  0.00  0.00    +0.000 C 
ATOM     20  C   UNL     1       6.187  14.289  17.735  0.00  0.00    +0.000 C 
ENDBRANCH  17  18
ENDBRANCH   6  17
ENDBRANCH   1   6
BRANCH   1  21
ATOM     21  C   UNL     1       9.924  11.280  17.780  0.00  0.00    +0.000 C 
BRANCH  21  22
ATOM     22  C   UNL     1       8.692  10.726  18.520  0.00  0.00    +0.000 C 
BRANCH  22  23
ATOM     23  C   UNL     1       8.589   9.201  18.657  0.00  0.00    +0.000 C 
BRANCH  23  24
ATOM     24  C   UNL     1       8.167   8.452  17.397  0.00  0.00    +0.000 C 
BRANCH  24  25
ATOM     25  N   UNL     1       6.966   7.669  17.632  0.00  0.00    +0.000 N 
ATOM     26  C   UNL     1       6.677   6.523  16.930  0.00  0.00    +0.000 C 
ATOM     27  O   UNL     1       7.405   6.017  16.089  0.00  0.00    +0.000 OA
ATOM     28  H   UNL     1       6.289   8.041  18.285  0.00  0.00    +0.000 HD
BRANCH  26  29
ATOM     29  C   UNL     1       5.345   5.962  17.293  0.00  0.00    +0.000 C 
ATOM     30  C   UNL     1       5.233   4.887  18.091  0.00  0.00    +0.000 C 
BRANCH  30  31
ATOM     31  C   UNL     1       3.947   4.252  18.433  0.00  0.00    +0.000 A 
ATOM     32  C   UNL     1       2.795   4.632  17.730  0.00  0.00    +0.000 A 
ATOM     33  C   UNL     1       1.551   4.073  18.036  0.00  0.00    +0.000 A 
ATOM     34  C   UNL     1       1.443   3.115  19.041  0.00  0.00    +0.000 A 
ATOM     35  C   UNL     1       2.581   2.706  19.729  0.00  0.00    +0.000 A 
ATOM     36  C   UNL     1       3.826   3.262  19.421  0.00  0.00    +0.000 A 
ENDBRANCH  30  31
ENDBRANCH  26  29
ENDBRANCH  24  25
ENDBRANCH  23  24
ENDBRANCH  22  23
ENDBRANCH  21  22
ENDBRANCH   1  21
TORSDOF 14
ENDMDL
MODEL 8
REMARK VINA RESULT:      -6.5      4.181      7.568
REMARK  Name = 
REMARK  17 active torsions:
REMARK  status: ('A' for Active; 'I' for Inactive)
REMARK    1  A    between atoms: C_1  and  C_2
REMARK    2  A    between atoms: C_5  and  S_6
REMARK    3  A    between atoms: S_6  and  N_9
REMARK    4  A    between atoms: N_9  and  C_10
REMARK    5  A    between atoms: N_9  and  C_14
REMARK    6  A    between atoms: C_10  and  C_11
REMARK    7  A    between atoms: C_11  and  C_12
REMARK    8  A    between atoms: C_11  and  C_13
REMARK    9  A    between atoms: C_14  and  C_15
REMARK   10  A    between atoms: C_14  and  C_30
REMARK   11  A    between atoms: C_15  and  C_16
REMARK   12  A    between atoms: C_16  and  C_17
REMARK   13  A    between atoms: C_17  and  C_18
REMARK   14  A    between atoms: C_18  and  N_19
REMARK   15  A    between atoms: C_20  and  C_22
REMARK   16  A    between atoms: C_23  and  C_24
REMARK   17  A    between atoms: C_30  and  O_32
REMARK                            x       y       z     vdW  Elec       q    Type
REMARK                         _______ _______ _______ _____ _____    ______ ____
ROOT
ATOM      1  C   UNL     1       2.866   4.444  20.180  0.00  0.00    +0.000 C 
ENDROOT
BRANCH   1   2
ATOM      2  C   UNL     1       1.880   3.662  19.306  0.00  0.00    +0.000 C 
ATOM      3  O   UNL     1       0.664   3.726  19.403  0.00  0.00    +0.000 OA
BRANCH   2   4
ATOM      4  O   UNL     1       2.493   2.926  18.343  0.00  0.00    +0.000 OA
ATOM      5  H   UNL     1       3.468   3.013  18.428  0.00  0.00    +0.000 HD
ENDBRANCH   2   4
ENDBRANCH   1   2
BRANCH   1   6
ATOM      6  N   UNL     1       3.872   5.241  19.307  0.00  0.00    +0.000 NA
BRANCH   6   7
ATOM      7  S   UNL     1       5.376   4.429  19.021  0.00  0.00    +0.000 S 
ATOM      8  O   UNL     1       5.222   3.044  19.404  0.00  0.00    +0.000 OA
ATOM      9  O   UNL     1       6.395   5.247  19.659  0.00  0.00    +0.000 OA
BRANCH   7  14
ATOM     10  C   UNL     1       7.024   4.101  13.159  0.00  0.00    +0.000 C 
ATOM     11  C   UNL     1       6.520   4.343  14.559  0.00  0.00    +0.000 A 
ATOM     12  C   UNL     1       7.339   4.959  15.511  0.00  0.00    +0.000 A 
ATOM     13  C   UNL     1       6.939   5.051  16.847  0.00  0.00    +0.000 A 
ATOM     14  C   UNL     1       5.720   4.515  17.258  0.00  0.00    +0.000 A 
ATOM     15  C   UNL     1       4.880   3.916  16.308  0.00  0.00    +0.000 A 
ATOM     16  C   UNL     1       5.274   3.842  14.963  0.00  0.00    +0.000 A 
ENDBRANCH   7  14
ENDBRANCH   6   7
BRANCH   6  17
ATOM     17  C   UNL     1       3.227   5.927  18.108  0.00  0.00    +0.000 C 
BRANCH  17  18
ATOM     18  C   UNL     1       3.521   7.416  17.855  0.00  0.00    +0.000 C 
ATOM     19  C   UNL     1       4.342   7.552  16.560  0.00  0.00    +0.000 C 
ATOM     20  C   UNL     1       2.300   8.305  17.654  0.00  0.00    +0.000 C 
ENDBRANCH  17  18
ENDBRANCH   6  17
ENDBRANCH   1   6
BRANCH   1  21
ATOM     21  C   UNL     1       2.006   5.256  21.195  0.00  0.00    +0.000 C 
BRANCH  21  22
ATOM     22  C   UNL     1       1.275   6.476  20.605  0.00  0.00    +0.000 C 
BRANCH  22  23
ATOM     23  C   UNL     1       1.652   7.854  21.167  0.00  0.00    +0.000 C 
BRANCH  23  24
ATOM     24  C   UNL     1       0.526   8.883  21.200  0.00  0.00    +0.000 C 
BRANCH  24  25
ATOM     25  N   UNL     1       0.896  10.084  20.470  0.00  0.00    +0.000 N 
ATOM     26  C   UNL     1       0.070  10.671  19.539  0.00  0.00    +0.000 C 
ATOM     27  O   UNL     1      -1.059  10.290  19.268  0.00  0.00    +0.000 OA
ATOM     28  H   UNL     1       1.832  10.441  20.606  0.00  0.00    +0.000 HD
BRANCH  26  29
ATOM     29  C   UNL     1       0.719  11.831  18.867  0.00  0.00    +0.000 C 
ATOM     30  C   UNL     1       1.299  12.816  19.573  0.00  0.00    +0.000 C 
BRANCH  30  31
ATOM     31  C   UNL     1       1.900  14.017  18.964  0.00  0.00    +0.000 A 
ATOM     32  C   UNL     1       1.206  15.233  19.037  0.00  0.00    +0.000 A 
ATOM     33  C   UNL     1       1.728  16.392  18.455  0.00  0.00    +0.000 A 
ATOM     34  C   UNL     1       2.957  16.353  17.801  0.00  0.00    +0.000 A 
ATOM     35  C   UNL     1       3.671  15.161  17.744  0.00  0.00    +0.000 A 
ATOM     36  C   UNL     1       3.152  14.003  18.330  0.00  0.00    +0.000 A 
ENDBRANCH  30  31
ENDBRANCH  26  29
ENDBRANCH  24  25
ENDBRANCH  23  24
ENDBRANCH  22  23
ENDBRANCH  21  22
ENDBRANCH   1  21
TORSDOF 14
ENDMDL
MODEL 9
REMARK VINA RESULT:      -6.4      4.762      7.063
REMARK  Name = 
REMARK  17 active torsions:
REMARK  status: ('A' for Active; 'I' for Inactive)
REMARK    1  A    between atoms: C_1  and  C_2
REMARK    2  A    between atoms: C_5  and  S_6
REMARK    3  A    between atoms: S_6  and  N_9
REMARK    4  A    between atoms: N_9  and  C_10
REMARK    5  A    between atoms: N_9  and  C_14
REMARK    6  A    between atoms: C_10  and  C_11
REMARK    7  A    between atoms: C_11  and  C_12
REMARK    8  A    between atoms: C_11  and  C_13
REMARK    9  A    between atoms: C_14  and  C_15
REMARK   10  A    between atoms: C_14  and  C_30
REMARK   11  A    between atoms: C_15  and  C_16
REMARK   12  A    between atoms: C_16  and  C_17
REMARK   13  A    between atoms: C_17  and  C_18
REMARK   14  A    between atoms: C_18  and  N_19
REMARK   15  A    between atoms: C_20  and  C_22
REMARK   16  A    between atoms: C_23  and  C_24
REMARK   17  A    between atoms: C_30  and  O_32
REMARK                            x       y       z     vdW  Elec       q    Type
REMARK                         _______ _______ _______ _____ _____    ______ ____
ROOT
ATOM      1  C   UNL     1       1.223  10.119  19.297  0.00  0.00    +0.000 C 
ENDROOT
BRANCH   1   2
ATOM      2  C   UNL     1       1.499  11.608  19.064  0.00  0.00    +0.000 C 
ATOM      3  O   UNL     1       1.595  12.444  19.950  0.00  0.00    +0.000 OA
BRANCH   2   4
ATOM      4  O   UNL     1       1.700  11.912  17.755  0.00  0.00    +0.000 OA
ATOM      5  H   UNL     1       1.576  12.876  17.616  0.00  0.00    +0.000 HD
ENDBRANCH   2   4
ENDBRANCH   1   2
BRANCH   1   6
ATOM      6  N   UNL     1      -0.113   9.915  20.062  0.00  0.00    +0.000 NA
BRANCH   6   7
ATOM      7  S   UNL     1       0.029   9.991  21.788  0.00  0.00    +0.000 S 
ATOM      8  O   UNL     1       1.429  10.125  22.121  0.00  0.00    +0.000 OA
ATOM      9  O   UNL     1      -0.731   8.860  22.297  0.00  0.00    +0.000 OA
BRANCH   7  14
ATOM     10  C   UNL     1      -2.653  14.803  24.402  0.00  0.00    +0.000 C 
ATOM     11  C   UNL     1      -2.088  13.662  23.596  0.00  0.00    +0.000 A 
ATOM     12  C   UNL     1      -2.629  12.377  23.710  0.00  0.00    +0.000 A 
ATOM     13  C   UNL     1      -2.020  11.285  23.084  0.00  0.00    +0.000 A 
ATOM     14  C   UNL     1      -0.850  11.457  22.347  0.00  0.00    +0.000 A 
ATOM     15  C   UNL     1      -0.311  12.743  22.206  0.00  0.00    +0.000 A 
ATOM     16  C   UNL     1      -0.935  13.842  22.818  0.00  0.00    +0.000 A 
ENDBRANCH   7  14
ENDBRANCH   6   7
BRANCH   6  17
ATOM     17  C   UNL     1      -1.290  10.657  19.440  0.00  0.00    +0.000 C 
BRANCH  17  18
ATOM     18  C   UNL     1      -1.585  10.462  17.942  0.00  0.00    +0.000 C 
ATOM     19  C   UNL     1      -2.865   9.620  17.788  0.00  0.00    +0.000 C 
ATOM     20  C   UNL     1      -1.842  11.737  17.148  0.00  0.00    +0.000 C 
ENDBRANCH  17  18
ENDBRANCH   6  17
ENDBRANCH   1   6
BRANCH   1  21
ATOM     21  C   UNL     1       1.361   9.423  17.909  0.00  0.00    +0.000 C 
BRANCH  21  22
ATOM     22  C   UNL     1       1.546   7.895  17.958  0.00  0.00    +0.000 C 
BRANCH  22  23
ATOM     23  C   UNL     1       2.599   7.351  18.931  0.00  0.00    +0.000 C 
BRANCH  23  24
ATOM     24  C   UNL     1       2.648   5.832  19.068  0.00  0.00    +0.000 C 
BRANCH  24  25
ATOM     25  N   UNL     1       3.431   5.237  17.997  0.00  0.00    +0.000 N 
ATOM     26  C   UNL     1       4.798   5.100  18.065  0.00  0.00    +0.000 C 
ATOM     27  O   UNL     1       5.484   5.406  19.029  0.00  0.00    +0.000 OA
ATOM     28  H   UNL     1       2.944   4.993  17.146  0.00  0.00    +0.000 HD
BRANCH  26  29
ATOM     29  C   UNL     1       5.370   4.549  16.804  0.00  0.00    +0.000 C 
ATOM     30  C   UNL     1       5.607   5.335  15.741  0.00  0.00    +0.000 C 
BRANCH  30  31
ATOM     31  C   UNL     1       6.113   4.835  14.449  0.00  0.00    +0.000 A 
ATOM     32  C   UNL     1       5.342   3.908  13.733  0.00  0.00    +0.000 A 
ATOM     33  C   UNL     1       5.792   3.390  12.515  0.00  0.00    +0.000 A 
ATOM     34  C   UNL     1       7.014   3.802  11.990  0.00  0.00    +0.000 A 
ATOM     35  C   UNL     1       7.778   4.743  12.674  0.00  0.00    +0.000 A 
ATOM     36  C   UNL     1       7.326   5.264  13.889  0.00  0.00    +0.000 A 
ENDBRANCH  30  31
ENDBRANCH  26  29
ENDBRANCH  24  25
ENDBRANCH  23  24
ENDBRANCH  22  23
ENDBRANCH  21  22
ENDBRANCH   1  21
TORSDOF 14
ENDMDL
