MODEL 1
REMARK VINA RESULT:      -7.7      0.000      0.000
REMARK  Name = 
REMARK  7 active torsions:
REMARK  status: ('A' for Active; 'I' for Inactive)
REMARK    1  A    between atoms: C_1  and  C_2
REMARK    2  A    between atoms: C_2  and  N_3
REMARK    3  A    between atoms: N_3  and  C_4
REMARK    4  A    between atoms: C_4  and  C_5
REMARK    5  A    between atoms: N_12  and  C_13
REMARK    6  A    between atoms: C_19  and  O_20
REMARK    7  A    between atoms: O_20  and  C_21
REMARK                            x       y       z     vdW  Elec       q    Type
REMARK                         _______ _______ _______ _____ _____    ______ ____
ROOT
ATOM      1  N   UNL     1       6.944   5.201  17.964  0.00  0.00    +0.000 N 
ATOM      2  C   UNL     1       5.639   5.018  18.423  0.00  0.00    +0.000 C 
ATOM      3  O   UNL     1       5.103   5.825  19.184  0.00  0.00    +0.000 OA
ATOM      4  N   UNL     1       5.031   3.841  18.018  0.00  0.00    +0.000 N 
ATOM      5  H   UNL     1       5.650   3.064  18.213  0.00  0.00    +0.000 HD
ENDROOT
BRANCH   4   6
ATOM      6  C   UNL     1       3.704   3.593  18.475  0.00  0.00    +0.000 A 
ATOM      7  C   UNL     1       2.641   3.953  17.652  0.00  0.00    +0.000 A 
ATOM      8  C   UNL     1       1.334   3.767  18.093  0.00  0.00    +0.000 A 
ATOM      9  C   UNL     1       1.116   3.257  19.369  0.00  0.00    +0.000 A 
ATOM     10  C   UNL     1       2.187   2.897  20.209  0.00  0.00    +0.000 A 
ATOM     11 CL   UNL     1       1.705   2.323  21.769  0.00  0.00    +0.000 Cl
ATOM     12  C   UNL     1       3.509   3.035  19.761  0.00  0.00    +0.000 A 
BRANCH  12  13
ATOM     13  O   UNL     1       4.692   2.720  20.380  0.00  0.00    +0.000 OA
ATOM     14  C   UNL     1       4.990   1.378  20.725  0.00  0.00    +0.000 C 
ENDBRANCH  12  13
ENDBRANCH   4   6
BRANCH   1  16
ATOM     15  C   UNL     1       7.627   7.568  17.593  0.00  0.00    +0.000 C 
ATOM     16  C   UNL     1       7.677   6.346  18.506  0.00  0.00    +0.000 C 
ENDBRANCH   1  16
BRANCH   1  17
ATOM     17  C   UNL     1       7.524   4.488  16.815  0.00  0.00    +0.000 C 
BRANCH  17  18
ATOM     18  C   UNL     1       6.888   4.786  15.441  0.00  0.00    +0.000 C 
ATOM     19  C   UNL     1       6.220   3.626  14.720  0.00  0.00    +0.000 C 
ATOM     20  C   UNL     1       6.135   4.175  13.313  0.00  0.00    +0.000 C 
ATOM     21  C   UNL     1       7.462   4.896  13.184  0.00  0.00    +0.000 C 
ATOM     22  O   UNL     1       7.818   5.351  14.499  0.00  0.00    +0.000 OA
ENDBRANCH  17  18
ENDBRANCH   1  17
TORSDOF 5
ENDMDL
MODEL 2
REMARK VINA RESULT:      -7.1      1.241      2.139
REMARK  Name = 
REMARK  7 active torsions:
REMARK  status: ('A' for Active; 'I' for Inactive)
REMARK    1  A    between atoms: C_1  and  C_2
REMARK    2  A    between atoms: C_2  and  N_3
REMARK    3  A    between atoms: N_3  and  C_4
REMARK    4  A    between atoms: C_4  and  C_5
REMARK    5  A    between atoms: N_12  and  C_13
REMARK    6  A    between atoms: C_19  and  O_20
REMARK    7  A    between atoms: O_20  and  C_21
REMARK                            x       y       z     vdW  Elec       q    Type
REMARK                         _______ _______ _______ _____ _____    ______ ____
ROOT
ATOM      1  N   UNL     1       7.160   5.164  18.319  0.00  0.00    +0.000 N 
ATOM      2  C   UNL     1       5.989   4.849  19.009  0.00  0.00    +0.000 C 
ATOM      3  O   UNL     1       5.498   5.621  19.834  0.00  0.00    +0.000 OA
ATOM      4  N   UNL     1       5.472   3.590  18.748  0.00  0.00    +0.000 N 
ATOM      5  H   UNL     1       6.208   2.903  18.849  0.00  0.00    +0.000 HD
ENDROOT
BRANCH   4   6
ATOM      6  C   UNL     1       4.287   3.207  19.443  0.00  0.00    +0.000 A 
ATOM      7  C   UNL     1       4.416   2.498  20.633  0.00  0.00    +0.000 A 
ATOM      8  C   UNL     1       3.277   2.069  21.307  0.00  0.00    +0.000 A 
ATOM      9  C   UNL     1       2.026   2.328  20.756  0.00  0.00    +0.000 A 
ATOM     10  C   UNL     1       1.889   3.040  19.548  0.00  0.00    +0.000 A 
ATOM     11 CL   UNL     1       0.254   3.221  19.012  0.00  0.00    +0.000 Cl
ATOM     12  C   UNL     1       3.027   3.519  18.881  0.00  0.00    +0.000 A 
BRANCH  12  13
ATOM     13  O   UNL     1       3.133   4.257  17.730  0.00  0.00    +0.000 OA
ATOM     14  C   UNL     1       2.684   5.600  17.690  0.00  0.00    +0.000 C 
ENDBRANCH  12  13
ENDBRANCH   4   6
BRANCH   1  16
ATOM     15  C   UNL     1       7.621   7.525  17.668  0.00  0.00    +0.000 C 
ATOM     16  C   UNL     1       7.827   6.413  18.692  0.00  0.00    +0.000 C 
ENDBRANCH   1  16
BRANCH   1  17
ATOM     17  C   UNL     1       7.614   4.474  17.102  0.00  0.00    +0.000 C 
BRANCH  17  18
ATOM     18  C   UNL     1       6.825   4.781  15.812  0.00  0.00    +0.000 C 
ATOM     19  C   UNL     1       5.993   3.654  15.223  0.00  0.00    +0.000 C 
ATOM     20  C   UNL     1       5.762   4.173  13.821  0.00  0.00    +0.000 C 
ATOM     21  C   UNL     1       7.105   4.795  13.497  0.00  0.00    +0.000 C 
ATOM     22  O   UNL     1       7.660   5.256  14.739  0.00  0.00    +0.000 OA
ENDBRANCH  17  18
ENDBRANCH   1  17
TORSDOF 5
ENDMDL
MODEL 3
REMARK VINA RESULT:      -7.0      0.973      1.132
REMARK  Name = 
REMARK  7 active torsions:
REMARK  status: ('A' for Active; 'I' for Inactive)
REMARK    1  A    between atoms: C_1  and  C_2
REMARK    2  A    between atoms: C_2  and  N_3
REMARK    3  A    between atoms: N_3  and  C_4
REMARK    4  A    between atoms: C_4  and  C_5
REMARK    5  A    between atoms: N_12  and  C_13
REMARK    6  A    between atoms: C_19  and  O_20
REMARK    7  A    between atoms: O_20  and  C_21
REMARK                            x       y       z     vdW  Elec       q    Type
REMARK                         _______ _______ _______ _____ _____    ______ ____
ROOT
ATOM      1  N   UNL     1       5.760   5.297  16.732  0.00  0.00    +0.000 N 
ATOM      2  C   UNL     1       4.589   5.049  17.448  0.00  0.00    +0.000 C 
ATOM      3  O   UNL     1       3.952   5.960  17.979  0.00  0.00    +0.000 OA
ATOM      4  N   UNL     1       4.246   3.712  17.574  0.00  0.00    +0.000 N 
ATOM      5  H   UNL     1       5.050   3.194  17.904  0.00  0.00    +0.000 HD
ENDROOT
BRANCH   4   6
ATOM      6  C   UNL     1       3.070   3.400  18.315  0.00  0.00    +0.000 A 
ATOM      7  C   UNL     1       1.834   3.550  17.692  0.00  0.00    +0.000 A 
ATOM      8  C   UNL     1       0.667   3.299  18.406  0.00  0.00    +0.000 A 
ATOM      9  C   UNL     1       0.757   2.937  19.747  0.00  0.00    +0.000 A 
ATOM     10  C   UNL     1       2.005   2.790  20.385  0.00  0.00    +0.000 A 
ATOM     11 CL   UNL     1       1.900   2.375  22.062  0.00  0.00    +0.000 Cl
ATOM     12  C   UNL     1       3.191   2.994  19.665  0.00  0.00    +0.000 A 
BRANCH  12  13
ATOM     13  O   UNL     1       4.499   2.873  20.060  0.00  0.00    +0.000 OA
ATOM     14  C   UNL     1       4.987   1.645  20.573  0.00  0.00    +0.000 C 
ENDBRANCH  12  13
ENDBRANCH   4   6
BRANCH   1  16
ATOM     15  C   UNL     1       7.444   6.894  17.639  0.00  0.00    +0.000 C 
ATOM     16  C   UNL     1       6.244   6.679  16.721  0.00  0.00    +0.000 C 
ENDBRANCH   1  16
BRANCH   1  17
ATOM     17  C   UNL     1       6.379   4.339  15.802  0.00  0.00    +0.000 C 
BRANCH  17  18
ATOM     18  C   UNL     1       6.547   4.818  14.346  0.00  0.00    +0.000 C 
ATOM     19  C   UNL     1       6.474   3.762  13.255  0.00  0.00    +0.000 C 
ATOM     20  C   UNL     1       7.100   4.504  12.095  0.00  0.00    +0.000 C 
ATOM     21  C   UNL     1       8.220   5.259  12.782  0.00  0.00    +0.000 C 
ATOM     22  O   UNL     1       7.780   5.527  14.122  0.00  0.00    +0.000 OA
ENDBRANCH  17  18
ENDBRANCH   1  17
TORSDOF 5
ENDMDL
MODEL 4
REMARK VINA RESULT:      -6.9      1.738      3.169
REMARK  Name = 
REMARK  7 active torsions:
REMARK  status: ('A' for Active; 'I' for Inactive)
REMARK    1  A    between atoms: C_1  and  C_2
REMARK    2  A    between atoms: C_2  and  N_3
REMARK    3  A    between atoms: N_3  and  C_4
REMARK    4  A    between atoms: C_4  and  C_5
REMARK    5  A    between atoms: N_12  and  C_13
REMARK    6  A    between atoms: C_19  and  O_20
REMARK    7  A    between atoms: O_20  and  C_21
REMARK                            x       y       z     vdW  Elec       q    Type
REMARK                         _______ _______ _______ _____ _____    ______ ____
ROOT
ATOM      1  N   UNL     1       5.607   4.576  16.211  0.00  0.00    +0.000 N 
ATOM      2  C   UNL     1       4.480   4.551  17.032  0.00  0.00    +0.000 C 
ATOM      3  O   UNL     1       3.349   4.391  16.570  0.00  0.00    +0.000 OA
ATOM      4  N   UNL     1       4.723   4.787  18.376  0.00  0.00    +0.000 N 
ATOM      5  H   UNL     1       5.282   5.625  18.468  0.00  0.00    +0.000 HD
ENDROOT
BRANCH   4   6
ATOM      6  C   UNL     1       3.603   4.794  19.257  0.00  0.00    +0.000 A 
ATOM      7  C   UNL     1       2.936   5.997  19.473  0.00  0.00    +0.000 A 
ATOM      8  C   UNL     1       1.869   6.043  20.364  0.00  0.00    +0.000 A 
ATOM      9  C   UNL     1       1.512   4.889  21.055  0.00  0.00    +0.000 A 
ATOM     10  C   UNL     1       2.188   3.670  20.846  0.00  0.00    +0.000 A 
ATOM     11 CL   UNL     1       1.619   2.366  21.831  0.00  0.00    +0.000 Cl
ATOM     12  C   UNL     1       3.234   3.597  19.915  0.00  0.00    +0.000 A 
BRANCH  12  13
ATOM     13  O   UNL     1       4.000   2.527  19.525  0.00  0.00    +0.000 OA
ATOM     14  C   UNL     1       3.453   1.513  18.700  0.00  0.00    +0.000 C 
ENDBRANCH  12  13
ENDBRANCH   4   6
BRANCH   1  16
ATOM     15  C   UNL     1       6.610   4.070  13.987  0.00  0.00    +0.000 C 
ATOM     16  C   UNL     1       5.372   4.499  14.768  0.00  0.00    +0.000 C 
ENDBRANCH   1  16
BRANCH   1  17
ATOM     17  C   UNL     1       6.988   4.421  16.697  0.00  0.00    +0.000 C 
BRANCH  17  18
ATOM     18  C   UNL     1       7.716   5.720  17.098  0.00  0.00    +0.000 C 
ATOM     19  C   UNL     1       7.835   6.018  18.585  0.00  0.00    +0.000 C 
ATOM     20  C   UNL     1       8.175   7.491  18.555  0.00  0.00    +0.000 C 
ATOM     21  C   UNL     1       7.289   7.988  17.430  0.00  0.00    +0.000 C 
ATOM     22  O   UNL     1       7.137   6.898  16.508  0.00  0.00    +0.000 OA
ENDBRANCH  17  18
ENDBRANCH   1  17
TORSDOF 5
ENDMDL
MODEL 5
REMARK VINA RESULT:      -6.7      1.738      2.056
REMARK  Name = 
REMARK  7 active torsions:
REMARK  status: ('A' for Active; 'I' for Inactive)
REMARK    1  A    between atoms: C_1  and  C_2
REMARK    2  A    between atoms: C_2  and  N_3
REMARK    3  A    between atoms: N_3  and  C_4
REMARK    4  A    between atoms: C_4  and  C_5
REMARK    5  A    between atoms: N_12  and  C_13
REMARK    6  A    between atoms: C_19  and  O_20
REMARK    7  A    between atoms: O_20  and  C_21
REMARK                            x       y       z     vdW  Elec       q    Type
REMARK                         _______ _______ _______ _____ _____    ______ ____
ROOT
ATOM      1  N   UNL     1       6.346   6.213  17.643  0.00  0.00    +0.000 N 
ATOM      2  C   UNL     1       5.032   6.069  18.089  0.00  0.00    +0.000 C 
ATOM      3  O   UNL     1       4.213   6.984  17.995  0.00  0.00    +0.000 OA
ATOM      4  N   UNL     1       4.746   4.858  18.700  0.00  0.00    +0.000 N 
ATOM      5  H   UNL     1       5.446   4.672  19.408  0.00  0.00    +0.000 HD
ENDROOT
BRANCH   4   6
ATOM      6  C   UNL     1       3.424   4.665  19.194  0.00  0.00    +0.000 A 
ATOM      7  C   UNL     1       2.948   5.532  20.174  0.00  0.00    +0.000 A 
ATOM      8  C   UNL     1       1.679   5.338  20.709  0.00  0.00    +0.000 A 
ATOM      9  C   UNL     1       0.921   4.254  20.280  0.00  0.00    +0.000 A 
ATOM     10  C   UNL     1       1.399   3.369  19.294  0.00  0.00    +0.000 A 
ATOM     11 CL   UNL     1       0.322   2.063  18.929  0.00  0.00    +0.000 Cl
ATOM     12  C   UNL     1       2.657   3.578  18.711  0.00  0.00    +0.000 A 
BRANCH  12  13
ATOM     13  O   UNL     1       3.303   2.880  17.722  0.00  0.00    +0.000 OA
ATOM     14  C   UNL     1       3.714   1.541  17.937  0.00  0.00    +0.000 C 
ENDBRANCH  12  13
ENDBRANCH   4   6
BRANCH   1  16
ATOM     15  C   UNL     1       7.937   8.116  17.874  0.00  0.00    +0.000 C 
ATOM     16  C   UNL     1       6.729   7.536  17.145  0.00  0.00    +0.000 C 
ENDBRANCH   1  16
BRANCH   1  17
ATOM     17  C   UNL     1       7.267   5.090  17.407  0.00  0.00    +0.000 C 
BRANCH  17  18
ATOM     18  C   UNL     1       7.085   4.331  16.077  0.00  0.00    +0.000 C 
ATOM     19  C   UNL     1       7.293   5.119  14.794  0.00  0.00    +0.000 C 
ATOM     20  C   UNL     1       6.621   4.211  13.788  0.00  0.00    +0.000 C 
ATOM     21  C   UNL     1       5.413   3.731  14.567  0.00  0.00    +0.000 C 
ATOM     22  O   UNL     1       5.791   3.712  15.952  0.00  0.00    +0.000 OA
ENDBRANCH  17  18
ENDBRANCH   1  17
TORSDOF 5
ENDMDL
MODEL 6
REMARK VINA RESULT:      -6.6      3.289      4.760
REMARK  Name = 
REMARK  7 active torsions:
REMARK  status: ('A' for Active; 'I' for Inactive)
REMARK    1  A    between atoms: C_1  and  C_2
REMARK    2  A    between atoms: C_2  and  N_3
REMARK    3  A    between atoms: N_3  and  C_4
REMARK    4  A    between atoms: C_4  and  C_5
REMARK    5  A    between atoms: N_12  and  C_13
REMARK    6  A    between atoms: C_19  and  O_20
REMARK    7  A    between atoms: O_20  and  C_21
REMARK                            x       y       z     vdW  Elec       q    Type
REMARK                         _______ _______ _______ _____ _____    ______ ____
ROOT
ATOM      1  N   UNL     1       5.165   5.139  16.995  0.00  0.00    +0.000 N 
ATOM      2  C   UNL     1       4.530   6.279  17.487  0.00  0.00    +0.000 C 
ATOM      3  O   UNL     1       5.134   7.343  17.630  0.00  0.00    +0.000 OA
ATOM      4  N   UNL     1       3.207   6.103  17.862  0.00  0.00    +0.000 N 
ATOM      5  H   UNL     1       3.141   5.298  18.472  0.00  0.00    +0.000 HD
ENDROOT
BRANCH   4   6
ATOM      6  C   UNL     1       2.516   7.231  18.392  0.00  0.00    +0.000 A 
ATOM      7  C   UNL     1       2.281   8.318  17.555  0.00  0.00    +0.000 A 
ATOM      8  C   UNL     1       1.652   9.452  18.058  0.00  0.00    +0.000 A 
ATOM      9  C   UNL     1       1.301   9.492  19.404  0.00  0.00    +0.000 A 
ATOM     10  C   UNL     1       1.542   8.398  20.258  0.00  0.00    +0.000 A 
ATOM     11 CL   UNL     1       1.070   8.663  21.902  0.00  0.00    +0.000 Cl
ATOM     12  C   UNL     1       2.134   7.230  19.754  0.00  0.00    +0.000 A 
BRANCH  12  13
ATOM     13  O   UNL     1       2.426   6.045  20.380  0.00  0.00    +0.000 OA
ATOM     14  C   UNL     1       1.393   5.137  20.722  0.00  0.00    +0.000 C 
ENDBRANCH  12  13
ENDBRANCH   4   6
BRANCH   1  16
ATOM     15  C   UNL     1       7.006   4.739  15.365  0.00  0.00    +0.000 C 
ATOM     16  C   UNL     1       6.604   5.243  16.748  0.00  0.00    +0.000 C 
ENDBRANCH   1  16
BRANCH   1  17
ATOM     17  C   UNL     1       4.457   3.955  16.482  0.00  0.00    +0.000 C 
BRANCH  17  18
ATOM     18  C   UNL     1       4.077   2.885  17.526  0.00  0.00    +0.000 C 
ATOM     19  C   UNL     1       2.598   2.579  17.699  0.00  0.00    +0.000 C 
ATOM     20  C   UNL     1       2.607   1.871  19.036  0.00  0.00    +0.000 C 
ATOM     21  C   UNL     1       3.630   2.681  19.806  0.00  0.00    +0.000 C 
ATOM     22  O   UNL     1       4.572   3.182  18.845  0.00  0.00    +0.000 OA
ENDBRANCH  17  18
ENDBRANCH   1  17
TORSDOF 5
ENDMDL
MODEL 7
REMARK VINA RESULT:      -6.6      0.868      1.071
REMARK  Name = 
REMARK  7 active torsions:
REMARK  status: ('A' for Active; 'I' for Inactive)
REMARK    1  A    between atoms: C_1  and  C_2
REMARK    2  A    between atoms: C_2  and  N_3
REMARK    3  A    between atoms: N_3  and  C_4
REMARK    4  A    between atoms: C_4  and  C_5
REMARK    5  A    between atoms: N_12  and  C_13
REMARK    6  A    between atoms: C_19  and  O_20
REMARK    7  A    between atoms: O_20  and  C_21
REMARK                            x       y       z     vdW  Elec       q    Type
REMARK                         _______ _______ _______ _____ _____    ______ ____
ROOT
ATOM      1  N   UNL     1       6.600   5.537  17.490  0.00  0.00    +0.000 N 
ATOM      2  C   UNL     1       5.282   5.291  17.875  0.00  0.00    +0.000 C 
ATOM      3  O   UNL     1       4.489   6.210  18.089  0.00  0.00    +0.000 OA
ATOM      4  N   UNL     1       4.961   3.956  18.065  0.00  0.00    +0.000 N 
ATOM      5  H   UNL     1       5.654   3.532  18.669  0.00  0.00    +0.000 HD
ENDROOT
BRANCH   4   6
ATOM      6  C   UNL     1       3.633   3.649  18.480  0.00  0.00    +0.000 A 
ATOM      7  C   UNL     1       2.585   3.927  17.608  0.00  0.00    +0.000 A 
ATOM      8  C   UNL     1       1.274   3.683  18.005  0.00  0.00    +0.000 A 
ATOM      9  C   UNL     1       1.034   3.198  19.287  0.00  0.00    +0.000 A 
ATOM     10  C   UNL     1       2.090   2.921  20.177  0.00  0.00    +0.000 A 
ATOM     11 CL   UNL     1       1.579   2.365  21.734  0.00  0.00    +0.000 Cl
ATOM     12  C   UNL     1       3.419   3.118  19.774  0.00  0.00    +0.000 A 
BRANCH  12  13
ATOM     13  O   UNL     1       4.592   2.885  20.446  0.00  0.00    +0.000 OA
ATOM     14  C   UNL     1       5.006   1.561  20.736  0.00  0.00    +0.000 C 
ENDBRANCH  12  13
ENDBRANCH   4   6
BRANCH   1  16
ATOM     15  C   UNL     1       8.121   7.260  18.449  0.00  0.00    +0.000 C 
ATOM     16  C   UNL     1       7.020   6.938  17.444  0.00  0.00    +0.000 C 
ENDBRANCH   1  16
BRANCH   1  17
ATOM     17  C   UNL     1       7.490   4.526  16.897  0.00  0.00    +0.000 C 
BRANCH  17  18
ATOM     18  C   UNL     1       7.162   4.097  15.453  0.00  0.00    +0.000 C 
ATOM     19  C   UNL     1       7.343   5.140  14.361  0.00  0.00    +0.000 C 
ATOM     20  C   UNL     1       6.538   4.522  13.240  0.00  0.00    +0.000 C 
ATOM     21  C   UNL     1       5.352   3.951  13.990  0.00  0.00    +0.000 C 
ATOM     22  O   UNL     1       5.820   3.599  15.301  0.00  0.00    +0.000 OA
ENDBRANCH  17  18
ENDBRANCH   1  17
TORSDOF 5
ENDMDL
MODEL 8
REMARK VINA RESULT:      -6.6      1.698      1.987
REMARK  Name = 
REMARK  7 active torsions:
REMARK  status: ('A' for Active; 'I' for Inactive)
REMARK    1  A    between atoms: C_1  and  C_2
REMARK    2  A    between atoms: C_2  and  N_3
REMARK    3  A    between atoms: N_3  and  C_4
REMARK    4  A    between atoms: C_4  and  C_5
REMARK    5  A    between atoms: N_12  and  C_13
REMARK    6  A    between atoms: C_19  and  O_20
REMARK    7  A    between atoms: O_20  and  C_21
REMARK                            x       y       z     vdW  Elec       q    Type
REMARK                         _______ _______ _______ _____ _____    ______ ____
ROOT
ATOM      1  N   UNL     1       6.402   5.303  17.646  0.00  0.00    +0.000 N 
ATOM      2  C   UNL     1       5.330   4.985  18.480  0.00  0.00    +0.000 C 
ATOM      3  O   UNL     1       5.497   4.406  19.554  0.00  0.00    +0.000 OA
ATOM      4  N   UNL     1       4.078   5.303  17.978  0.00  0.00    +0.000 N 
ATOM      5  H   UNL     1       3.994   4.934  17.039  0.00  0.00    +0.000 HD
ENDROOT
BRANCH   4   6
ATOM      6  C   UNL     1       2.945   4.979  18.780  0.00  0.00    +0.000 A 
ATOM      7  C   UNL     1       2.573   5.863  19.789  0.00  0.00    +0.000 A 
ATOM      8  C   UNL     1       1.500   5.550  20.619  0.00  0.00    +0.000 A 
ATOM      9  C   UNL     1       0.841   4.337  20.446  0.00  0.00    +0.000 A 
ATOM     10  C   UNL     1       1.217   3.436  19.430  0.00  0.00    +0.000 A 
ATOM     11 CL   UNL     1       0.300   1.968  19.409  0.00  0.00    +0.000 Cl
ATOM     12  C   UNL     1       2.266   3.758  18.556  0.00  0.00    +0.000 A 
BRANCH  12  13
ATOM     13  O   UNL     1       2.774   3.064  17.488  0.00  0.00    +0.000 OA
ATOM     14  C   UNL     1       3.461   1.840  17.685  0.00  0.00    +0.000 C 
ENDBRANCH  12  13
ENDBRANCH   4   6
BRANCH   1  16
ATOM     15  C   UNL     1       8.306   5.646  19.216  0.00  0.00    +0.000 C 
ATOM     16  C   UNL     1       7.723   4.832  18.065  0.00  0.00    +0.000 C 
ENDBRANCH   1  16
BRANCH   1  17
ATOM     17  C   UNL     1       6.331   6.272  16.541  0.00  0.00    +0.000 C 
BRANCH  17  18
ATOM     18  C   UNL     1       6.157   5.678  15.128  0.00  0.00    +0.000 C 
ATOM     19  C   UNL     1       5.524   4.299  15.028  0.00  0.00    +0.000 C 
ATOM     20  C   UNL     1       5.923   3.902  13.625  0.00  0.00    +0.000 C 
ATOM     21  C   UNL     1       7.338   4.440  13.544  0.00  0.00    +0.000 C 
ATOM     22  O   UNL     1       7.393   5.596  14.394  0.00  0.00    +0.000 OA
ENDBRANCH  17  18
ENDBRANCH   1  17
TORSDOF 5
ENDMDL
MODEL 9
REMARK VINA RESULT:      -6.5      2.018      3.736
REMARK  Name = 
REMARK  7 active torsions:
REMARK  status: ('A' for Active; 'I' for Inactive)
REMARK    1  A    between atoms: C_1  and  C_2
REMARK    2  A    between atoms: C_2  and  N_3
REMARK    3  A    between atoms: N_3  and  C_4
REMARK    4  A    between atoms: C_4  and  C_5
REMARK    5  A    between atoms: N_12  and  C_13
REMARK    6  A    between atoms: C_19  and  O_20
REMARK    7  A    between atoms: O_20  and  C_21
REMARK                            x       y       z     vdW  Elec       q    Type
REMARK                         _______ _______ _______ _____ _____    ______ ____
ROOT
ATOM      1  N   UNL     1       5.483   4.187  16.019  0.00  0.00    +0.000 N 
ATOM      2  C   UNL     1       4.459   4.073  16.959  0.00  0.00    +0.000 C 
ATOM      3  O   UNL     1       3.304   3.801  16.627  0.00  0.00    +0.000 OA
ATOM      4  N   UNL     1       4.824   4.356  18.267  0.00  0.00    +0.000 N 
ATOM      5  H   UNL     1       5.309   5.243  18.290  0.00  0.00    +0.000 HD
ENDROOT
BRANCH   4   6
ATOM      6  C   UNL     1       3.811   4.275  19.266  0.00  0.00    +0.000 A 
ATOM      7  C   UNL     1       3.508   3.028  19.804  0.00  0.00    +0.000 A 
ATOM      8  C   UNL     1       2.491   2.913  20.746  0.00  0.00    +0.000 A 
ATOM      9  C   UNL     1       1.768   4.046  21.106  0.00  0.00    +0.000 A 
ATOM     10  C   UNL     1       2.066   5.310  20.560  0.00  0.00    +0.000 A 
ATOM     11 CL   UNL     1       1.026   6.582  21.105  0.00  0.00    +0.000 Cl
ATOM     12  C   UNL     1       3.119   5.450  19.644  0.00  0.00    +0.000 A 
BRANCH  12  13
ATOM     13  O   UNL     1       3.607   6.570  19.019  0.00  0.00    +0.000 OA
ATOM     14  C   UNL     1       2.798   7.301  18.114  0.00  0.00    +0.000 C 
ENDBRANCH  12  13
ENDBRANCH   4   6
BRANCH   1  16
ATOM     15  C   UNL     1       6.301   3.975  13.675  0.00  0.00    +0.000 C 
ATOM     16  C   UNL     1       5.100   4.062  14.612  0.00  0.00    +0.000 C 
ENDBRANCH   1  16
BRANCH   1  17
ATOM     17  C   UNL     1       6.917   4.169  16.351  0.00  0.00    +0.000 C 
BRANCH  17  18
ATOM     18  C   UNL     1       7.524   5.509  16.812  0.00  0.00    +0.000 C 
ATOM     19  C   UNL     1       7.834   5.658  18.293  0.00  0.00    +0.000 C 
ATOM     20  C   UNL     1       7.970   7.160  18.408  0.00  0.00    +0.000 C 
ATOM     21  C   UNL     1       6.863   7.640  17.492  0.00  0.00    +0.000 C 
ATOM     22  O   UNL     1       6.711   6.646  16.466  0.00  0.00    +0.000 OA
ENDBRANCH  17  18
ENDBRANCH   1  17
TORSDOF 5
ENDMDL
