MODEL 1
REMARK VINA RESULT:      -7.1      0.000      0.000
REMARK  Name = 
REMARK  7 active torsions:
REMARK  status: ('A' for Active; 'I' for Inactive)
REMARK    1  A    between atoms: C_1  and  C_2
REMARK    2  A    between atoms: N_4  and  C_5
REMARK    3  A    between atoms: C_8  and  S_9
REMARK    4  A    between atoms: S_9  and  O_12
REMARK    5  A    between atoms: O_12  and  C_13
REMARK    6  A    between atoms: C_19  and  C_20
REMARK    7  A    between atoms: C_20  and  N_22
REMARK                            x       y       z     vdW  Elec       q    Type
REMARK                         _______ _______ _______ _____ _____    ______ ____
ROOT
ATOM      1  O   UNL     1       0.486  10.488  19.706  0.00  0.00    +0.000 OA
ENDROOT
BRANCH   1   2
ATOM      2  C   UNL     1      -0.728  10.725  19.097  0.00  0.00    +0.000 A 
ATOM      3  C   UNL     1      -1.118   9.992  17.966  0.00  0.00    +0.000 A 
ATOM      4  C   UNL     1      -2.318  10.263  17.311  0.00  0.00    +0.000 A 
ATOM      5  C   UNL     1      -3.165  11.239  17.811  0.00  0.00    +0.000 A 
ATOM      6 BR   UNL     1      -4.788  11.612  16.918  0.00  0.00    +0.000 Br
ATOM      7  C   UNL     1      -2.829  11.941  18.965  0.00  0.00    +0.000 A 
ATOM      8  C   UNL     1      -1.608  11.701  19.627  0.00  0.00    +0.000 A 
BRANCH   8   9
ATOM      9  C   UNL     1      -1.286  12.555  20.835  0.00  0.00    +0.000 C 
ATOM     10  S   UNL     1      -2.087  12.389  22.315  0.00  0.00    +0.000 S 
BRANCH   9  11
ATOM     11  N   UNL     1      -0.284  13.507  20.647  0.00  0.00    +0.000 N 
ATOM     12  C   UNL     1      -0.447  14.545  19.620  0.00  0.00    +0.000 C 
ATOM     13  C   UNL     1       0.931  15.091  19.244  0.00  0.00    +0.000 C 
ATOM     14  O   UNL     1       1.587  15.645  20.398  0.00  0.00    +0.000 OA
ATOM     15  C   UNL     1       1.740  14.660  21.435  0.00  0.00    +0.000 C 
ATOM     16  C   UNL     1       0.393  14.048  21.835  0.00  0.00    +0.000 C 
ENDBRANCH   9  11
ENDBRANCH   8   9
ENDBRANCH   1   2
BRANCH   1  17
ATOM     17  S   UNL     1       0.675   9.484  20.994  0.00  0.00    +0.000 S 
ATOM     18  O   UNL     1      -0.625   9.085  21.495  0.00  0.00    +0.000 OA
ATOM     19  O   UNL     1       1.634  10.099  21.891  0.00  0.00    +0.000 OA
BRANCH  17  23
ATOM     20  C   UNL     1       2.593   5.764  19.137  0.00  0.00    +0.000 A 
ATOM     21  C   UNL     1       2.621   7.004  18.491  0.00  0.00    +0.000 A 
ATOM     22  C   UNL     1       2.074   8.137  19.088  0.00  0.00    +0.000 A 
ATOM     23  C   UNL     1       1.481   8.036  20.344  0.00  0.00    +0.000 A 
ATOM     24  C   UNL     1       1.474   6.819  21.033  0.00  0.00    +0.000 A 
ATOM     25  C   UNL     1       2.034   5.687  20.422  0.00  0.00    +0.000 A 
BRANCH  20  29
ATOM     26  C   UNL     1       3.177   2.448  17.421  0.00  0.00    +0.000 C 
ATOM     27  C   UNL     1       2.347   3.625  17.863  0.00  0.00    +0.000 C 
ATOM     28  O   UNL     1       1.145   3.656  17.624  0.00  0.00    +0.000 OA
ATOM     29  N   UNL     1       3.087   4.579  18.548  0.00  0.00    +0.000 N 
ATOM     30  H   UNL     1       4.075   4.395  18.664  0.00  0.00    +0.000 HD
ENDBRANCH  20  29
ENDBRANCH  17  23
ENDBRANCH   1  17
TORSDOF 6
ENDMDL
MODEL 2
REMARK VINA RESULT:      -7.1      2.156      2.909
REMARK  Name = 
REMARK  7 active torsions:
REMARK  status: ('A' for Active; 'I' for Inactive)
REMARK    1  A    between atoms: C_1  and  C_2
REMARK    2  A    between atoms: N_4  and  C_5
REMARK    3  A    between atoms: C_8  and  S_9
REMARK    4  A    between atoms: S_9  and  O_12
REMARK    5  A    between atoms: O_12  and  C_13
REMARK    6  A    between atoms: C_19  and  C_20
REMARK    7  A    between atoms: C_20  and  N_22
REMARK                            x       y       z     vdW  Elec       q    Type
REMARK                         _______ _______ _______ _____ _____    ______ ____
ROOT
ATOM      1  O   UNL     1      -0.222  11.393  19.454  0.00  0.00    +0.000 OA
ENDROOT
BRANCH   1   2
ATOM      2  C   UNL     1      -1.560  11.370  19.118  0.00  0.00    +0.000 A 
ATOM      3  C   UNL     1      -2.055  10.418  18.214  0.00  0.00    +0.000 A 
ATOM      4  C   UNL     1      -3.394  10.422  17.826  0.00  0.00    +0.000 A 
ATOM      5  C   UNL     1      -4.263  11.350  18.378  0.00  0.00    +0.000 A 
ATOM      6 BR   UNL     1      -6.076  11.360  17.846  0.00  0.00    +0.000 Br
ATOM      7  C   UNL     1      -3.810  12.268  19.321  0.00  0.00    +0.000 A 
ATOM      8  C   UNL     1      -2.454  12.297  19.707  0.00  0.00    +0.000 A 
BRANCH   8   9
ATOM      9  C   UNL     1      -2.028  13.371  20.685  0.00  0.00    +0.000 C 
ATOM     10  S   UNL     1      -0.764  14.448  20.371  0.00  0.00    +0.000 S 
BRANCH   9  11
ATOM     11  N   UNL     1      -2.743  13.410  21.883  0.00  0.00    +0.000 N 
ATOM     12  C   UNL     1      -2.363  12.520  22.989  0.00  0.00    +0.000 C 
ATOM     13  C   UNL     1      -3.559  12.355  23.927  0.00  0.00    +0.000 C 
ATOM     14  O   UNL     1      -3.974  13.630  24.447  0.00  0.00    +0.000 OA
ATOM     15  C   UNL     1      -4.330  14.536  23.387  0.00  0.00    +0.000 C 
ATOM     16  C   UNL     1      -3.180  14.719  22.390  0.00  0.00    +0.000 C 
ENDBRANCH   9  11
ENDBRANCH   8   9
ENDBRANCH   1   2
BRANCH   1  17
ATOM     17  S   UNL     1       0.423  10.502  20.676  0.00  0.00    +0.000 S 
ATOM     18  O   UNL     1      -0.637  10.028  21.544  0.00  0.00    +0.000 OA
ATOM     19  O   UNL     1       1.526  11.259  21.234  0.00  0.00    +0.000 OA
BRANCH  17  23
ATOM     20  C   UNL     1       2.501   6.884  18.791  0.00  0.00    +0.000 A 
ATOM     21  C   UNL     1       2.086   6.878  20.127  0.00  0.00    +0.000 A 
ATOM     22  C   UNL     1       1.415   7.968  20.674  0.00  0.00    +0.000 A 
ATOM     23  C   UNL     1       1.158   9.086  19.885  0.00  0.00    +0.000 A 
ATOM     24  C   UNL     1       1.522   9.105  18.536  0.00  0.00    +0.000 A 
ATOM     25  C   UNL     1       2.193   7.997  17.995  0.00  0.00    +0.000 A 
BRANCH  20  29
ATOM     26  C   UNL     1       3.772   3.714  17.171  0.00  0.00    +0.000 C 
ATOM     27  C   UNL     1       2.708   4.672  17.640  0.00  0.00    +0.000 C 
ATOM     28  O   UNL     1       1.522   4.383  17.519  0.00  0.00    +0.000 OA
ATOM     29  N   UNL     1       3.232   5.824  18.208  0.00  0.00    +0.000 N 
ATOM     30  H   UNL     1       4.241   5.903  18.235  0.00  0.00    +0.000 HD
ENDBRANCH  20  29
ENDBRANCH  17  23
ENDBRANCH   1  17
TORSDOF 6
ENDMDL
MODEL 3
REMARK VINA RESULT:      -7.0      2.249      2.836
REMARK  Name = 
REMARK  7 active torsions:
REMARK  status: ('A' for Active; 'I' for Inactive)
REMARK    1  A    between atoms: C_1  and  C_2
REMARK    2  A    between atoms: N_4  and  C_5
REMARK    3  A    between atoms: C_8  and  S_9
REMARK    4  A    between atoms: S_9  and  O_12
REMARK    5  A    between atoms: O_12  and  C_13
REMARK    6  A    between atoms: C_19  and  C_20
REMARK    7  A    between atoms: C_20  and  N_22
REMARK                            x       y       z     vdW  Elec       q    Type
REMARK                         _______ _______ _______ _____ _____    ______ ____
ROOT
ATOM      1  O   UNL     1       0.322  10.630  20.126  0.00  0.00    +0.000 OA
ENDROOT
BRANCH   1   2
ATOM      2  C   UNL     1      -0.888  10.848  19.502  0.00  0.00    +0.000 A 
ATOM      3  C   UNL     1      -1.317  10.016  18.457  0.00  0.00    +0.000 A 
ATOM      4  C   UNL     1      -2.512  10.262  17.784  0.00  0.00    +0.000 A 
ATOM      5  C   UNL     1      -3.316  11.318  18.183  0.00  0.00    +0.000 A 
ATOM      6 BR   UNL     1      -4.933  11.657  17.265  0.00  0.00    +0.000 Br
ATOM      7  C   UNL     1      -2.943  12.124  19.255  0.00  0.00    +0.000 A 
ATOM      8  C   UNL     1      -1.725  11.908  19.932  0.00  0.00    +0.000 A 
BRANCH   8   9
ATOM      9  C   UNL     1      -1.359  12.871  21.040  0.00  0.00    +0.000 C 
ATOM     10  S   UNL     1       0.137  13.654  21.118  0.00  0.00    +0.000 S 
BRANCH   9  11
ATOM     11  N   UNL     1      -2.340  13.067  22.014  0.00  0.00    +0.000 N 
ATOM     12  C   UNL     1      -2.253  12.348  23.292  0.00  0.00    +0.000 C 
ATOM     13  C   UNL     1      -3.642  12.297  23.928  0.00  0.00    +0.000 C 
ATOM     14  O   UNL     1      -4.146  13.627  24.149  0.00  0.00    +0.000 OA
ATOM     15  C   UNL     1      -4.220  14.369  22.919  0.00  0.00    +0.000 C 
ATOM     16  C   UNL     1      -2.861  14.428  22.212  0.00  0.00    +0.000 C 
ENDBRANCH   9  11
ENDBRANCH   8   9
ENDBRANCH   1   2
BRANCH   1  17
ATOM     17  S   UNL     1       0.608   9.363  21.135  0.00  0.00    +0.000 S 
ATOM     18  O   UNL     1      -0.649   8.747  21.510  0.00  0.00    +0.000 OA
ATOM     19  O   UNL     1       1.521   9.821  22.164  0.00  0.00    +0.000 OA
BRANCH  17  23
ATOM     20  C   UNL     1       2.794   6.353  18.466  0.00  0.00    +0.000 A 
ATOM     21  C   UNL     1       2.575   7.671  18.057  0.00  0.00    +0.000 A 
ATOM     22  C   UNL     1       1.949   8.588  18.897  0.00  0.00    +0.000 A 
ATOM     23  C   UNL     1       1.526   8.188  20.162  0.00  0.00    +0.000 A 
ATOM     24  C   UNL     1       1.768   6.888  20.615  0.00  0.00    +0.000 A 
ATOM     25  C   UNL     1       2.405   5.975  19.761  0.00  0.00    +0.000 A 
BRANCH  20  29
ATOM     26  C   UNL     1       5.001   4.104  16.378  0.00  0.00    +0.000 C 
ATOM     27  C   UNL     1       4.728   5.203  17.373  0.00  0.00    +0.000 C 
ATOM     28  O   UNL     1       5.656   5.849  17.847  0.00  0.00    +0.000 OA
ATOM     29  N   UNL     1       3.375   5.374  17.629  0.00  0.00    +0.000 N 
ATOM     30  H   UNL     1       2.736   4.755  17.146  0.00  0.00    +0.000 HD
ENDBRANCH  20  29
ENDBRANCH  17  23
ENDBRANCH   1  17
TORSDOF 6
ENDMDL
MODEL 4
REMARK VINA RESULT:      -7.0      2.524      4.055
REMARK  Name = 
REMARK  7 active torsions:
REMARK  status: ('A' for Active; 'I' for Inactive)
REMARK    1  A    between atoms: C_1  and  C_2
REMARK    2  A    between atoms: N_4  and  C_5
REMARK    3  A    between atoms: C_8  and  S_9
REMARK    4  A    between atoms: S_9  and  O_12
REMARK    5  A    between atoms: O_12  and  C_13
REMARK    6  A    between atoms: C_19  and  C_20
REMARK    7  A    between atoms: C_20  and  N_22
REMARK                            x       y       z     vdW  Elec       q    Type
REMARK                         _______ _______ _______ _____ _____    ______ ____
ROOT
ATOM      1  O   UNL     1       0.057  10.531  20.979  0.00  0.00    +0.000 OA
ENDROOT
BRANCH   1   2
ATOM      2  C   UNL     1      -0.966  11.306  21.485  0.00  0.00    +0.000 A 
ATOM      3  C   UNL     1      -1.350  11.197  22.830  0.00  0.00    +0.000 A 
ATOM      4  C   UNL     1      -2.419  11.934  23.336  0.00  0.00    +0.000 A 
ATOM      5  C   UNL     1      -3.085  12.826  22.511  0.00  0.00    +0.000 A 
ATOM      6 BR   UNL     1      -4.540  13.820  23.195  0.00  0.00    +0.000 Br
ATOM      7  C   UNL     1      -2.688  12.996  21.188  0.00  0.00    +0.000 A 
ATOM      8  C   UNL     1      -1.626  12.241  20.650  0.00  0.00    +0.000 A 
BRANCH   8   9
ATOM      9  C   UNL     1      -1.301  12.435  19.184  0.00  0.00    +0.000 C 
ATOM     10  S   UNL     1      -0.139  13.536  18.641  0.00  0.00    +0.000 S 
BRANCH   9  11
ATOM     11  N   UNL     1      -2.035  11.648  18.297  0.00  0.00    +0.000 N 
ATOM     12  C   UNL     1      -1.546  10.312  17.929  0.00  0.00    +0.000 C 
ATOM     13  C   UNL     1      -2.183   9.897  16.603  0.00  0.00    +0.000 C 
ATOM     14  O   UNL     1      -3.617   9.878  16.714  0.00  0.00    +0.000 OA
ATOM     15  C   UNL     1      -4.128  11.167  17.098  0.00  0.00    +0.000 C 
ATOM     16  C   UNL     1      -3.502  11.656  18.408  0.00  0.00    +0.000 C 
ENDBRANCH   9  11
ENDBRANCH   8   9
ENDBRANCH   1   2
BRANCH   1  17
ATOM     17  S   UNL     1       0.469   9.061  21.590  0.00  0.00    +0.000 S 
ATOM     18  O   UNL     1      -0.728   8.282  21.833  0.00  0.00    +0.000 OA
ATOM     19  O   UNL     1       1.414   9.285  22.667  0.00  0.00    +0.000 OA
BRANCH  17  23
ATOM     20  C   UNL     1       3.032   6.993  18.409  0.00  0.00    +0.000 A 
ATOM     21  C   UNL     1       2.718   6.367  19.619  0.00  0.00    +0.000 A 
ATOM     22  C   UNL     1       1.900   6.989  20.558  0.00  0.00    +0.000 A 
ATOM     23  C   UNL     1       1.392   8.259  20.296  0.00  0.00    +0.000 A 
ATOM     24  C   UNL     1       1.653   8.893  19.078  0.00  0.00    +0.000 A 
ATOM     25  C   UNL     1       2.475   8.252  18.137  0.00  0.00    +0.000 A 
BRANCH  20  29
ATOM     26  C   UNL     1       5.093   4.806  16.117  0.00  0.00    +0.000 C 
ATOM     27  C   UNL     1       4.022   5.077  17.141  0.00  0.00    +0.000 C 
ATOM     28  O   UNL     1       3.381   4.149  17.622  0.00  0.00    +0.000 OA
ATOM     29  N   UNL     1       3.901   6.424  17.451  0.00  0.00    +0.000 N 
ATOM     30  H   UNL     1       4.516   7.063  16.962  0.00  0.00    +0.000 HD
ENDBRANCH  20  29
ENDBRANCH  17  23
ENDBRANCH   1  17
TORSDOF 6
ENDMDL
MODEL 5
REMARK VINA RESULT:      -7.0      1.342      1.366
REMARK  Name = 
REMARK  7 active torsions:
REMARK  status: ('A' for Active; 'I' for Inactive)
REMARK    1  A    between atoms: C_1  and  C_2
REMARK    2  A    between atoms: N_4  and  C_5
REMARK    3  A    between atoms: C_8  and  S_9
REMARK    4  A    between atoms: S_9  and  O_12
REMARK    5  A    between atoms: O_12  and  C_13
REMARK    6  A    between atoms: C_19  and  C_20
REMARK    7  A    between atoms: C_20  and  N_22
REMARK                            x       y       z     vdW  Elec       q    Type
REMARK                         _______ _______ _______ _____ _____    ______ ____
ROOT
ATOM      1  O   UNL     1       0.430  10.552  20.099  0.00  0.00    +0.000 OA
ENDROOT
BRANCH   1   2
ATOM      2  C   UNL     1      -0.756  10.773  19.430  0.00  0.00    +0.000 A 
ATOM      3  C   UNL     1      -1.066  10.056  18.265  0.00  0.00    +0.000 A 
ATOM      4  C   UNL     1      -2.236  10.312  17.552  0.00  0.00    +0.000 A 
ATOM      5  C   UNL     1      -3.133  11.256  18.026  0.00  0.00    +0.000 A 
ATOM      6 BR   UNL     1      -4.715  11.609  17.055  0.00  0.00    +0.000 Br
ATOM      7  C   UNL     1      -2.878  11.940  19.211  0.00  0.00    +0.000 A 
ATOM      8  C   UNL     1      -1.688  11.715  19.933  0.00  0.00    +0.000 A 
BRANCH   8   9
ATOM      9  C   UNL     1      -1.453  12.549  21.174  0.00  0.00    +0.000 C 
ATOM     10  S   UNL     1      -1.981  12.078  22.709  0.00  0.00    +0.000 S 
BRANCH   9  11
ATOM     11  N   UNL     1      -0.775  13.752  20.970  0.00  0.00    +0.000 N 
ATOM     12  C   UNL     1      -1.535  14.996  20.789  0.00  0.00    +0.000 C 
ATOM     13  C   UNL     1      -0.653  16.017  20.070  0.00  0.00    +0.000 C 
ATOM     14  O   UNL     1       0.540  16.279  20.829  0.00  0.00    +0.000 OA
ATOM     15  C   UNL     1       1.297  15.074  21.045  0.00  0.00    +0.000 C 
ATOM     16  C   UNL     1       0.456  13.996  21.737  0.00  0.00    +0.000 C 
ENDBRANCH   9  11
ENDBRANCH   8   9
ENDBRANCH   1   2
BRANCH   1  17
ATOM     17  S   UNL     1       0.676   9.283  21.115  0.00  0.00    +0.000 S 
ATOM     18  O   UNL     1      -0.598   8.689  21.469  0.00  0.00    +0.000 OA
ATOM     19  O   UNL     1       1.578   9.727  22.159  0.00  0.00    +0.000 OA
BRANCH  17  23
ATOM     20  C   UNL     1       2.858   6.231  18.490  0.00  0.00    +0.000 A 
ATOM     21  C   UNL     1       2.667   7.552  18.075  0.00  0.00    +0.000 A 
ATOM     22  C   UNL     1       2.042   8.481  18.902  0.00  0.00    +0.000 A 
ATOM     23  C   UNL     1       1.591   8.090  20.160  0.00  0.00    +0.000 A 
ATOM     24  C   UNL     1       1.804   6.788  20.620  0.00  0.00    +0.000 A 
ATOM     25  C   UNL     1       2.441   5.863  19.779  0.00  0.00    +0.000 A 
BRANCH  20  29
ATOM     26  C   UNL     1       5.068   3.916  16.479  0.00  0.00    +0.000 C 
ATOM     27  C   UNL     1       4.793   5.008  17.481  0.00  0.00    +0.000 C 
ATOM     28  O   UNL     1       5.722   5.597  18.021  0.00  0.00    +0.000 OA
ATOM     29  N   UNL     1       3.438   5.241  17.665  0.00  0.00    +0.000 N 
ATOM     30  H   UNL     1       2.797   4.664  17.133  0.00  0.00    +0.000 HD
ENDBRANCH  20  29
ENDBRANCH  17  23
ENDBRANCH   1  17
TORSDOF 6
ENDMDL
MODEL 6
REMARK VINA RESULT:      -6.7      2.764      3.174
REMARK  Name = 
REMARK  7 active torsions:
REMARK  status: ('A' for Active; 'I' for Inactive)
REMARK    1  A    between atoms: C_1  and  C_2
REMARK    2  A    between atoms: N_4  and  C_5
REMARK    3  A    between atoms: C_8  and  S_9
REMARK    4  A    between atoms: S_9  and  O_12
REMARK    5  A    between atoms: O_12  and  C_13
REMARK    6  A    between atoms: C_19  and  C_20
REMARK    7  A    between atoms: C_20  and  N_22
REMARK                            x       y       z     vdW  Elec       q    Type
REMARK                         _______ _______ _______ _____ _____    ______ ____
ROOT
ATOM      1  O   UNL     1       1.417  10.660  20.511  0.00  0.00    +0.000 OA
ENDROOT
BRANCH   1   2
ATOM      2  C   UNL     1       0.370  11.095  21.295  0.00  0.00    +0.000 A 
ATOM      3  C   UNL     1      -0.169  10.271  22.294  0.00  0.00    +0.000 A 
ATOM      4  C   UNL     1      -1.263  10.681  23.053  0.00  0.00    +0.000 A 
ATOM      5  C   UNL     1      -1.801  11.942  22.853  0.00  0.00    +0.000 A 
ATOM      6 BR   UNL     1      -3.290  12.494  23.876  0.00  0.00    +0.000 Br
ATOM      7  C   UNL     1      -1.250  12.802  21.908  0.00  0.00    +0.000 A 
ATOM      8  C   UNL     1      -0.159  12.397  21.111  0.00  0.00    +0.000 A 
BRANCH   8   9
ATOM      9  C   UNL     1       0.338  13.365  20.059  0.00  0.00    +0.000 C 
ATOM     10  S   UNL     1      -0.374  13.504  18.532  0.00  0.00    +0.000 S 
BRANCH   9  11
ATOM     11  N   UNL     1       1.440  14.138  20.426  0.00  0.00    +0.000 N 
ATOM     12  C   UNL     1       2.718  13.968  19.722  0.00  0.00    +0.000 C 
ATOM     13  C   UNL     1       3.849  14.483  20.612  0.00  0.00    +0.000 C 
ATOM     14  O   UNL     1       3.649  15.871  20.931  0.00  0.00    +0.000 OA
ATOM     15  C   UNL     1       2.392  16.077  21.602  0.00  0.00    +0.000 C 
ATOM     16  C   UNL     1       1.216  15.550  20.772  0.00  0.00    +0.000 C 
ENDBRANCH   9  11
ENDBRANCH   8   9
ENDBRANCH   1   2
BRANCH   1  17
ATOM     17  S   UNL     1       1.217   9.945  19.043  0.00  0.00    +0.000 S 
ATOM     18  O   UNL     1       2.053  10.606  18.062  0.00  0.00    +0.000 OA
ATOM     19  O   UNL     1      -0.208   9.822  18.808  0.00  0.00    +0.000 OA
BRANCH  17  23
ATOM     20  C   UNL     1       2.616   5.599  19.393  0.00  0.00    +0.000 A 
ATOM     21  C   UNL     1       2.816   6.343  18.226  0.00  0.00    +0.000 A 
ATOM     22  C   UNL     1       2.426   7.677  18.149  0.00  0.00    +0.000 A 
ATOM     23  C   UNL     1       1.820   8.282  19.247  0.00  0.00    +0.000 A 
ATOM     24  C   UNL     1       1.645   7.578  20.442  0.00  0.00    +0.000 A 
ATOM     25  C   UNL     1       2.047   6.235  20.508  0.00  0.00    +0.000 A 
BRANCH  20  29
ATOM     26  C   UNL     1       4.211   2.177  19.548  0.00  0.00    +0.000 C 
ATOM     27  C   UNL     1       4.220   3.682  19.481  0.00  0.00    +0.000 C 
ATOM     28  O   UNL     1       5.282   4.289  19.400  0.00  0.00    +0.000 OA
ATOM     29  N   UNL     1       2.945   4.230  19.499  0.00  0.00    +0.000 N 
ATOM     30  H   UNL     1       2.170   3.582  19.564  0.00  0.00    +0.000 HD
ENDBRANCH  20  29
ENDBRANCH  17  23
ENDBRANCH   1  17
TORSDOF 6
ENDMDL
MODEL 7
REMARK VINA RESULT:      -6.7      1.893      2.239
REMARK  Name = 
REMARK  7 active torsions:
REMARK  status: ('A' for Active; 'I' for Inactive)
REMARK    1  A    between atoms: C_1  and  C_2
REMARK    2  A    between atoms: N_4  and  C_5
REMARK    3  A    between atoms: C_8  and  S_9
REMARK    4  A    between atoms: S_9  and  O_12
REMARK    5  A    between atoms: O_12  and  C_13
REMARK    6  A    between atoms: C_19  and  C_20
REMARK    7  A    between atoms: C_20  and  N_22
REMARK                            x       y       z     vdW  Elec       q    Type
REMARK                         _______ _______ _______ _____ _____    ______ ____
ROOT
ATOM      1  O   UNL     1      -0.250  10.645  18.578  0.00  0.00    +0.000 OA
ENDROOT
BRANCH   1   2
ATOM      2  C   UNL     1      -1.610  10.839  18.463  0.00  0.00    +0.000 A 
ATOM      3  C   UNL     1      -2.426   9.864  17.869  0.00  0.00    +0.000 A 
ATOM      4  C   UNL     1      -3.793  10.075  17.698  0.00  0.00    +0.000 A 
ATOM      5  C   UNL     1      -4.368  11.247  18.164  0.00  0.00    +0.000 A 
ATOM      6 BR   UNL     1      -6.219  11.537  17.925  0.00  0.00    +0.000 Br
ATOM      7  C   UNL     1      -3.591  12.206  18.809  0.00  0.00    +0.000 A 
ATOM      8  C   UNL     1      -2.203  12.023  18.969  0.00  0.00    +0.000 A 
BRANCH   8   9
ATOM      9  C   UNL     1      -1.419  13.143  19.619  0.00  0.00    +0.000 C 
ATOM     10  S   UNL     1      -0.231  14.025  18.801  0.00  0.00    +0.000 S 
BRANCH   9  11
ATOM     11  N   UNL     1      -1.732  13.399  20.954  0.00  0.00    +0.000 N 
ATOM     12  C   UNL     1      -2.486  14.609  21.308  0.00  0.00    +0.000 C 
ATOM     13  C   UNL     1      -2.236  14.938  22.780  0.00  0.00    +0.000 C 
ATOM     14  O   UNL     1      -2.646  13.844  23.620  0.00  0.00    +0.000 OA
ATOM     15  C   UNL     1      -1.943  12.635  23.283  0.00  0.00    +0.000 C 
ATOM     16  C   UNL     1      -2.127  12.267  21.806  0.00  0.00    +0.000 C 
ENDBRANCH   9  11
ENDBRANCH   8   9
ENDBRANCH   1   2
BRANCH   1  17
ATOM     17  S   UNL     1       0.477  10.105  19.951  0.00  0.00    +0.000 S 
ATOM     18  O   UNL     1      -0.525   9.585  20.859  0.00  0.00    +0.000 OA
ATOM     19  O   UNL     1       1.388  11.140  20.400  0.00  0.00    +0.000 OA
BRANCH  17  23
ATOM     20  C   UNL     1       2.958   6.563  18.447  0.00  0.00    +0.000 A 
ATOM     21  C   UNL     1       2.711   7.680  17.642  0.00  0.00    +0.000 A 
ATOM     22  C   UNL     1       1.993   8.769  18.129  0.00  0.00    +0.000 A 
ATOM     23  C   UNL     1       1.505   8.747  19.432  0.00  0.00    +0.000 A 
ATOM     24  C   UNL     1       1.771   7.663  20.274  0.00  0.00    +0.000 A 
ATOM     25  C   UNL     1       2.501   6.574  19.774  0.00  0.00    +0.000 A 
BRANCH  20  29
ATOM     26  C   UNL     1       4.065   3.187  17.157  0.00  0.00    +0.000 C 
ATOM     27  C   UNL     1       3.052   4.243  17.515  0.00  0.00    +0.000 C 
ATOM     28  O   UNL     1       1.853   4.011  17.399  0.00  0.00    +0.000 OA
ATOM     29  N   UNL     1       3.634   5.413  17.980  0.00  0.00    +0.000 N 
ATOM     30  H   UNL     1       4.645   5.437  18.018  0.00  0.00    +0.000 HD
ENDBRANCH  20  29
ENDBRANCH  17  23
ENDBRANCH   1  17
TORSDOF 6
ENDMDL
MODEL 8
REMARK VINA RESULT:      -6.7      2.296      2.915
REMARK  Name = 
REMARK  7 active torsions:
REMARK  status: ('A' for Active; 'I' for Inactive)
REMARK    1  A    between atoms: C_1  and  C_2
REMARK    2  A    between atoms: N_4  and  C_5
REMARK    3  A    between atoms: C_8  and  S_9
REMARK    4  A    between atoms: S_9  and  O_12
REMARK    5  A    between atoms: O_12  and  C_13
REMARK    6  A    between atoms: C_19  and  C_20
REMARK    7  A    between atoms: C_20  and  N_22
REMARK                            x       y       z     vdW  Elec       q    Type
REMARK                         _______ _______ _______ _____ _____    ______ ____
ROOT
ATOM      1  O   UNL     1      -0.237  10.718  18.682  0.00  0.00    +0.000 OA
ENDROOT
BRANCH   1   2
ATOM      2  C   UNL     1      -1.603  10.848  18.545  0.00  0.00    +0.000 A 
ATOM      3  C   UNL     1      -2.345   9.897  17.827  0.00  0.00    +0.000 A 
ATOM      4  C   UNL     1      -3.717  10.050  17.636  0.00  0.00    +0.000 A 
ATOM      5  C   UNL     1      -4.371  11.132  18.203  0.00  0.00    +0.000 A 
ATOM      6 BR   UNL     1      -6.229  11.343  17.937  0.00  0.00    +0.000 Br
ATOM      7  C   UNL     1      -3.668  12.059  18.969  0.00  0.00    +0.000 A 
ATOM      8  C   UNL     1      -2.276  11.937  19.152  0.00  0.00    +0.000 A 
BRANCH   8   9
ATOM      9  C   UNL     1      -1.575  13.024  19.939  0.00  0.00    +0.000 C 
ATOM     10  S   UNL     1      -0.320  13.957  19.297  0.00  0.00    +0.000 S 
BRANCH   9  11
ATOM     11  N   UNL     1      -2.026  13.203  21.248  0.00  0.00    +0.000 N 
ATOM     12  C   UNL     1      -1.834  12.136  22.238  0.00  0.00    +0.000 C 
ATOM     13  C   UNL     1      -2.842  12.323  23.372  0.00  0.00    +0.000 C 
ATOM     14  O   UNL     1      -2.667  13.607  23.998  0.00  0.00    +0.000 OA
ATOM     15  C   UNL     1      -2.824  14.677  23.048  0.00  0.00    +0.000 C 
ATOM     16  C   UNL     1      -1.861  14.527  21.865  0.00  0.00    +0.000 C 
ENDBRANCH   9  11
ENDBRANCH   8   9
ENDBRANCH   1   2
BRANCH   1  17
ATOM     17  S   UNL     1       0.480   9.965  19.956  0.00  0.00    +0.000 S 
ATOM     18  O   UNL     1      -0.527   9.297  20.755  0.00  0.00    +0.000 OA
ATOM     19  O   UNL     1       1.378  10.918  20.578  0.00  0.00    +0.000 OA
BRANCH  17  23
ATOM     20  C   UNL     1       3.319   6.786  18.282  0.00  0.00    +0.000 A 
ATOM     21  C   UNL     1       2.682   6.624  19.516  0.00  0.00    +0.000 A 
ATOM     22  C   UNL     1       1.786   7.578  19.992  0.00  0.00    +0.000 A 
ATOM     23  C   UNL     1       1.524   8.716  19.234  0.00  0.00    +0.000 A 
ATOM     24  C   UNL     1       2.112   8.887  17.977  0.00  0.00    +0.000 A 
ATOM     25  C   UNL     1       3.009   7.915  17.507  0.00  0.00    +0.000 A 
BRANCH  20  29
ATOM     26  C   UNL     1       6.223   4.460  17.618  0.00  0.00    +0.000 C 
ATOM     27  C   UNL     1       5.366   5.360  18.470  0.00  0.00    +0.000 C 
ATOM     28  O   UNL     1       5.677   5.587  19.634  0.00  0.00    +0.000 OA
ATOM     29  N   UNL     1       4.274   5.873  17.783  0.00  0.00    +0.000 N 
ATOM     30  H   UNL     1       4.166   5.587  16.818  0.00  0.00    +0.000 HD
ENDBRANCH  20  29
ENDBRANCH  17  23
ENDBRANCH   1  17
TORSDOF 6
ENDMDL
MODEL 9
REMARK VINA RESULT:      -6.7      1.669      1.995
REMARK  Name = 
REMARK  7 active torsions:
REMARK  status: ('A' for Active; 'I' for Inactive)
REMARK    1  A    between atoms: C_1  and  C_2
REMARK    2  A    between atoms: N_4  and  C_5
REMARK    3  A    between atoms: C_8  and  S_9
REMARK    4  A    between atoms: S_9  and  O_12
REMARK    5  A    between atoms: O_12  and  C_13
REMARK    6  A    between atoms: C_19  and  C_20
REMARK    7  A    between atoms: C_20  and  N_22
REMARK                            x       y       z     vdW  Elec       q    Type
REMARK                         _______ _______ _______ _____ _____    ______ ____
ROOT
ATOM      1  O   UNL     1       0.086  10.631  19.026  0.00  0.00    +0.000 OA
ENDROOT
BRANCH   1   2
ATOM      2  C   UNL     1      -1.245  10.855  18.746  0.00  0.00    +0.000 A 
ATOM      3  C   UNL     1      -1.919  10.076  17.793  0.00  0.00    +0.000 A 
ATOM      4  C   UNL     1      -3.249  10.332  17.463  0.00  0.00    +0.000 A 
ATOM      5  C   UNL     1      -3.934  11.342  18.120  0.00  0.00    +0.000 A 
ATOM      6 BR   UNL     1      -5.734  11.695  17.667  0.00  0.00    +0.000 Br
ATOM      7  C   UNL     1      -3.306  12.092  19.110  0.00  0.00    +0.000 A 
ATOM      8  C   UNL     1      -1.954  11.866  19.440  0.00  0.00    +0.000 A 
BRANCH   8   9
ATOM      9  C   UNL     1      -1.326  12.771  20.479  0.00  0.00    +0.000 C 
ATOM     10  S   UNL     1      -1.483  12.505  22.141  0.00  0.00    +0.000 S 
BRANCH   9  11
ATOM     11  N   UNL     1      -0.610  13.857  19.975  0.00  0.00    +0.000 N 
ATOM     12  C   UNL     1      -1.128  15.220  20.159  0.00  0.00    +0.000 C 
ATOM     13  C   UNL     1      -0.504  16.135  19.105  0.00  0.00    +0.000 C 
ATOM     14  O   UNL     1       0.930  16.137  19.222  0.00  0.00    +0.000 OA
ATOM     15  C   UNL     1       1.469  14.811  19.071  0.00  0.00    +0.000 C 
ATOM     16  C   UNL     1       0.856  13.834  20.082  0.00  0.00    +0.000 C 
ENDBRANCH   9  11
ENDBRANCH   8   9
ENDBRANCH   1   2
BRANCH   1  17
ATOM     17  S   UNL     1       0.606   9.661  20.248  0.00  0.00    +0.000 S 
ATOM     18  O   UNL     1      -0.526   8.977  20.841  0.00  0.00    +0.000 OA
ATOM     19  O   UNL     1       1.490  10.448  21.085  0.00  0.00    +0.000 OA
BRANCH  17  23
ATOM     20  C   UNL     1       3.414   6.536  18.429  0.00  0.00    +0.000 A 
ATOM     21  C   UNL     1       2.765   6.317  19.647  0.00  0.00    +0.000 A 
ATOM     22  C   UNL     1       1.878   7.257  20.166  0.00  0.00    +0.000 A 
ATOM     23  C   UNL     1       1.638   8.438  19.469  0.00  0.00    +0.000 A 
ATOM     24  C   UNL     1       2.240   8.667  18.228  0.00  0.00    +0.000 A 
ATOM     25  C   UNL     1       3.127   7.709  17.713  0.00  0.00    +0.000 A 
BRANCH  20  29
ATOM     26  C   UNL     1       6.356   4.310  17.608  0.00  0.00    +0.000 C 
ATOM     27  C   UNL     1       5.544   5.224  18.488  0.00  0.00    +0.000 C 
ATOM     28  O   UNL     1       5.960   5.542  19.596  0.00  0.00    +0.000 OA
ATOM     29  N   UNL     1       4.362   5.637  17.890  0.00  0.00    +0.000 N 
ATOM     30  H   UNL     1       4.171   5.283  16.961  0.00  0.00    +0.000 HD
ENDBRANCH  20  29
ENDBRANCH  17  23
ENDBRANCH   1  17
TORSDOF 6
ENDMDL
