MODEL 1
REMARK VINA RESULT:      -7.4      0.000      0.000
REMARK  Name = 
REMARK  5 active torsions:
REMARK  status: ('A' for Active; 'I' for Inactive)
REMARK    1  A    between atoms: C_1  and  C_2
REMARK    2  A    between atoms: C_2  and  O_3
REMARK    3  A    between atoms: O_3  and  C_4
REMARK    4  A    between atoms: C_4  and  C_6
REMARK    5  A    between atoms: C_11  and  C_13
REMARK                            x       y       z     vdW  Elec       q    Type
REMARK                         _______ _______ _______ _____ _____    ______ ____
ROOT
ATOM      1  C   UNL     1       3.363   4.542  17.875  0.00  0.00    +0.000 C 
ATOM      2  C   UNL     1       4.030   4.308  19.237  0.00  0.00    +0.000 C 
ATOM      3  C   UNL     1       5.555   4.218  19.201  0.00  0.00    +0.000 C 
ATOM      4  C   UNL     1       6.252   5.414  18.552  0.00  0.00    +0.000 C 
ATOM      5  N   UNL     1       6.129   5.386  17.086  0.00  0.00    +0.000 N 
ATOM      6  C   UNL     1       7.173   4.780  16.369  0.00  0.00    +0.000 C 
ATOM      7  O   UNL     1       8.124   4.239  16.932  0.00  0.00    +0.000 OA
ATOM      8  C   UNL     1       4.923   5.967  16.496  0.00  0.00    +0.000 C 
ATOM      9  C   UNL     1       3.653   5.940  17.337  0.00  0.00    +0.000 C 
ENDROOT
BRANCH   6  10
ATOM     10  C   UNL     1       7.149   4.701  14.874  0.00  0.00    +0.000 A 
ATOM     11  C   UNL     1       8.000   5.439  14.041  0.00  0.00    +0.000 A 
ATOM     12  C   UNL     1       7.848   5.402  12.653  0.00  0.00    +0.000 A 
ATOM     13  C   UNL     1       6.907   4.551  12.081  0.00  0.00    +0.000 A 
ATOM     14  C   UNL     1       6.131   3.733  12.898  0.00  0.00    +0.000 A 
ATOM     15 CL   UNL     1       5.029   2.621  12.182  0.00  0.00    +0.000 Cl
ATOM     16  C   UNL     1       6.239   3.809  14.286  0.00  0.00    +0.000 A 
ENDBRANCH   6  10
BRANCH   1  17
ATOM     17  C   UNL     1       1.872   4.360  18.061  0.00  0.00    +0.000 C 
ATOM     18  O   UNL     1       1.061   4.273  17.151  0.00  0.00    +0.000 OA
BRANCH  17  19
ATOM     19  O   UNL     1       1.573   4.436  19.387  0.00  0.00    +0.000 OA
BRANCH  19  21
ATOM     20  C   UNL     1       1.304   2.861  21.156  0.00  0.00    +0.000 C 
ATOM     21  C   UNL     1       0.703   3.406  19.873  0.00  0.00    +0.000 C 
ENDBRANCH  19  21
ENDBRANCH  17  19
ENDBRANCH   1  17
TORSDOF 4
ENDMDL
MODEL 2
REMARK VINA RESULT:      -7.0      1.309      1.676
REMARK  Name = 
REMARK  5 active torsions:
REMARK  status: ('A' for Active; 'I' for Inactive)
REMARK    1  A    between atoms: C_1  and  C_2
REMARK    2  A    between atoms: C_2  and  O_3
REMARK    3  A    between atoms: O_3  and  C_4
REMARK    4  A    between atoms: C_4  and  C_6
REMARK    5  A    between atoms: C_11  and  C_13
REMARK                            x       y       z     vdW  Elec       q    Type
REMARK                         _______ _______ _______ _____ _____    ______ ____
ROOT
ATOM      1  C   UNL     1       3.330   3.800  18.051  0.00  0.00    +0.000 C 
ATOM      2  C   UNL     1       4.094   3.709  19.378  0.00  0.00    +0.000 C 
ATOM      3  C   UNL     1       5.610   3.862  19.261  0.00  0.00    +0.000 C 
ATOM      4  C   UNL     1       6.072   5.137  18.556  0.00  0.00    +0.000 C 
ATOM      5  N   UNL     1       5.881   5.054  17.100  0.00  0.00    +0.000 N 
ATOM      6  C   UNL     1       6.971   4.604  16.337  0.00  0.00    +0.000 C 
ATOM      7  O   UNL     1       8.024   4.236  16.856  0.00  0.00    +0.000 OA
ATOM      8  C   UNL     1       4.569   5.420  16.566  0.00  0.00    +0.000 C 
ATOM      9  C   UNL     1       3.364   5.213  17.475  0.00  0.00    +0.000 C 
ENDROOT
BRANCH   6  10
ATOM     10  C   UNL     1       6.884   4.485  14.847  0.00  0.00    +0.000 A 
ATOM     11  C   UNL     1       6.094   3.537  14.184  0.00  0.00    +0.000 A 
ATOM     12  C   UNL     1       6.147   3.409  12.795  0.00  0.00    +0.000 A 
ATOM     13  C   UNL     1       6.918   4.293  12.046  0.00  0.00    +0.000 A 
ATOM     14  C   UNL     1       7.622   5.309  12.689  0.00  0.00    +0.000 A 
ATOM     15 CL   UNL     1       8.505   6.452  11.753  0.00  0.00    +0.000 Cl
ATOM     16  C   UNL     1       7.618   5.404  14.080  0.00  0.00    +0.000 A 
ENDBRANCH   6  10
BRANCH   1  17
ATOM     17  C   UNL     1       1.899   3.387  18.320  0.00  0.00    +0.000 C 
ATOM     18  O   UNL     1       0.935   3.738  17.655  0.00  0.00    +0.000 OA
BRANCH  17  19
ATOM     19  O   UNL     1       1.847   2.676  19.480  0.00  0.00    +0.000 OA
BRANCH  19  21
ATOM     20  C   UNL     1       1.408   2.545  21.819  0.00  0.00    +0.000 C 
ATOM     21  C   UNL     1       1.092   3.287  20.533  0.00  0.00    +0.000 C 
ENDBRANCH  19  21
ENDBRANCH  17  19
ENDBRANCH   1  17
TORSDOF 4
ENDMDL
MODEL 3
REMARK VINA RESULT:      -6.8      2.925      6.947
REMARK  Name = 
REMARK  5 active torsions:
REMARK  status: ('A' for Active; 'I' for Inactive)
REMARK    1  A    between atoms: C_1  and  C_2
REMARK    2  A    between atoms: C_2  and  O_3
REMARK    3  A    between atoms: O_3  and  C_4
REMARK    4  A    between atoms: C_4  and  C_6
REMARK    5  A    between atoms: C_11  and  C_13
REMARK                            x       y       z     vdW  Elec       q    Type
REMARK                         _______ _______ _______ _____ _____    ______ ____
ROOT
ATOM      1  C   UNL     1       5.625   4.971  15.512  0.00  0.00    +0.000 C 
ATOM      2  C   UNL     1       5.687   6.492  15.321  0.00  0.00    +0.000 C 
ATOM      3  C   UNL     1       4.718   7.290  16.192  0.00  0.00    +0.000 C 
ATOM      4  C   UNL     1       4.830   7.015  17.692  0.00  0.00    +0.000 C 
ATOM      5  N   UNL     1       4.227   5.723  18.054  0.00  0.00    +0.000 N 
ATOM      6  C   UNL     1       2.885   5.738  18.468  0.00  0.00    +0.000 C 
ATOM      7  O   UNL     1       2.215   6.770  18.475  0.00  0.00    +0.000 OA
ATOM      8  C   UNL     1       5.060   4.527  17.930  0.00  0.00    +0.000 C 
ATOM      9  C   UNL     1       6.161   4.551  16.877  0.00  0.00    +0.000 C 
ENDROOT
BRANCH   6  10
ATOM     10  C   UNL     1       2.176   4.480  18.863  0.00  0.00    +0.000 A 
ATOM     11  C   UNL     1       1.522   3.636  17.956  0.00  0.00    +0.000 A 
ATOM     12  C   UNL     1       0.785   2.538  18.406  0.00  0.00    +0.000 A 
ATOM     13  C   UNL     1       0.776   2.217  19.760  0.00  0.00    +0.000 A 
ATOM     14  C   UNL     1       1.513   2.988  20.656  0.00  0.00    +0.000 A 
ATOM     15 CL   UNL     1       1.568   2.537  22.316  0.00  0.00    +0.000 Cl
ATOM     16  C   UNL     1       2.203   4.119  20.219  0.00  0.00    +0.000 A 
ENDBRANCH   6  10
BRANCH   1  17
ATOM     17  C   UNL     1       6.457   4.340  14.416  0.00  0.00    +0.000 C 
ATOM     18  O   UNL     1       7.627   4.609  14.186  0.00  0.00    +0.000 OA
BRANCH  17  19
ATOM     19  O   UNL     1       5.664   3.531  13.660  0.00  0.00    +0.000 OA
BRANCH  19  21
ATOM     20  C   UNL     1       4.782   2.989  11.513  0.00  0.00    +0.000 C 
ATOM     21  C   UNL     1       6.005   3.474  12.269  0.00  0.00    +0.000 C 
ENDBRANCH  19  21
ENDBRANCH  17  19
ENDBRANCH   1  17
TORSDOF 4
ENDMDL
MODEL 4
REMARK VINA RESULT:      -6.7      0.759      1.048
REMARK  Name = 
REMARK  5 active torsions:
REMARK  status: ('A' for Active; 'I' for Inactive)
REMARK    1  A    between atoms: C_1  and  C_2
REMARK    2  A    between atoms: C_2  and  O_3
REMARK    3  A    between atoms: O_3  and  C_4
REMARK    4  A    between atoms: C_4  and  C_6
REMARK    5  A    between atoms: C_11  and  C_13
REMARK                            x       y       z     vdW  Elec       q    Type
REMARK                         _______ _______ _______ _____ _____    ______ ____
ROOT
ATOM      1  C   UNL     1       3.584   5.115  17.844  0.00  0.00    +0.000 C 
ATOM      2  C   UNL     1       4.264   4.832  19.190  0.00  0.00    +0.000 C 
ATOM      3  C   UNL     1       5.764   4.553  19.107  0.00  0.00    +0.000 C 
ATOM      4  C   UNL     1       6.580   5.638  18.404  0.00  0.00    +0.000 C 
ATOM      5  N   UNL     1       6.403   5.591  16.944  0.00  0.00    +0.000 N 
ATOM      6  C   UNL     1       7.338   4.844  16.211  0.00  0.00    +0.000 C 
ATOM      7  O   UNL     1       8.235   4.203  16.758  0.00  0.00    +0.000 OA
ATOM      8  C   UNL     1       5.258   6.303  16.377  0.00  0.00    +0.000 C 
ATOM      9  C   UNL     1       4.024   6.454  17.259  0.00  0.00    +0.000 C 
ENDROOT
BRANCH   6  10
ATOM     10  C   UNL     1       7.253   4.734  14.720  0.00  0.00    +0.000 A 
ATOM     11  C   UNL     1       8.074   5.446  13.837  0.00  0.00    +0.000 A 
ATOM     12  C   UNL     1       7.866   5.381  12.458  0.00  0.00    +0.000 A 
ATOM     13  C   UNL     1       6.895   4.527  11.943  0.00  0.00    +0.000 A 
ATOM     14  C   UNL     1       6.146   3.733  12.809  0.00  0.00    +0.000 A 
ATOM     15 CL   UNL     1       5.007   2.616  12.162  0.00  0.00    +0.000 Cl
ATOM     16  C   UNL     1       6.312   3.838  14.189  0.00  0.00    +0.000 A 
ENDBRANCH   6  10
BRANCH   1  17
ATOM     17  C   UNL     1       2.089   5.124  18.082  0.00  0.00    +0.000 C 
ATOM     18  O   UNL     1       1.510   5.875  18.853  0.00  0.00    +0.000 OA
BRANCH  17  19
ATOM     19  O   UNL     1       1.520   4.090  17.402  0.00  0.00    +0.000 OA
BRANCH  19  21
ATOM     20  C   UNL     1       0.868   2.448  19.003  0.00  0.00    +0.000 C 
ATOM     21  C   UNL     1       1.850   2.785  17.896  0.00  0.00    +0.000 C 
ENDBRANCH  19  21
ENDBRANCH  17  19
ENDBRANCH   1  17
TORSDOF 4
ENDMDL
MODEL 5
REMARK VINA RESULT:      -6.6      1.453      1.848
REMARK  Name = 
REMARK  5 active torsions:
REMARK  status: ('A' for Active; 'I' for Inactive)
REMARK    1  A    between atoms: C_1  and  C_2
REMARK    2  A    between atoms: C_2  and  O_3
REMARK    3  A    between atoms: O_3  and  C_4
REMARK    4  A    between atoms: C_4  and  C_6
REMARK    5  A    between atoms: C_11  and  C_13
REMARK                            x       y       z     vdW  Elec       q    Type
REMARK                         _______ _______ _______ _____ _____    ______ ____
ROOT
ATOM      1  C   UNL     1       3.764   5.711  18.250  0.00  0.00    +0.000 C 
ATOM      2  C   UNL     1       4.566   5.474  19.536  0.00  0.00    +0.000 C 
ATOM      3  C   UNL     1       6.008   5.017  19.321  0.00  0.00    +0.000 C 
ATOM      4  C   UNL     1       6.843   5.933  18.426  0.00  0.00    +0.000 C 
ATOM      5  N   UNL     1       6.491   5.775  17.006  0.00  0.00    +0.000 N 
ATOM      6  C   UNL     1       7.249   4.861  16.257  0.00  0.00    +0.000 C 
ATOM      7  O   UNL     1       8.133   4.173  16.767  0.00  0.00    +0.000 OA
ATOM      8  C   UNL     1       5.367   6.560  16.496  0.00  0.00    +0.000 C 
ATOM      9  C   UNL     1       4.269   6.932  17.486  0.00  0.00    +0.000 C 
ENDROOT
BRANCH   6  10
ATOM     10  C   UNL     1       6.976   4.628  14.804  0.00  0.00    +0.000 A 
ATOM     11  C   UNL     1       6.093   3.652  14.323  0.00  0.00    +0.000 A 
ATOM     12  C   UNL     1       5.971   3.414  12.953  0.00  0.00    +0.000 A 
ATOM     13  C   UNL     1       6.658   4.214  12.045  0.00  0.00    +0.000 A 
ATOM     14  C   UNL     1       7.455   5.257  12.512  0.00  0.00    +0.000 A 
ATOM     15 CL   UNL     1       8.235   6.297  11.384  0.00  0.00    +0.000 Cl
ATOM     16  C   UNL     1       7.625   5.462  13.881  0.00  0.00    +0.000 A 
ENDBRANCH   6  10
BRANCH   1  17
ATOM     17  C   UNL     1       2.317   5.914  18.646  0.00  0.00    +0.000 C 
ATOM     18  O   UNL     1       1.775   7.002  18.774  0.00  0.00    +0.000 OA
BRANCH  17  19
ATOM     19  O   UNL     1       1.763   4.709  18.955  0.00  0.00    +0.000 OA
BRANCH  19  21
ATOM     20  C   UNL     1       0.946   3.114  20.527  0.00  0.00    +0.000 C 
ATOM     21  C   UNL     1       1.354   4.561  20.321  0.00  0.00    +0.000 C 
ENDBRANCH  19  21
ENDBRANCH  17  19
ENDBRANCH   1  17
TORSDOF 4
ENDMDL
MODEL 6
REMARK VINA RESULT:      -6.5      4.130      7.435
REMARK  Name = 
REMARK  5 active torsions:
REMARK  status: ('A' for Active; 'I' for Inactive)
REMARK    1  A    between atoms: C_1  and  C_2
REMARK    2  A    between atoms: C_2  and  O_3
REMARK    3  A    between atoms: O_3  and  C_4
REMARK    4  A    between atoms: C_4  and  C_6
REMARK    5  A    between atoms: C_11  and  C_13
REMARK                            x       y       z     vdW  Elec       q    Type
REMARK                         _______ _______ _______ _____ _____    ______ ____
ROOT
ATOM      1  C   UNL     1       5.757   5.772  17.667  0.00  0.00    +0.000 C 
ATOM      2  C   UNL     1       5.951   4.391  18.306  0.00  0.00    +0.000 C 
ATOM      3  C   UNL     1       4.914   4.020  19.365  0.00  0.00    +0.000 C 
ATOM      4  C   UNL     1       3.461   4.106  18.898  0.00  0.00    +0.000 C 
ATOM      5  N   UNL     1       2.999   5.499  18.809  0.00  0.00    +0.000 N 
ATOM      6  C   UNL     1       2.346   6.029  19.934  0.00  0.00    +0.000 C 
ATOM      7  O   UNL     1       2.213   5.386  20.975  0.00  0.00    +0.000 OA
ATOM      8  C   UNL     1       3.277   6.228  17.572  0.00  0.00    +0.000 C 
ATOM      9  C   UNL     1       4.514   5.816  16.783  0.00  0.00    +0.000 C 
ENDROOT
BRANCH   6  10
ATOM     10  C   UNL     1       1.833   7.435  19.948  0.00  0.00    +0.000 A 
ATOM     11  C   UNL     1       1.870   8.290  18.839  0.00  0.00    +0.000 A 
ATOM     12  C   UNL     1       1.477   9.625  18.953  0.00  0.00    +0.000 A 
ATOM     13  C   UNL     1       0.951  10.093  20.154  0.00  0.00    +0.000 A 
ATOM     14  C   UNL     1       0.810   9.220  21.231  0.00  0.00    +0.000 A 
ATOM     15 CL   UNL     1       0.080   9.781  22.685  0.00  0.00    +0.000 Cl
ATOM     16  C   UNL     1       1.255   7.902  21.138  0.00  0.00    +0.000 A 
ENDBRANCH   6  10
BRANCH   1  17
ATOM     17  C   UNL     1       6.989   6.068  16.838  0.00  0.00    +0.000 C 
ATOM     18  O   UNL     1       7.496   7.173  16.713  0.00  0.00    +0.000 OA
BRANCH  17  19
ATOM     19  O   UNL     1       7.357   4.943  16.164  0.00  0.00    +0.000 OA
BRANCH  19  21
ATOM     20  C   UNL     1       6.295   3.888  14.309  0.00  0.00    +0.000 C 
ATOM     21  C   UNL     1       7.216   5.015  14.740  0.00  0.00    +0.000 C 
ENDBRANCH  19  21
ENDBRANCH  17  19
ENDBRANCH   1  17
TORSDOF 4
ENDMDL
MODEL 7
REMARK VINA RESULT:      -6.5      4.420      7.661
REMARK  Name = 
REMARK  5 active torsions:
REMARK  status: ('A' for Active; 'I' for Inactive)
REMARK    1  A    between atoms: C_1  and  C_2
REMARK    2  A    between atoms: C_2  and  O_3
REMARK    3  A    between atoms: O_3  and  C_4
REMARK    4  A    between atoms: C_4  and  C_6
REMARK    5  A    between atoms: C_11  and  C_13
REMARK                            x       y       z     vdW  Elec       q    Type
REMARK                         _______ _______ _______ _____ _____    ______ ____
ROOT
ATOM      1  C   UNL     1       5.687   5.951  17.772  0.00  0.00    +0.000 C 
ATOM      2  C   UNL     1       5.888   4.540  18.339  0.00  0.00    +0.000 C 
ATOM      3  C   UNL     1       4.843   4.104  19.366  0.00  0.00    +0.000 C 
ATOM      4  C   UNL     1       3.395   4.201  18.887  0.00  0.00    +0.000 C 
ATOM      5  N   UNL     1       2.920   5.593  18.867  0.00  0.00    +0.000 N 
ATOM      6  C   UNL     1       2.250   6.056  20.010  0.00  0.00    +0.000 C 
ATOM      7  O   UNL     1       2.111   5.357  21.014  0.00  0.00    +0.000 OA
ATOM      8  C   UNL     1       3.205   6.389  17.673  0.00  0.00    +0.000 C 
ATOM      9  C   UNL     1       4.454   6.031  16.878  0.00  0.00    +0.000 C 
ENDROOT
BRANCH   6  10
ATOM     10  C   UNL     1       1.723   7.454  20.093  0.00  0.00    +0.000 A 
ATOM     11  C   UNL     1       1.691   8.342  19.010  0.00  0.00    +0.000 A 
ATOM     12  C   UNL     1       1.291   9.668  19.184  0.00  0.00    +0.000 A 
ATOM     13  C   UNL     1       0.824  10.094  20.424  0.00  0.00    +0.000 A 
ATOM     14  C   UNL     1       0.750   9.189  21.481  0.00  0.00    +0.000 A 
ATOM     15 CL   UNL     1       0.093   9.698  22.988  0.00  0.00    +0.000 Cl
ATOM     16  C   UNL     1       1.204   7.879  21.326  0.00  0.00    +0.000 A 
ENDBRANCH   6  10
BRANCH   1  17
ATOM     17  C   UNL     1       6.926   6.302  16.975  0.00  0.00    +0.000 C 
ATOM     18  O   UNL     1       7.638   5.492  16.401  0.00  0.00    +0.000 OA
BRANCH  17  19
ATOM     19  O   UNL     1       7.182   7.633  17.107  0.00  0.00    +0.000 OA
BRANCH  19  21
ATOM     20  C   UNL     1       8.349   9.473  18.074  0.00  0.00    +0.000 C 
ATOM     21  C   UNL     1       8.146   7.969  18.112  0.00  0.00    +0.000 C 
ENDBRANCH  19  21
ENDBRANCH  17  19
ENDBRANCH   1  17
TORSDOF 4
ENDMDL
MODEL 8
REMARK VINA RESULT:      -6.5      2.477      6.819
REMARK  Name = 
REMARK  5 active torsions:
REMARK  status: ('A' for Active; 'I' for Inactive)
REMARK    1  A    between atoms: C_1  and  C_2
REMARK    2  A    between atoms: C_2  and  O_3
REMARK    3  A    between atoms: O_3  and  C_4
REMARK    4  A    between atoms: C_4  and  C_6
REMARK    5  A    between atoms: C_11  and  C_13
REMARK                            x       y       z     vdW  Elec       q    Type
REMARK                         _______ _______ _______ _____ _____    ______ ____
ROOT
ATOM      1  C   UNL     1       5.411   5.143  16.011  0.00  0.00    +0.000 C 
ATOM      2  C   UNL     1       5.288   6.607  15.570  0.00  0.00    +0.000 C 
ATOM      3  C   UNL     1       4.328   7.454  16.405  0.00  0.00    +0.000 C 
ATOM      4  C   UNL     1       4.615   7.453  17.907  0.00  0.00    +0.000 C 
ATOM      5  N   UNL     1       4.194   6.195  18.541  0.00  0.00    +0.000 N 
ATOM      6  C   UNL     1       2.906   6.159  19.098  0.00  0.00    +0.000 C 
ATOM      7  O   UNL     1       2.132   7.113  19.014  0.00  0.00    +0.000 OA
ATOM      8  C   UNL     1       5.136   5.076  18.518  0.00  0.00    +0.000 C 
ATOM      9  C   UNL     1       6.120   5.017  17.356  0.00  0.00    +0.000 C 
ENDROOT
BRANCH   6  10
ATOM     10  C   UNL     1       2.380   4.930  19.771  0.00  0.00    +0.000 A 
ATOM     11  C   UNL     1       2.477   4.692  21.148  0.00  0.00    +0.000 A 
ATOM     12  C   UNL     1       2.066   3.474  21.692  0.00  0.00    +0.000 A 
ATOM     13  C   UNL     1       1.464   2.518  20.879  0.00  0.00    +0.000 A 
ATOM     14  C   UNL     1       1.265   2.791  19.528  0.00  0.00    +0.000 A 
ATOM     15 CL   UNL     1       0.443   1.641  18.544  0.00  0.00    +0.000 Cl
ATOM     16  C   UNL     1       1.726   3.982  18.969  0.00  0.00    +0.000 A 
ENDBRANCH   6  10
BRANCH   1  17
ATOM     17  C   UNL     1       6.195   4.410  14.944  0.00  0.00    +0.000 C 
ATOM     18  O   UNL     1       7.415   4.385  14.868  0.00  0.00    +0.000 OA
BRANCH  17  19
ATOM     19  O   UNL     1       5.331   3.897  14.025  0.00  0.00    +0.000 OA
BRANCH  19  21
ATOM     20  C   UNL     1       4.817   3.279  11.781  0.00  0.00    +0.000 C 
ATOM     21  C   UNL     1       5.931   3.484  12.791  0.00  0.00    +0.000 C 
ENDBRANCH  19  21
ENDBRANCH  17  19
ENDBRANCH   1  17
TORSDOF 4
ENDMDL
MODEL 9
REMARK VINA RESULT:      -6.5      3.121      6.688
REMARK  Name = 
REMARK  5 active torsions:
REMARK  status: ('A' for Active; 'I' for Inactive)
REMARK    1  A    between atoms: C_1  and  C_2
REMARK    2  A    between atoms: C_2  and  O_3
REMARK    3  A    between atoms: O_3  and  C_4
REMARK    4  A    between atoms: C_4  and  C_6
REMARK    5  A    between atoms: C_11  and  C_13
REMARK                            x       y       z     vdW  Elec       q    Type
REMARK                         _______ _______ _______ _____ _____    ______ ____
ROOT
ATOM      1  C   UNL     1       5.904   4.416  14.752  0.00  0.00    +0.000 C 
ATOM      2  C   UNL     1       6.971   5.471  15.073  0.00  0.00    +0.000 C 
ATOM      3  C   UNL     1       6.868   6.090  16.466  0.00  0.00    +0.000 C 
ATOM      4  C   UNL     1       6.863   5.082  17.616  0.00  0.00    +0.000 C 
ATOM      5  N   UNL     1       5.568   4.394  17.731  0.00  0.00    +0.000 N 
ATOM      6  C   UNL     1       4.627   4.944  18.616  0.00  0.00    +0.000 C 
ATOM      7  O   UNL     1       4.842   5.990  19.229  0.00  0.00    +0.000 OA
ATOM      8  C   UNL     1       5.354   3.210  16.898  0.00  0.00    +0.000 C 
ATOM      9  C   UNL     1       6.102   3.145  15.573  0.00  0.00    +0.000 C 
ENDROOT
BRANCH   6  10
ATOM     10  C   UNL     1       3.281   4.321  18.811  0.00  0.00    +0.000 A 
ATOM     11  C   UNL     1       2.301   4.251  17.812  0.00  0.00    +0.000 A 
ATOM     12  C   UNL     1       1.027   3.756  18.095  0.00  0.00    +0.000 A 
ATOM     13  C   UNL     1       0.749   3.236  19.356  0.00  0.00    +0.000 A 
ATOM     14  C   UNL     1       1.751   3.202  20.323  0.00  0.00    +0.000 A 
ATOM     15 CL   UNL     1       1.428   2.481  21.852  0.00  0.00    +0.000 Cl
ATOM     16  C   UNL     1       3.007   3.748  20.063  0.00  0.00    +0.000 A 
ENDBRANCH   6  10
BRANCH   1  17
ATOM     17  C   UNL     1       6.007   4.098  13.276  0.00  0.00    +0.000 C 
ATOM     18  O   UNL     1       7.005   4.275  12.592  0.00  0.00    +0.000 OA
BRANCH  17  19
ATOM     19  O   UNL     1       4.787   3.708  12.815  0.00  0.00    +0.000 OA
BRANCH  19  21
ATOM     20  C   UNL     1       3.595   3.387  10.776  0.00  0.00    +0.000 C 
ATOM     21  C   UNL     1       4.809   2.971  11.585  0.00  0.00    +0.000 C 
ENDBRANCH  19  21
ENDBRANCH  17  19
ENDBRANCH   1  17
TORSDOF 4
ENDMDL
