MODEL 1
REMARK VINA RESULT:      -8.8      0.000      0.000
REMARK  Name = 
REMARK  7 active torsions:
REMARK  status: ('A' for Active; 'I' for Inactive)
REMARK    1  A    between atoms: C_1  and  O_2
REMARK    2  A    between atoms: O_2  and  C_3
REMARK    3  A    between atoms: C_3  and  C_5
REMARK    4  A    between atoms: N_8  and  C_9
REMARK    5  A    between atoms: C_11  and  O_12
REMARK    6  A    between atoms: O_12  and  C_13
REMARK    7  A    between atoms: C_20  and  N_21
REMARK                            x       y       z     vdW  Elec       q    Type
REMARK                         _______ _______ _______ _____ _____    ______ ____
ROOT
ATOM      1  C   UNL     1       1.941   4.103  18.697  0.00  0.00    +0.000 A 
ATOM      2  N   UNL     1       2.010   5.381  19.113  0.00  0.00    +0.000 NA
ATOM      3  C   UNL     1       2.954   6.152  18.552  0.00  0.00    +0.000 A 
ATOM      4  N   UNL     1       3.051   7.497  18.980  0.00  0.00    +0.000 N 
ATOM      5  C   UNL     1       3.826   5.669  17.557  0.00  0.00    +0.000 A 
ATOM      6  C   UNL     1       4.841   6.424  16.912  0.00  0.00    +0.000 A 
ATOM      7  C   UNL     1       5.597   5.873  15.878  0.00  0.00    +0.000 A 
ATOM      8  C   UNL     1       5.354   4.568  15.475  0.00  0.00    +0.000 A 
ATOM      9  C   UNL     1       4.375   3.812  16.125  0.00  0.00    +0.000 A 
ATOM     10  C   UNL     1       3.613   4.339  17.164  0.00  0.00    +0.000 A 
ATOM     11  N   UNL     1       2.698   3.555  17.734  0.00  0.00    +0.000 NA
ATOM     12  H   UNL     1       3.962   7.700  19.374  0.00  0.00    +0.000 HD
ENDROOT
BRANCH   4  13
ATOM     13  C   UNL     1       2.012   8.355  19.394  0.00  0.00    +0.000 A 
ATOM     14  C   UNL     1       1.301   9.109  18.446  0.00  0.00    +0.000 A 
ATOM     15  C   UNL     1       0.180   9.864  18.815  0.00  0.00    +0.000 A 
ATOM     16  C   UNL     1      -0.303   9.798  20.122  0.00  0.00    +0.000 A 
ATOM     17  C   UNL     1       0.442   9.117  21.086  0.00  0.00    +0.000 A 
ATOM     18  C   UNL     1       1.606   8.418  20.734  0.00  0.00    +0.000 A 
BRANCH  17  19
ATOM     19  N   UNL     1      -0.011   9.129  22.479  0.00  0.00    +0.000 N 
ATOM     20  O   UNL     1       0.610   9.844  23.283  0.00  0.00    +0.000 OA
ATOM     21  O   UNL     1      -0.979   8.421  22.782  0.00  0.00    +0.000 OA
ENDBRANCH  17  19
BRANCH  15  22
ATOM     22  O   UNL     1      -0.429  10.605  17.823  0.00  0.00    +0.000 OA
BRANCH  22  23
ATOM     23  C   UNL     1      -1.798  10.790  17.868  0.00  0.00    +0.000 A 
ATOM     24  C   UNL     1      -2.433  11.755  18.659  0.00  0.00    +0.000 A 
ATOM     25  C   UNL     1      -3.827  11.834  18.689  0.00  0.00    +0.000 A 
ATOM     26  C   UNL     1      -4.588  10.996  17.878  0.00  0.00    +0.000 A 
ATOM     27  C   UNL     1      -3.958  10.080  17.037  0.00  0.00    +0.000 A 
ATOM     28  C   UNL     1      -2.564   9.975  17.033  0.00  0.00    +0.000 A 
ENDBRANCH  22  23
ENDBRANCH  15  22
ENDBRANCH   4  13
BRANCH   1  29
ATOM     29  C   UNL     1       0.967   3.185  19.386  0.00  0.00    +0.000 C 
ATOM     30  O   UNL     1       0.359   2.273  18.844  0.00  0.00    +0.000 OA
BRANCH  29  32
ATOM     31  C   UNL     1       1.630   2.666  21.573  0.00  0.00    +0.000 C 
ATOM     32  O   UNL     1       0.873   3.510  20.707  0.00  0.00    +0.000 OA
ENDBRANCH  29  32
ENDBRANCH   1  29
TORSDOF 6
ENDMDL
MODEL 2
REMARK VINA RESULT:      -8.7      0.197      1.047
REMARK  Name = 
REMARK  7 active torsions:
REMARK  status: ('A' for Active; 'I' for Inactive)
REMARK    1  A    between atoms: C_1  and  O_2
REMARK    2  A    between atoms: O_2  and  C_3
REMARK    3  A    between atoms: C_3  and  C_5
REMARK    4  A    between atoms: N_8  and  C_9
REMARK    5  A    between atoms: C_11  and  O_12
REMARK    6  A    between atoms: O_12  and  C_13
REMARK    7  A    between atoms: C_20  and  N_21
REMARK                            x       y       z     vdW  Elec       q    Type
REMARK                         _______ _______ _______ _____ _____    ______ ____
ROOT
ATOM      1  C   UNL     1       1.909   4.032  18.819  0.00  0.00    +0.000 A 
ATOM      2  N   UNL     1       1.995   5.320  19.198  0.00  0.00    +0.000 NA
ATOM      3  C   UNL     1       2.950   6.062  18.614  0.00  0.00    +0.000 A 
ATOM      4  N   UNL     1       3.066   7.417  19.003  0.00  0.00    +0.000 N 
ATOM      5  C   UNL     1       3.814   5.538  17.633  0.00  0.00    +0.000 A 
ATOM      6  C   UNL     1       4.838   6.260  16.966  0.00  0.00    +0.000 A 
ATOM      7  C   UNL     1       5.585   5.669  15.947  0.00  0.00    +0.000 A 
ATOM      8  C   UNL     1       5.324   4.356  15.582  0.00  0.00    +0.000 A 
ATOM      9  C   UNL     1       4.336   3.634  16.255  0.00  0.00    +0.000 A 
ATOM     10  C   UNL     1       3.582   4.201  17.279  0.00  0.00    +0.000 A 
ATOM     11  N   UNL     1       2.657   3.446  17.871  0.00  0.00    +0.000 NA
ATOM     12  H   UNL     1       3.980   7.618  19.390  0.00  0.00    +0.000 HD
ENDROOT
BRANCH   4  13
ATOM     13  C   UNL     1       2.039   8.301  19.392  0.00  0.00    +0.000 A 
ATOM     14  C   UNL     1       1.372   9.075  18.428  0.00  0.00    +0.000 A 
ATOM     15  C   UNL     1       0.262   9.858  18.771  0.00  0.00    +0.000 A 
ATOM     16  C   UNL     1      -0.256   9.802  20.065  0.00  0.00    +0.000 A 
ATOM     17  C   UNL     1       0.447   9.100  21.046  0.00  0.00    +0.000 A 
ATOM     18  C   UNL     1       1.600   8.372  20.722  0.00  0.00    +0.000 A 
BRANCH  17  19
ATOM     19  N   UNL     1      -0.041   9.122  22.427  0.00  0.00    +0.000 N 
ATOM     20  O   UNL     1      -0.929   8.311  22.739  0.00  0.00    +0.000 OA
ATOM     21  O   UNL     1       0.449   9.950  23.205  0.00  0.00    +0.000 OA
ENDBRANCH  17  19
BRANCH  15  22
ATOM     22  O   UNL     1      -0.302  10.617  17.766  0.00  0.00    +0.000 OA
BRANCH  22  23
ATOM     23  C   UNL     1      -1.679  10.687  17.671  0.00  0.00    +0.000 A 
ATOM     24  C   UNL     1      -2.455   9.838  16.872  0.00  0.00    +0.000 A 
ATOM     25  C   UNL     1      -3.837  10.017  16.789  0.00  0.00    +0.000 A 
ATOM     26  C   UNL     1      -4.457  11.002  17.554  0.00  0.00    +0.000 A 
ATOM     27  C   UNL     1      -3.698  11.806  18.403  0.00  0.00    +0.000 A 
ATOM     28  C   UNL     1      -2.310  11.650  18.461  0.00  0.00    +0.000 A 
ENDBRANCH  22  23
ENDBRANCH  15  22
ENDBRANCH   4  13
BRANCH   1  29
ATOM     29  C   UNL     1       0.923   3.148  19.535  0.00  0.00    +0.000 C 
ATOM     30  O   UNL     1       0.182   2.340  18.992  0.00  0.00    +0.000 OA
BRANCH  29  32
ATOM     31  C   UNL     1       1.985   2.602  21.552  0.00  0.00    +0.000 C 
ATOM     32  O   UNL     1       0.987   3.368  20.879  0.00  0.00    +0.000 OA
ENDBRANCH  29  32
ENDBRANCH   1  29
TORSDOF 6
ENDMDL
MODEL 3
REMARK VINA RESULT:      -8.4      3.124      5.506
REMARK  Name = 
REMARK  7 active torsions:
REMARK  status: ('A' for Active; 'I' for Inactive)
REMARK    1  A    between atoms: C_1  and  O_2
REMARK    2  A    between atoms: O_2  and  C_3
REMARK    3  A    between atoms: C_3  and  C_5
REMARK    4  A    between atoms: N_8  and  C_9
REMARK    5  A    between atoms: C_11  and  O_12
REMARK    6  A    between atoms: O_12  and  C_13
REMARK    7  A    between atoms: C_20  and  N_21
REMARK                            x       y       z     vdW  Elec       q    Type
REMARK                         _______ _______ _______ _____ _____    ______ ____
ROOT
ATOM      1  C   UNL     1       7.044   6.688  17.229  0.00  0.00    +0.000 A 
ATOM      2  N   UNL     1       5.759   6.524  17.589  0.00  0.00    +0.000 NA
ATOM      3  C   UNL     1       4.985   5.798  16.767  0.00  0.00    +0.000 A 
ATOM      4  N   UNL     1       3.627   5.619  17.120  0.00  0.00    +0.000 N 
ATOM      5  C   UNL     1       5.486   5.209  15.589  0.00  0.00    +0.000 A 
ATOM      6  C   UNL     1       4.734   4.423  14.677  0.00  0.00    +0.000 A 
ATOM      7  C   UNL     1       5.347   3.815  13.581  0.00  0.00    +0.000 A 
ATOM      8  C   UNL     1       6.709   3.983  13.380  0.00  0.00    +0.000 A 
ATOM      9  C   UNL     1       7.447   4.779  14.260  0.00  0.00    +0.000 A 
ATOM     10  C   UNL     1       6.856   5.400  15.357  0.00  0.00    +0.000 A 
ATOM     11  N   UNL     1       7.627   6.142  16.150  0.00  0.00    +0.000 NA
ATOM     12  H   UNL     1       3.004   5.989  16.412  0.00  0.00    +0.000 HD
ENDROOT
BRANCH   4  13
ATOM     13  C   UNL     1       3.072   5.507  18.411  0.00  0.00    +0.000 A 
ATOM     14  C   UNL     1       2.681   6.660  19.113  0.00  0.00    +0.000 A 
ATOM     15  C   UNL     1       2.004   6.567  20.337  0.00  0.00    +0.000 A 
ATOM     16  C   UNL     1       1.624   5.319  20.827  0.00  0.00    +0.000 A 
ATOM     17  C   UNL     1       2.077   4.169  20.180  0.00  0.00    +0.000 A 
ATOM     18  C   UNL     1       2.817   4.257  18.991  0.00  0.00    +0.000 A 
BRANCH  17  19
ATOM     19  N   UNL     1       1.762   2.857  20.750  0.00  0.00    +0.000 N 
ATOM     20  O   UNL     1       1.593   1.910  19.964  0.00  0.00    +0.000 OA
ATOM     21  O   UNL     1       1.673   2.763  21.980  0.00  0.00    +0.000 OA
ENDBRANCH  17  19
BRANCH  15  22
ATOM     22  O   UNL     1       1.698   7.752  20.972  0.00  0.00    +0.000 OA
BRANCH  22  23
ATOM     23  C   UNL     1       1.086   8.761  20.252  0.00  0.00    +0.000 A 
ATOM     24  C   UNL     1       1.443   9.122  18.947  0.00  0.00    +0.000 A 
ATOM     25  C   UNL     1       0.811  10.193  18.314  0.00  0.00    +0.000 A 
ATOM     26  C   UNL     1      -0.226  10.866  18.956  0.00  0.00    +0.000 A 
ATOM     27  C   UNL     1      -0.633  10.467  20.229  0.00  0.00    +0.000 A 
ATOM     28  C   UNL     1       0.023   9.417  20.877  0.00  0.00    +0.000 A 
ENDBRANCH  22  23
ENDBRANCH  15  22
ENDBRANCH   4  13
BRANCH   1  29
ATOM     29  C   UNL     1       7.907   7.588  18.073  0.00  0.00    +0.000 C 
ATOM     30  O   UNL     1       8.577   7.222  19.029  0.00  0.00    +0.000 OA
BRANCH  29  32
ATOM     31  C   UNL     1       8.634   9.799  18.343  0.00  0.00    +0.000 C 
ATOM     32  O   UNL     1       7.845   8.867  17.606  0.00  0.00    +0.000 OA
ENDBRANCH  29  32
ENDBRANCH   1  29
TORSDOF 6
ENDMDL
MODEL 4
REMARK VINA RESULT:      -8.3      3.115      5.445
REMARK  Name = 
REMARK  7 active torsions:
REMARK  status: ('A' for Active; 'I' for Inactive)
REMARK    1  A    between atoms: C_1  and  O_2
REMARK    2  A    between atoms: O_2  and  C_3
REMARK    3  A    between atoms: C_3  and  C_5
REMARK    4  A    between atoms: N_8  and  C_9
REMARK    5  A    between atoms: C_11  and  O_12
REMARK    6  A    between atoms: O_12  and  C_13
REMARK    7  A    between atoms: C_20  and  N_21
REMARK                            x       y       z     vdW  Elec       q    Type
REMARK                         _______ _______ _______ _____ _____    ______ ____
ROOT
ATOM      1  C   UNL     1       7.035   6.688  17.233  0.00  0.00    +0.000 A 
ATOM      2  N   UNL     1       5.749   6.522  17.591  0.00  0.00    +0.000 NA
ATOM      3  C   UNL     1       4.978   5.794  16.768  0.00  0.00    +0.000 A 
ATOM      4  N   UNL     1       3.620   5.614  17.119  0.00  0.00    +0.000 N 
ATOM      5  C   UNL     1       5.481   5.205  15.592  0.00  0.00    +0.000 A 
ATOM      6  C   UNL     1       4.732   4.417  14.679  0.00  0.00    +0.000 A 
ATOM      7  C   UNL     1       5.348   3.809  13.585  0.00  0.00    +0.000 A 
ATOM      8  C   UNL     1       6.711   3.978  13.386  0.00  0.00    +0.000 A 
ATOM      9  C   UNL     1       7.445   4.776  14.266  0.00  0.00    +0.000 A 
ATOM     10  C   UNL     1       6.851   5.398  15.361  0.00  0.00    +0.000 A 
ATOM     11  N   UNL     1       7.620   6.142  16.155  0.00  0.00    +0.000 NA
ATOM     12  H   UNL     1       2.997   5.982  16.410  0.00  0.00    +0.000 HD
ENDROOT
BRANCH   4  13
ATOM     13  C   UNL     1       3.062   5.502  18.410  0.00  0.00    +0.000 A 
ATOM     14  C   UNL     1       2.708   6.657  19.127  0.00  0.00    +0.000 A 
ATOM     15  C   UNL     1       2.030   6.569  20.350  0.00  0.00    +0.000 A 
ATOM     16  C   UNL     1       1.611   5.327  20.825  0.00  0.00    +0.000 A 
ATOM     17  C   UNL     1       2.028   4.172  20.162  0.00  0.00    +0.000 A 
ATOM     18  C   UNL     1       2.769   4.253  18.974  0.00  0.00    +0.000 A 
BRANCH  17  19
ATOM     19  N   UNL     1       1.673   2.863  20.714  0.00  0.00    +0.000 N 
ATOM     20  O   UNL     1       1.495   2.782  21.941  0.00  0.00    +0.000 OA
ATOM     21  O   UNL     1       1.578   1.908  19.934  0.00  0.00    +0.000 OA
ENDBRANCH  17  19
BRANCH  15  22
ATOM     22  O   UNL     1       1.761   7.755  21.001  0.00  0.00    +0.000 OA
BRANCH  22  23
ATOM     23  C   UNL     1       1.040   8.734  20.343  0.00  0.00    +0.000 A 
ATOM     24  C   UNL     1      -0.065   9.395  20.891  0.00  0.00    +0.000 A 
ATOM     25  C   UNL     1      -0.773  10.331  20.134  0.00  0.00    +0.000 A 
ATOM     26  C   UNL     1      -0.339  10.657  18.852  0.00  0.00    +0.000 A 
ATOM     27  C   UNL     1       0.802  10.052  18.326  0.00  0.00    +0.000 A 
ATOM     28  C   UNL     1       1.490   9.089  19.071  0.00  0.00    +0.000 A 
ENDBRANCH  22  23
ENDBRANCH  15  22
ENDBRANCH   4  13
BRANCH   1  29
ATOM     29  C   UNL     1       7.895   7.590  18.077  0.00  0.00    +0.000 C 
ATOM     30  O   UNL     1       8.581   7.223  19.022  0.00  0.00    +0.000 OA
BRANCH  29  32
ATOM     31  C   UNL     1       8.634   9.799  18.332  0.00  0.00    +0.000 C 
ATOM     32  O   UNL     1       7.809   8.873  17.626  0.00  0.00    +0.000 OA
ENDBRANCH  29  32
ENDBRANCH   1  29
TORSDOF 6
ENDMDL
MODEL 5
REMARK VINA RESULT:      -8.2      3.086      8.361
REMARK  Name = 
REMARK  7 active torsions:
REMARK  status: ('A' for Active; 'I' for Inactive)
REMARK    1  A    between atoms: C_1  and  O_2
REMARK    2  A    between atoms: O_2  and  C_3
REMARK    3  A    between atoms: C_3  and  C_5
REMARK    4  A    between atoms: N_8  and  C_9
REMARK    5  A    between atoms: C_11  and  O_12
REMARK    6  A    between atoms: O_12  and  C_13
REMARK    7  A    between atoms: C_20  and  N_21
REMARK                            x       y       z     vdW  Elec       q    Type
REMARK                         _______ _______ _______ _____ _____    ______ ____
ROOT
ATOM      1  C   UNL     1       1.420  10.721  19.251  0.00  0.00    +0.000 A 
ATOM      2  N   UNL     1       1.760   9.462  19.580  0.00  0.00    +0.000 NA
ATOM      3  C   UNL     1       1.260   8.979  20.729  0.00  0.00    +0.000 A 
ATOM      4  N   UNL     1       1.610   7.660  21.101  0.00  0.00    +0.000 N 
ATOM      5  C   UNL     1       0.401   9.734  21.551  0.00  0.00    +0.000 A 
ATOM      6  C   UNL     1      -0.172   9.290  22.772  0.00  0.00    +0.000 A 
ATOM      7  C   UNL     1      -1.079  10.088  23.470  0.00  0.00    +0.000 A 
ATOM      8  C   UNL     1      -1.423  11.334  22.964  0.00  0.00    +0.000 A 
ATOM      9  C   UNL     1      -0.839  11.785  21.778  0.00  0.00    +0.000 A 
ATOM     10  C   UNL     1       0.072  11.009  21.068  0.00  0.00    +0.000 A 
ATOM     11  N   UNL     1       0.584  11.510  19.944  0.00  0.00    +0.000 NA
ATOM     12  H   UNL     1       2.090   7.637  21.992  0.00  0.00    +0.000 HD
ENDROOT
BRANCH   4  13
ATOM     13  C   UNL     1       1.850   6.554  20.260  0.00  0.00    +0.000 A 
ATOM     14  C   UNL     1       2.808   6.641  19.236  0.00  0.00    +0.000 A 
ATOM     15  C   UNL     1       3.160   5.517  18.477  0.00  0.00    +0.000 A 
ATOM     16  C   UNL     1       2.628   4.268  18.798  0.00  0.00    +0.000 A 
ATOM     17  C   UNL     1       1.619   4.187  19.758  0.00  0.00    +0.000 A 
ATOM     18  C   UNL     1       1.212   5.324  20.471  0.00  0.00    +0.000 A 
BRANCH  17  19
ATOM     19  N   UNL     1       0.989   2.892  20.025  0.00  0.00    +0.000 N 
ATOM     20  O   UNL     1       1.188   2.369  21.134  0.00  0.00    +0.000 OA
ATOM     21  O   UNL     1       0.302   2.383  19.130  0.00  0.00    +0.000 OA
ENDBRANCH  17  19
BRANCH  15  22
ATOM     22  O   UNL     1       4.079   5.709  17.467  0.00  0.00    +0.000 OA
BRANCH  22  23
ATOM     23  C   UNL     1       5.373   6.067  17.795  0.00  0.00    +0.000 A 
ATOM     24  C   UNL     1       6.083   7.099  17.171  0.00  0.00    +0.000 A 
ATOM     25  C   UNL     1       7.409   7.356  17.525  0.00  0.00    +0.000 A 
ATOM     26  C   UNL     1       8.008   6.628  18.550  0.00  0.00    +0.000 A 
ATOM     27  C   UNL     1       7.283   5.645  19.223  0.00  0.00    +0.000 A 
ATOM     28  C   UNL     1       5.967   5.363  18.844  0.00  0.00    +0.000 A 
ENDBRANCH  22  23
ENDBRANCH  15  22
ENDBRANCH   4  13
BRANCH   1  29
ATOM     29  C   UNL     1       2.053  11.328  18.027  0.00  0.00    +0.000 C 
ATOM     30  O   UNL     1       2.671  10.706  17.175  0.00  0.00    +0.000 OA
BRANCH  29  32
ATOM     31  C   UNL     1       2.980  13.471  18.232  0.00  0.00    +0.000 C 
ATOM     32  O   UNL     1       1.822  12.671  17.999  0.00  0.00    +0.000 OA
ENDBRANCH  29  32
ENDBRANCH   1  29
TORSDOF 6
ENDMDL
MODEL 6
REMARK VINA RESULT:      -8.2      3.020      4.303
REMARK  Name = 
REMARK  7 active torsions:
REMARK  status: ('A' for Active; 'I' for Inactive)
REMARK    1  A    between atoms: C_1  and  O_2
REMARK    2  A    between atoms: O_2  and  C_3
REMARK    3  A    between atoms: C_3  and  C_5
REMARK    4  A    between atoms: N_8  and  C_9
REMARK    5  A    between atoms: C_11  and  O_12
REMARK    6  A    between atoms: O_12  and  C_13
REMARK    7  A    between atoms: C_20  and  N_21
REMARK                            x       y       z     vdW  Elec       q    Type
REMARK                         _______ _______ _______ _____ _____    ______ ____
ROOT
ATOM      1  C   UNL     1       5.401   5.194  19.089  0.00  0.00    +0.000 A 
ATOM      2  N   UNL     1       4.413   6.087  18.900  0.00  0.00    +0.000 NA
ATOM      3  C   UNL     1       3.192   5.595  18.635  0.00  0.00    +0.000 A 
ATOM      4  N   UNL     1       2.139   6.515  18.424  0.00  0.00    +0.000 N 
ATOM      5  C   UNL     1       2.936   4.211  18.577  0.00  0.00    +0.000 A 
ATOM      6  C   UNL     1       1.674   3.616  18.312  0.00  0.00    +0.000 A 
ATOM      7  C   UNL     1       1.510   2.232  18.359  0.00  0.00    +0.000 A 
ATOM      8  C   UNL     1       2.596   1.426  18.668  0.00  0.00    +0.000 A 
ATOM      9  C   UNL     1       3.846   2.005  18.902  0.00  0.00    +0.000 A 
ATOM     10  C   UNL     1       4.034   3.384  18.854  0.00  0.00    +0.000 A 
ATOM     11  N   UNL     1       5.257   3.859  19.089  0.00  0.00    +0.000 NA
ATOM     12  H   UNL     1       1.729   6.410  17.503  0.00  0.00    +0.000 HD
ENDROOT
BRANCH   4  13
ATOM     13  C   UNL     1       1.951   7.776  19.025  0.00  0.00    +0.000 A 
ATOM     14  C   UNL     1       2.020   8.944  18.249  0.00  0.00    +0.000 A 
ATOM     15  C   UNL     1       1.705  10.196  18.795  0.00  0.00    +0.000 A 
ATOM     16  C   UNL     1       1.222  10.282  20.100  0.00  0.00    +0.000 A 
ATOM     17  C   UNL     1       1.227   9.141  20.902  0.00  0.00    +0.000 A 
ATOM     18  C   UNL     1       1.611   7.897  20.380  0.00  0.00    +0.000 A 
BRANCH  17  19
ATOM     19  N   UNL     1       0.815   9.249  22.303  0.00  0.00    +0.000 N 
ATOM     20  O   UNL     1      -0.392   9.113  22.563  0.00  0.00    +0.000 OA
ATOM     21  O   UNL     1       1.686   9.480  23.150  0.00  0.00    +0.000 OA
ENDBRANCH  17  19
BRANCH  15  22
ATOM     22  O   UNL     1       1.842  11.291  17.967  0.00  0.00    +0.000 OA
BRANCH  22  23
ATOM     23  C   UNL     1       1.610  12.553  18.480  0.00  0.00    +0.000 A 
ATOM     24  C   UNL     1       2.602  13.366  19.043  0.00  0.00    +0.000 A 
ATOM     25  C   UNL     1       2.269  14.605  19.592  0.00  0.00    +0.000 A 
ATOM     26  C   UNL     1       0.957  15.067  19.521  0.00  0.00    +0.000 A 
ATOM     27  C   UNL     1      -0.022  14.292  18.900  0.00  0.00    +0.000 A 
ATOM     28  C   UNL     1       0.303  13.035  18.381  0.00  0.00    +0.000 A 
ENDBRANCH  22  23
ENDBRANCH  15  22
ENDBRANCH   4  13
BRANCH   1  29
ATOM     29  C   UNL     1       6.801   5.716  19.277  0.00  0.00    +0.000 C 
ATOM     30  O   UNL     1       7.551   5.398  20.190  0.00  0.00    +0.000 OA
BRANCH  29  32
ATOM     31  C   UNL     1       7.275   5.969  16.996  0.00  0.00    +0.000 C 
ATOM     32  O   UNL     1       7.115   6.583  18.274  0.00  0.00    +0.000 OA
ENDBRANCH  29  32
ENDBRANCH   1  29
TORSDOF 6
ENDMDL
MODEL 7
REMARK VINA RESULT:      -8.1      3.025      4.293
REMARK  Name = 
REMARK  7 active torsions:
REMARK  status: ('A' for Active; 'I' for Inactive)
REMARK    1  A    between atoms: C_1  and  O_2
REMARK    2  A    between atoms: O_2  and  C_3
REMARK    3  A    between atoms: C_3  and  C_5
REMARK    4  A    between atoms: N_8  and  C_9
REMARK    5  A    between atoms: C_11  and  O_12
REMARK    6  A    between atoms: O_12  and  C_13
REMARK    7  A    between atoms: C_20  and  N_21
REMARK                            x       y       z     vdW  Elec       q    Type
REMARK                         _______ _______ _______ _____ _____    ______ ____
ROOT
ATOM      1  C   UNL     1       5.412   5.208  19.058  0.00  0.00    +0.000 A 
ATOM      2  N   UNL     1       4.433   6.109  18.862  0.00  0.00    +0.000 NA
ATOM      3  C   UNL     1       3.209   5.627  18.591  0.00  0.00    +0.000 A 
ATOM      4  N   UNL     1       2.166   6.556  18.371  0.00  0.00    +0.000 N 
ATOM      5  C   UNL     1       2.941   4.245  18.535  0.00  0.00    +0.000 A 
ATOM      6  C   UNL     1       1.675   3.662  18.265  0.00  0.00    +0.000 A 
ATOM      7  C   UNL     1       1.498   2.279  18.315  0.00  0.00    +0.000 A 
ATOM      8  C   UNL     1       2.575   1.464  18.632  0.00  0.00    +0.000 A 
ATOM      9  C   UNL     1       3.828   2.033  18.871  0.00  0.00    +0.000 A 
ATOM     10  C   UNL     1       4.030   3.409  18.821  0.00  0.00    +0.000 A 
ATOM     11  N   UNL     1       5.255   3.874  19.062  0.00  0.00    +0.000 NA
ATOM     12  H   UNL     1       1.760   6.452  17.449  0.00  0.00    +0.000 HD
ENDROOT
BRANCH   4  13
ATOM     13  C   UNL     1       1.986   7.821  18.968  0.00  0.00    +0.000 A 
ATOM     14  C   UNL     1       2.084   8.987  18.192  0.00  0.00    +0.000 A 
ATOM     15  C   UNL     1       1.777  10.243  18.731  0.00  0.00    +0.000 A 
ATOM     16  C   UNL     1       1.275  10.338  20.029  0.00  0.00    +0.000 A 
ATOM     17  C   UNL     1       1.251   9.198  20.832  0.00  0.00    +0.000 A 
ATOM     18  C   UNL     1       1.626   7.948  20.317  0.00  0.00    +0.000 A 
BRANCH  17  19
ATOM     19  N   UNL     1       0.818   9.314  22.226  0.00  0.00    +0.000 N 
ATOM     20  O   UNL     1       1.696   9.430  23.097  0.00  0.00    +0.000 OA
ATOM     21  O   UNL     1      -0.396   9.281  22.463  0.00  0.00    +0.000 OA
ENDBRANCH  17  19
BRANCH  15  22
ATOM     22  O   UNL     1       1.942  11.335  17.905  0.00  0.00    +0.000 OA
BRANCH  22  23
ATOM     23  C   UNL     1       1.551  12.583  18.354  0.00  0.00    +0.000 A 
ATOM     24  C   UNL     1       0.220  13.013  18.415  0.00  0.00    +0.000 A 
ATOM     25  C   UNL     1      -0.082  14.312  18.827  0.00  0.00    +0.000 A 
ATOM     26  C   UNL     1       0.938  15.164  19.243  0.00  0.00    +0.000 A 
ATOM     27  C   UNL     1       2.260  14.718  19.249  0.00  0.00    +0.000 A 
ATOM     28  C   UNL     1       2.566  13.429  18.803  0.00  0.00    +0.000 A 
ENDBRANCH  22  23
ENDBRANCH  15  22
ENDBRANCH   4  13
BRANCH   1  29
ATOM     29  C   UNL     1       6.815   5.717  19.254  0.00  0.00    +0.000 C 
ATOM     30  O   UNL     1       7.561   5.387  20.165  0.00  0.00    +0.000 OA
BRANCH  29  32
ATOM     31  C   UNL     1       7.270   5.988  16.971  0.00  0.00    +0.000 C 
ATOM     32  O   UNL     1       7.138   6.590  18.257  0.00  0.00    +0.000 OA
ENDBRANCH  29  32
ENDBRANCH   1  29
TORSDOF 6
ENDMDL
MODEL 8
REMARK VINA RESULT:      -8.1      2.228      3.412
REMARK  Name = 
REMARK  7 active torsions:
REMARK  status: ('A' for Active; 'I' for Inactive)
REMARK    1  A    between atoms: C_1  and  O_2
REMARK    2  A    between atoms: O_2  and  C_3
REMARK    3  A    between atoms: C_3  and  C_5
REMARK    4  A    between atoms: N_8  and  C_9
REMARK    5  A    between atoms: C_11  and  O_12
REMARK    6  A    between atoms: O_12  and  C_13
REMARK    7  A    between atoms: C_20  and  N_21
REMARK                            x       y       z     vdW  Elec       q    Type
REMARK                         _______ _______ _______ _____ _____    ______ ____
ROOT
ATOM      1  C   UNL     1       1.977   4.566  19.031  0.00  0.00    +0.000 A 
ATOM      2  N   UNL     1       1.866   5.878  19.302  0.00  0.00    +0.000 NA
ATOM      3  C   UNL     1       2.700   6.705  18.650  0.00  0.00    +0.000 A 
ATOM      4  N   UNL     1       2.608   8.090  18.925  0.00  0.00    +0.000 N 
ATOM      5  C   UNL     1       3.636   6.239  17.707  0.00  0.00    +0.000 A 
ATOM      6  C   UNL     1       4.541   7.050  16.974  0.00  0.00    +0.000 A 
ATOM      7  C   UNL     1       5.372   6.497  16.000  0.00  0.00    +0.000 A 
ATOM      8  C   UNL     1       5.314   5.133  15.747  0.00  0.00    +0.000 A 
ATOM      9  C   UNL     1       4.445   4.328  16.486  0.00  0.00    +0.000 A 
ATOM     10  C   UNL     1       3.610   4.857  17.467  0.00  0.00    +0.000 A 
ATOM     11  N   UNL     1       2.809   4.023  18.128  0.00  0.00    +0.000 NA
ATOM     12  H   UNL     1       3.479   8.458  19.286  0.00  0.00    +0.000 HD
ENDROOT
BRANCH   4  13
ATOM     13  C   UNL     1       1.458   8.838  19.250  0.00  0.00    +0.000 A 
ATOM     14  C   UNL     1       1.273   9.313  20.559  0.00  0.00    +0.000 A 
ATOM     15  C   UNL     1       0.210  10.170  20.874  0.00  0.00    +0.000 A 
ATOM     16  C   UNL     1      -0.626  10.641  19.863  0.00  0.00    +0.000 A 
ATOM     17  C   UNL     1      -0.500  10.113  18.577  0.00  0.00    +0.000 A 
ATOM     18  C   UNL     1       0.520   9.199  18.273  0.00  0.00    +0.000 A 
BRANCH  17  19
ATOM     19  N   UNL     1      -1.441  10.532  17.537  0.00  0.00    +0.000 N 
ATOM     20  O   UNL     1      -1.767  11.730  17.500  0.00  0.00    +0.000 OA
ATOM     21  O   UNL     1      -1.867   9.672  16.757  0.00  0.00    +0.000 OA
ENDBRANCH  17  19
BRANCH  15  22
ATOM     22  O   UNL     1       0.085  10.551  22.194  0.00  0.00    +0.000 OA
BRANCH  22  23
ATOM     23  C   UNL     1      -0.767  11.591  22.515  0.00  0.00    +0.000 A 
ATOM     24  C   UNL     1      -1.983  11.429  23.190  0.00  0.00    +0.000 A 
ATOM     25  C   UNL     1      -2.811  12.529  23.422  0.00  0.00    +0.000 A 
ATOM     26  C   UNL     1      -2.398  13.803  23.041  0.00  0.00    +0.000 A 
ATOM     27  C   UNL     1      -1.156  13.980  22.430  0.00  0.00    +0.000 A 
ATOM     28  C   UNL     1      -0.342  12.874  22.166  0.00  0.00    +0.000 A 
ENDBRANCH  22  23
ENDBRANCH  15  22
ENDBRANCH   4  13
BRANCH   1  29
ATOM     29  C   UNL     1       1.134   3.604  19.827  0.00  0.00    +0.000 C 
ATOM     30  O   UNL     1       0.410   2.744  19.347  0.00  0.00    +0.000 OA
BRANCH  29  32
ATOM     31  C   UNL     1       2.231   2.935  21.786  0.00  0.00    +0.000 C 
ATOM     32  O   UNL     1       1.308   3.825  21.161  0.00  0.00    +0.000 OA
ENDBRANCH  29  32
ENDBRANCH   1  29
TORSDOF 6
ENDMDL
MODEL 9
REMARK VINA RESULT:      -8.1      0.740      1.012
REMARK  Name = 
REMARK  7 active torsions:
REMARK  status: ('A' for Active; 'I' for Inactive)
REMARK    1  A    between atoms: C_1  and  O_2
REMARK    2  A    between atoms: O_2  and  C_3
REMARK    3  A    between atoms: C_3  and  C_5
REMARK    4  A    between atoms: N_8  and  C_9
REMARK    5  A    between atoms: C_11  and  O_12
REMARK    6  A    between atoms: O_12  and  C_13
REMARK    7  A    between atoms: C_20  and  N_21
REMARK                            x       y       z     vdW  Elec       q    Type
REMARK                         _______ _______ _______ _____ _____    ______ ____
ROOT
ATOM      1  C   UNL     1       2.900   4.252  19.179  0.00  0.00    +0.000 A 
ATOM      2  N   UNL     1       2.731   5.579  19.316  0.00  0.00    +0.000 NA
ATOM      3  C   UNL     1       3.346   6.366  18.419  0.00  0.00    +0.000 A 
ATOM      4  N   UNL     1       3.190   7.766  18.550  0.00  0.00    +0.000 N 
ATOM      5  C   UNL     1       4.118   5.842  17.364  0.00  0.00    +0.000 A 
ATOM      6  C   UNL     1       4.789   6.608  16.375  0.00  0.00    +0.000 A 
ATOM      7  C   UNL     1       5.460   5.987  15.321  0.00  0.00    +0.000 A 
ATOM      8  C   UNL     1       5.472   4.602  15.240  0.00  0.00    +0.000 A 
ATOM      9  C   UNL     1       4.836   3.845  16.228  0.00  0.00    +0.000 A 
ATOM     10  C   UNL     1       4.166   4.442  17.291  0.00  0.00    +0.000 A 
ATOM     11  N   UNL     1       3.584   3.651  18.192  0.00  0.00    +0.000 NA
ATOM     12  H   UNL     1       4.080   8.231  18.682  0.00  0.00    +0.000 HD
ENDROOT
BRANCH   4  13
ATOM     13  C   UNL     1       2.065   8.476  19.016  0.00  0.00    +0.000 A 
ATOM     14  C   UNL     1       1.197   9.099  18.104  0.00  0.00    +0.000 A 
ATOM     15  C   UNL     1       0.003   9.694  18.532  0.00  0.00    +0.000 A 
ATOM     16  C   UNL     1      -0.386   9.589  19.867  0.00  0.00    +0.000 A 
ATOM     17  C   UNL     1       0.506   9.044  20.792  0.00  0.00    +0.000 A 
ATOM     18  C   UNL     1       1.735   8.511  20.378  0.00  0.00    +0.000 A 
BRANCH  17  19
ATOM     19  N   UNL     1       0.140   9.024  22.210  0.00  0.00    +0.000 N 
ATOM     20  O   UNL     1       0.910   9.575  23.014  0.00  0.00    +0.000 OA
ATOM     21  O   UNL     1      -0.908   8.451  22.533  0.00  0.00    +0.000 OA
ENDBRANCH  17  19
BRANCH  15  22
ATOM     22  O   UNL     1      -0.764  10.318  17.570  0.00  0.00    +0.000 OA
BRANCH  22  23
ATOM     23  C   UNL     1      -2.036  10.747  17.900  0.00  0.00    +0.000 A 
ATOM     24  C   UNL     1      -2.304  11.863  18.703  0.00  0.00    +0.000 A 
ATOM     25  C   UNL     1      -3.619  12.191  19.035  0.00  0.00    +0.000 A 
ATOM     26  C   UNL     1      -4.675  11.448  18.513  0.00  0.00    +0.000 A 
ATOM     27  C   UNL     1      -4.417  10.377  17.657  0.00  0.00    +0.000 A 
ATOM     28  C   UNL     1      -3.098  10.026  17.352  0.00  0.00    +0.000 A 
ENDBRANCH  22  23
ENDBRANCH  15  22
ENDBRANCH   4  13
BRANCH   1  29
ATOM     29  C   UNL     1       2.314   3.350  20.232  0.00  0.00    +0.000 C 
ATOM     30  O   UNL     1       2.951   2.811  21.127  0.00  0.00    +0.000 OA
BRANCH  29  32
ATOM     31  C   UNL     1       0.594   2.470  18.906  0.00  0.00    +0.000 C 
ATOM     32  O   UNL     1       0.968   3.233  20.051  0.00  0.00    +0.000 OA
ENDBRANCH  29  32
ENDBRANCH   1  29
TORSDOF 6
ENDMDL
