MODEL 1
REMARK VINA RESULT:      -7.0      0.000      0.000
REMARK  Name = 
REMARK  8 active torsions:
REMARK  status: ('A' for Active; 'I' for Inactive)
REMARK    1  A    between atoms: C_1  and  N_2
REMARK    2  A    between atoms: N_2  and  C_3
REMARK    3  A    between atoms: C_3  and  C_4
REMARK    4  A    between atoms: N_6  and  C_7
REMARK    5  A    between atoms: C_14  and  C_16
REMARK    6  A    between atoms: C_16  and  O_17
REMARK    7  A    between atoms: O_17  and  C_18
REMARK    8  A    between atoms: C_18  and  C_20
REMARK                            x       y       z     vdW  Elec       q    Type
REMARK                         _______ _______ _______ _____ _____    ______ ____
ROOT
ATOM      1  C   UNL     1       1.200   2.662  21.547  0.00  0.00    +0.000 C 
ATOM      2  N   UNL     1       2.365   3.110  20.797  0.00  0.00    +0.000 N 
ATOM      3  C   UNL     1       2.726   2.306  19.716  0.00  0.00    +0.000 C 
ATOM      4  O   UNL     1       2.110   1.262  19.467  0.00  0.00    +0.000 OA
ENDROOT
BRANCH   2   5
ATOM      5  C   UNL     1       2.858   4.478  21.023  0.00  0.00    +0.000 C 
BRANCH   5   6
ATOM      6  C   UNL     1       1.910   5.609  20.584  0.00  0.00    +0.000 C 
ATOM      7  O   UNL     1       0.714   5.407  20.392  0.00  0.00    +0.000 OA
ATOM      8  N   UNL     1       2.555   6.821  20.348  0.00  0.00    +0.000 N 
ATOM      9  H   UNL     1       3.533   6.764  20.095  0.00  0.00    +0.000 HD
BRANCH   8  10
ATOM     10  C   UNL     1       1.855   7.961  19.902  0.00  0.00    +0.000 A 
ATOM     11  C   UNL     1       1.870   8.356  18.558  0.00  0.00    +0.000 A 
ATOM     12  C   UNL     1       1.226   9.531  18.164  0.00  0.00    +0.000 A 
ATOM     13  C   UNL     1       0.592  10.314  19.119  0.00  0.00    +0.000 A 
ATOM     14  F   UNL     1       0.024  11.471  18.755  0.00  0.00    +0.000 F 
ATOM     15  C   UNL     1       0.544   9.918  20.452  0.00  0.00    +0.000 A 
ATOM     16  C   UNL     1       1.149   8.719  20.840  0.00  0.00    +0.000 A 
ENDBRANCH   8  10
ENDBRANCH   5   6
ENDBRANCH   2   5
BRANCH   3  17
ATOM     17  C   UNL     1       3.885   2.738  18.806  0.00  0.00    +0.000 C 
BRANCH  17  18
ATOM     18  O   UNL     1       3.406   3.149  17.522  0.00  0.00    +0.000 OA
BRANCH  18  19
ATOM     19  C   UNL     1       3.665   4.460  17.244  0.00  0.00    +0.000 C 
ATOM     20  O   UNL     1       2.944   5.394  17.562  0.00  0.00    +0.000 OA
BRANCH  19  21
ATOM     21  C   UNL     1       4.949   4.583  16.505  0.00  0.00    +0.000 A 
ATOM     22  N   UNL     1       4.940   4.110  15.222  0.00  0.00    +0.000 NA
ATOM     23  C   UNL     1       6.082   4.231  14.521  0.00  0.00    +0.000 A 
ATOM     24 CL   UNL     1       6.014   3.616  12.925  0.00  0.00    +0.000 Cl
ATOM     25  C   UNL     1       7.242   4.804  15.012  0.00  0.00    +0.000 A 
ATOM     26  C   UNL     1       7.232   5.283  16.320  0.00  0.00    +0.000 A 
ATOM     27  C   UNL     1       6.070   5.175  17.091  0.00  0.00    +0.000 A 
ATOM     28 CL   UNL     1       6.149   5.748  18.714  0.00  0.00    +0.000 Cl
ENDBRANCH  19  21
ENDBRANCH  18  19
ENDBRANCH  17  18
ENDBRANCH   3  17
TORSDOF 7
ENDMDL
MODEL 2
REMARK VINA RESULT:      -7.0      1.799      2.753
REMARK  Name = 
REMARK  8 active torsions:
REMARK  status: ('A' for Active; 'I' for Inactive)
REMARK    1  A    between atoms: C_1  and  N_2
REMARK    2  A    between atoms: N_2  and  C_3
REMARK    3  A    between atoms: C_3  and  C_4
REMARK    4  A    between atoms: N_6  and  C_7
REMARK    5  A    between atoms: C_14  and  C_16
REMARK    6  A    between atoms: C_16  and  O_17
REMARK    7  A    between atoms: O_17  and  C_18
REMARK    8  A    between atoms: C_18  and  C_20
REMARK                            x       y       z     vdW  Elec       q    Type
REMARK                         _______ _______ _______ _____ _____    ______ ____
ROOT
ATOM      1  C   UNL     1       0.718   2.454  19.556  0.00  0.00    +0.000 C 
ATOM      2  N   UNL     1       2.115   2.855  19.461  0.00  0.00    +0.000 N 
ATOM      3  C   UNL     1       2.769   2.470  18.291  0.00  0.00    +0.000 C 
ATOM      4  O   UNL     1       2.190   1.793  17.432  0.00  0.00    +0.000 OA
ENDROOT
BRANCH   2   5
ATOM      5  C   UNL     1       2.620   3.859  20.410  0.00  0.00    +0.000 C 
BRANCH   5   6
ATOM      6  C   UNL     1       1.954   5.244  20.332  0.00  0.00    +0.000 C 
ATOM      7  O   UNL     1       0.830   5.444  20.788  0.00  0.00    +0.000 OA
ATOM      8  N   UNL     1       2.701   6.187  19.629  0.00  0.00    +0.000 N 
ATOM      9  H   UNL     1       3.343   5.822  18.938  0.00  0.00    +0.000 HD
BRANCH   8  10
ATOM     10  C   UNL     1       2.233   7.501  19.421  0.00  0.00    +0.000 A 
ATOM     11  C   UNL     1       1.568   8.215  20.427  0.00  0.00    +0.000 A 
ATOM     12  C   UNL     1       1.053   9.485  20.163  0.00  0.00    +0.000 A 
ATOM     13  C   UNL     1       1.187  10.024  18.890  0.00  0.00    +0.000 A 
ATOM     14  F   UNL     1       0.643  11.218  18.617  0.00  0.00    +0.000 F 
ATOM     15  C   UNL     1       1.870   9.339  17.891  0.00  0.00    +0.000 A 
ATOM     16  C   UNL     1       2.426   8.087  18.166  0.00  0.00    +0.000 A 
ENDBRANCH   8  10
ENDBRANCH   5   6
ENDBRANCH   2   5
BRANCH   3  17
ATOM     17  C   UNL     1       4.218   2.920  18.051  0.00  0.00    +0.000 C 
BRANCH  17  18
ATOM     18  O   UNL     1       4.286   3.915  17.026  0.00  0.00    +0.000 OA
BRANCH  18  19
ATOM     19  C   UNL     1       5.526   4.031  16.467  0.00  0.00    +0.000 C 
ATOM     20  O   UNL     1       5.948   3.329  15.560  0.00  0.00    +0.000 OA
BRANCH  19  21
ATOM     21  C   UNL     1       6.281   5.132  17.120  0.00  0.00    +0.000 A 
ATOM     22  N   UNL     1       7.050   4.768  18.190  0.00  0.00    +0.000 NA
ATOM     23  C   UNL     1       7.764   5.742  18.785  0.00  0.00    +0.000 A 
ATOM     24 CL   UNL     1       8.702   5.229  20.123  0.00  0.00    +0.000 Cl
ATOM     25  C   UNL     1       7.771   7.065  18.379  0.00  0.00    +0.000 A 
ATOM     26  C   UNL     1       6.984   7.416  17.285  0.00  0.00    +0.000 A 
ATOM     27  C   UNL     1       6.219   6.441  16.636  0.00  0.00    +0.000 A 
ATOM     28 CL   UNL     1       5.236   6.961  15.321  0.00  0.00    +0.000 Cl
ENDBRANCH  19  21
ENDBRANCH  18  19
ENDBRANCH  17  18
ENDBRANCH   3  17
TORSDOF 7
ENDMDL
MODEL 3
REMARK VINA RESULT:      -6.9      2.426      3.813
REMARK  Name = 
REMARK  8 active torsions:
REMARK  status: ('A' for Active; 'I' for Inactive)
REMARK    1  A    between atoms: C_1  and  N_2
REMARK    2  A    between atoms: N_2  and  C_3
REMARK    3  A    between atoms: C_3  and  C_4
REMARK    4  A    between atoms: N_6  and  C_7
REMARK    5  A    between atoms: C_14  and  C_16
REMARK    6  A    between atoms: C_16  and  O_17
REMARK    7  A    between atoms: O_17  and  C_18
REMARK    8  A    between atoms: C_18  and  C_20
REMARK                            x       y       z     vdW  Elec       q    Type
REMARK                         _______ _______ _______ _____ _____    ______ ____
ROOT
ATOM      1  C   UNL     1       1.799   8.898  18.525  0.00  0.00    +0.000 C 
ATOM      2  N   UNL     1       2.056   7.751  19.385  0.00  0.00    +0.000 N 
ATOM      3  C   UNL     1       2.789   6.718  18.801  0.00  0.00    +0.000 C 
ATOM      4  O   UNL     1       3.139   6.778  17.616  0.00  0.00    +0.000 OA
ENDROOT
BRANCH   2   5
ATOM      5  C   UNL     1       1.816   7.894  20.830  0.00  0.00    +0.000 C 
BRANCH   5   6
ATOM      6  C   UNL     1       0.519   8.625  21.221  0.00  0.00    +0.000 C 
ATOM      7  O   UNL     1      -0.561   8.041  21.263  0.00  0.00    +0.000 OA
ATOM      8  N   UNL     1       0.686   9.994  21.423  0.00  0.00    +0.000 N 
ATOM      9  H   UNL     1       1.462  10.425  20.936  0.00  0.00    +0.000 HD
BRANCH   8  10
ATOM     10  C   UNL     1      -0.398  10.835  21.750  0.00  0.00    +0.000 A 
ATOM     11  C   UNL     1      -0.961  10.845  23.033  0.00  0.00    +0.000 A 
ATOM     12  C   UNL     1      -2.080  11.636  23.301  0.00  0.00    +0.000 A 
ATOM     13  C   UNL     1      -2.641  12.393  22.281  0.00  0.00    +0.000 A 
ATOM     14  F   UNL     1      -3.749  13.107  22.519  0.00  0.00    +0.000 F 
ATOM     15  C   UNL     1      -2.073  12.414  21.011  0.00  0.00    +0.000 A 
ATOM     16  C   UNL     1      -0.927  11.659  20.752  0.00  0.00    +0.000 A 
ENDBRANCH   8  10
ENDBRANCH   5   6
ENDBRANCH   2   5
BRANCH   3  17
ATOM     17  C   UNL     1       3.191   5.503  19.650  0.00  0.00    +0.000 C 
BRANCH  17  18
ATOM     18  O   UNL     1       3.356   4.338  18.836  0.00  0.00    +0.000 OA
BRANCH  18  19
ATOM     19  C   UNL     1       4.605   3.794  18.919  0.00  0.00    +0.000 C 
ATOM     20  O   UNL     1       4.959   2.992  19.771  0.00  0.00    +0.000 OA
BRANCH  19  21
ATOM     21  C   UNL     1       5.465   4.315  17.825  0.00  0.00    +0.000 A 
ATOM     22  N   UNL     1       5.087   3.964  16.558  0.00  0.00    +0.000 NA
ATOM     23  C   UNL     1       5.834   4.442  15.546  0.00  0.00    +0.000 A 
ATOM     24 CL   UNL     1       5.317   3.964  13.985  0.00  0.00    +0.000 Cl
ATOM     25  C   UNL     1       6.937   5.261  15.708  0.00  0.00    +0.000 A 
ATOM     26  C   UNL     1       7.305   5.610  17.005  0.00  0.00    +0.000 A 
ATOM     27  C   UNL     1       6.565   5.134  18.092  0.00  0.00    +0.000 A 
ATOM     28 CL   UNL     1       7.109   5.572  19.666  0.00  0.00    +0.000 Cl
ENDBRANCH  19  21
ENDBRANCH  18  19
ENDBRANCH  17  18
ENDBRANCH   3  17
TORSDOF 7
ENDMDL
MODEL 4
REMARK VINA RESULT:      -6.8      2.869      4.509
REMARK  Name = 
REMARK  8 active torsions:
REMARK  status: ('A' for Active; 'I' for Inactive)
REMARK    1  A    between atoms: C_1  and  N_2
REMARK    2  A    between atoms: N_2  and  C_3
REMARK    3  A    between atoms: C_3  and  C_4
REMARK    4  A    between atoms: N_6  and  C_7
REMARK    5  A    between atoms: C_14  and  C_16
REMARK    6  A    between atoms: C_16  and  O_17
REMARK    7  A    between atoms: O_17  and  C_18
REMARK    8  A    between atoms: C_18  and  C_20
REMARK                            x       y       z     vdW  Elec       q    Type
REMARK                         _______ _______ _______ _____ _____    ______ ____
ROOT
ATOM      1  C   UNL     1       1.655   8.910  18.850  0.00  0.00    +0.000 C 
ATOM      2  N   UNL     1       1.753   7.855  19.848  0.00  0.00    +0.000 N 
ATOM      3  C   UNL     1       2.336   6.667  19.407  0.00  0.00    +0.000 C 
ATOM      4  O   UNL     1       2.691   6.532  18.229  0.00  0.00    +0.000 OA
ENDROOT
BRANCH   2   5
ATOM      5  C   UNL     1       1.536   8.206  21.260  0.00  0.00    +0.000 C 
BRANCH   5   6
ATOM      6  C   UNL     1       0.204   8.912  21.575  0.00  0.00    +0.000 C 
ATOM      7  O   UNL     1      -0.846   8.284  21.683  0.00  0.00    +0.000 OA
ATOM      8  N   UNL     1       0.305  10.301  21.628  0.00  0.00    +0.000 N 
ATOM      9  H   UNL     1       1.060  10.714  21.095  0.00  0.00    +0.000 HD
BRANCH   8  10
ATOM     10  C   UNL     1      -0.819  11.119  21.866  0.00  0.00    +0.000 A 
ATOM     11  C   UNL     1      -1.407  11.212  23.134  0.00  0.00    +0.000 A 
ATOM     12  C   UNL     1      -2.562  11.974  23.317  0.00  0.00    +0.000 A 
ATOM     13  C   UNL     1      -3.134  12.618  22.228  0.00  0.00    +0.000 A 
ATOM     14  F   UNL     1      -4.275  13.302  22.389  0.00  0.00    +0.000 F 
ATOM     15  C   UNL     1      -2.543  12.558  20.970  0.00  0.00    +0.000 A 
ATOM     16  C   UNL     1      -1.362  11.834  20.795  0.00  0.00    +0.000 A 
ENDBRANCH   8  10
ENDBRANCH   5   6
ENDBRANCH   2   5
BRANCH   3  17
ATOM     17  C   UNL     1       2.569   5.523  20.405  0.00  0.00    +0.000 C 
BRANCH  17  18
ATOM     18  O   UNL     1       2.395   4.249  19.777  0.00  0.00    +0.000 OA
BRANCH  18  19
ATOM     19  C   UNL     1       3.509   3.462  19.838  0.00  0.00    +0.000 C 
ATOM     20  O   UNL     1       3.689   2.573  20.658  0.00  0.00    +0.000 OA
BRANCH  19  21
ATOM     21  C   UNL     1       4.464   3.840  18.763  0.00  0.00    +0.000 A 
ATOM     22  N   UNL     1       5.631   4.415  19.185  0.00  0.00    +0.000 NA
ATOM     23  C   UNL     1       6.524   4.745  18.234  0.00  0.00    +0.000 A 
ATOM     24 CL   UNL     1       7.962   5.467  18.820  0.00  0.00    +0.000 Cl
ATOM     25  C   UNL     1       6.337   4.533  16.879  0.00  0.00    +0.000 A 
ATOM     26  C   UNL     1       5.144   3.944  16.469  0.00  0.00    +0.000 A 
ATOM     27  C   UNL     1       4.181   3.588  17.419  0.00  0.00    +0.000 A 
ATOM     28 CL   UNL     1       2.712   2.907  16.831  0.00  0.00    +0.000 Cl
ENDBRANCH  19  21
ENDBRANCH  18  19
ENDBRANCH  17  18
ENDBRANCH   3  17
TORSDOF 7
ENDMDL
MODEL 5
REMARK VINA RESULT:      -6.8      7.517      9.758
REMARK  Name = 
REMARK  8 active torsions:
REMARK  status: ('A' for Active; 'I' for Inactive)
REMARK    1  A    between atoms: C_1  and  N_2
REMARK    2  A    between atoms: N_2  and  C_3
REMARK    3  A    between atoms: C_3  and  C_4
REMARK    4  A    between atoms: N_6  and  C_7
REMARK    5  A    between atoms: C_14  and  C_16
REMARK    6  A    between atoms: C_16  and  O_17
REMARK    7  A    between atoms: O_17  and  C_18
REMARK    8  A    between atoms: C_18  and  C_20
REMARK                            x       y       z     vdW  Elec       q    Type
REMARK                         _______ _______ _______ _____ _____    ______ ____
ROOT
ATOM      1  C   UNL     1      -6.700  12.390  22.965  0.00  0.00    +0.000 C 
ATOM      2  N   UNL     1      -5.468  12.969  22.447  0.00  0.00    +0.000 N 
ATOM      3  C   UNL     1      -4.325  12.722  23.206  0.00  0.00    +0.000 C 
ATOM      4  O   UNL     1      -4.392  12.092  24.270  0.00  0.00    +0.000 OA
ENDROOT
BRANCH   2   5
ATOM      5  C   UNL     1      -5.461  13.474  21.065  0.00  0.00    +0.000 C 
BRANCH   5   6
ATOM      6  C   UNL     1      -5.247  12.414  19.969  0.00  0.00    +0.000 C 
ATOM      7  O   UNL     1      -6.027  11.476  19.820  0.00  0.00    +0.000 OA
ATOM      8  N   UNL     1      -4.064  12.580  19.253  0.00  0.00    +0.000 N 
ATOM      9  H   UNL     1      -3.316  13.067  19.732  0.00  0.00    +0.000 HD
BRANCH   8  10
ATOM     10  C   UNL     1      -3.679  11.683  18.235  0.00  0.00    +0.000 A 
ATOM     11  C   UNL     1      -2.538  10.877  18.355  0.00  0.00    +0.000 A 
ATOM     12  C   UNL     1      -2.146  10.054  17.298  0.00  0.00    +0.000 A 
ATOM     13  C   UNL     1      -2.883  10.058  16.121  0.00  0.00    +0.000 A 
ATOM     14  F   UNL     1      -2.477   9.314  15.084  0.00  0.00    +0.000 F 
ATOM     15  C   UNL     1      -4.034  10.830  16.000  0.00  0.00    +0.000 A 
ATOM     16  C   UNL     1      -4.454  11.620  17.073  0.00  0.00    +0.000 A 
ENDBRANCH   8  10
ENDBRANCH   5   6
ENDBRANCH   2   5
BRANCH   3  17
ATOM     17  C   UNL     1      -2.960  13.211  22.700  0.00  0.00    +0.000 C 
BRANCH  17  18
ATOM     18  O   UNL     1      -2.288  12.187  21.961  0.00  0.00    +0.000 OA
BRANCH  18  19
ATOM     19  C   UNL     1      -0.964  12.075  22.276  0.00  0.00    +0.000 C 
ATOM     20  O   UNL     1      -0.474  12.402  23.347  0.00  0.00    +0.000 OA
BRANCH  19  21
ATOM     21  C   UNL     1      -0.212  11.496  21.132  0.00  0.00    +0.000 A 
ATOM     22  N   UNL     1       0.264  12.397  20.221  0.00  0.00    +0.000 NA
ATOM     23  C   UNL     1       0.969  11.903  19.187  0.00  0.00    +0.000 A 
ATOM     24 CL   UNL     1       1.533  13.076  18.075  0.00  0.00    +0.000 Cl
ATOM     25  C   UNL     1       1.244  10.559  19.001  0.00  0.00    +0.000 A 
ATOM     26  C   UNL     1       0.753   9.656  19.941  0.00  0.00    +0.000 A 
ATOM     27  C   UNL     1       0.009  10.121  21.030  0.00  0.00    +0.000 A 
ATOM     28 CL   UNL     1      -0.602   8.939  22.125  0.00  0.00    +0.000 Cl
ENDBRANCH  19  21
ENDBRANCH  18  19
ENDBRANCH  17  18
ENDBRANCH   3  17
TORSDOF 7
ENDMDL
MODEL 6
REMARK VINA RESULT:      -6.8      3.811      7.421
REMARK  Name = 
REMARK  8 active torsions:
REMARK  status: ('A' for Active; 'I' for Inactive)
REMARK    1  A    between atoms: C_1  and  N_2
REMARK    2  A    between atoms: N_2  and  C_3
REMARK    3  A    between atoms: C_3  and  C_4
REMARK    4  A    between atoms: N_6  and  C_7
REMARK    5  A    between atoms: C_14  and  C_16
REMARK    6  A    between atoms: C_16  and  O_17
REMARK    7  A    between atoms: O_17  and  C_18
REMARK    8  A    between atoms: C_18  and  C_20
REMARK                            x       y       z     vdW  Elec       q    Type
REMARK                         _______ _______ _______ _____ _____    ______ ____
ROOT
ATOM      1  C   UNL     1       8.431   7.617  18.571  0.00  0.00    +0.000 C 
ATOM      2  N   UNL     1       7.398   6.700  18.108  0.00  0.00    +0.000 N 
ATOM      3  C   UNL     1       7.386   5.451  18.727  0.00  0.00    +0.000 C 
ATOM      4  O   UNL     1       8.239   5.152  19.573  0.00  0.00    +0.000 OA
ENDROOT
BRANCH   2   5
ATOM      5  C   UNL     1       6.298   7.241  17.294  0.00  0.00    +0.000 C 
BRANCH   5   6
ATOM      6  C   UNL     1       5.878   6.383  16.087  0.00  0.00    +0.000 C 
ATOM      7  O   UNL     1       4.697   6.142  15.850  0.00  0.00    +0.000 OA
ATOM      8  N   UNL     1       6.953   5.855  15.375  0.00  0.00    +0.000 N 
ATOM      9  H   UNL     1       7.814   5.732  15.892  0.00  0.00    +0.000 HD
BRANCH   8  10
ATOM     10  C   UNL     1       6.762   5.012  14.260  0.00  0.00    +0.000 A 
ATOM     11  C   UNL     1       5.746   4.047  14.230  0.00  0.00    +0.000 A 
ATOM     12  C   UNL     1       5.633   3.181  13.141  0.00  0.00    +0.000 A 
ATOM     13  C   UNL     1       6.548   3.270  12.101  0.00  0.00    +0.000 A 
ATOM     14  F   UNL     1       6.478   2.402  11.083  0.00  0.00    +0.000 F 
ATOM     15  C   UNL     1       7.543   4.242  12.104  0.00  0.00    +0.000 A 
ATOM     16  C   UNL     1       7.630   5.140  13.171  0.00  0.00    +0.000 A 
ENDBRANCH   8  10
ENDBRANCH   5   6
ENDBRANCH   2   5
BRANCH   3  17
ATOM     17  C   UNL     1       6.281   4.443  18.376  0.00  0.00    +0.000 C 
BRANCH  17  18
ATOM     18  O   UNL     1       5.612   3.982  19.554  0.00  0.00    +0.000 OA
BRANCH  18  19
ATOM     19  C   UNL     1       4.327   3.582  19.322  0.00  0.00    +0.000 C 
ATOM     20  O   UNL     1       4.008   2.477  18.907  0.00  0.00    +0.000 OA
BRANCH  19  21
ATOM     21  C   UNL     1       3.381   4.679  19.651  0.00  0.00    +0.000 A 
ATOM     22  N   UNL     1       3.468   5.792  18.862  0.00  0.00    +0.000 NA
ATOM     23  C   UNL     1       2.606   6.792  19.122  0.00  0.00    +0.000 A 
ATOM     24 CL   UNL     1       2.767   8.161  18.107  0.00  0.00    +0.000 Cl
ATOM     25  C   UNL     1       1.647   6.757  20.119  0.00  0.00    +0.000 A 
ATOM     26  C   UNL     1       1.571   5.614  20.912  0.00  0.00    +0.000 A 
ATOM     27  C   UNL     1       2.450   4.549  20.684  0.00  0.00    +0.000 A 
ATOM     28 CL   UNL     1       2.324   3.190  21.734  0.00  0.00    +0.000 Cl
ENDBRANCH  19  21
ENDBRANCH  18  19
ENDBRANCH  17  18
ENDBRANCH   3  17
TORSDOF 7
ENDMDL
MODEL 7
REMARK VINA RESULT:      -6.7      1.061      1.245
REMARK  Name = 
REMARK  8 active torsions:
REMARK  status: ('A' for Active; 'I' for Inactive)
REMARK    1  A    between atoms: C_1  and  N_2
REMARK    2  A    between atoms: N_2  and  C_3
REMARK    3  A    between atoms: C_3  and  C_4
REMARK    4  A    between atoms: N_6  and  C_7
REMARK    5  A    between atoms: C_14  and  C_16
REMARK    6  A    between atoms: C_16  and  O_17
REMARK    7  A    between atoms: O_17  and  C_18
REMARK    8  A    between atoms: C_18  and  C_20
REMARK                            x       y       z     vdW  Elec       q    Type
REMARK                         _______ _______ _______ _____ _____    ______ ____
ROOT
ATOM      1  C   UNL     1       1.601   1.805  19.806  0.00  0.00    +0.000 C 
ATOM      2  N   UNL     1       2.699   2.716  20.097  0.00  0.00    +0.000 N 
ATOM      3  C   UNL     1       3.758   2.685  19.190  0.00  0.00    +0.000 C 
ATOM      4  O   UNL     1       3.759   1.890  18.241  0.00  0.00    +0.000 OA
ENDROOT
BRANCH   2   5
ATOM      5  C   UNL     1       2.480   3.778  21.092  0.00  0.00    +0.000 C 
BRANCH   5   6
ATOM      6  C   UNL     1       1.724   5.020  20.586  0.00  0.00    +0.000 C 
ATOM      7  O   UNL     1       0.533   4.971  20.289  0.00  0.00    +0.000 OA
ATOM      8  N   UNL     1       2.536   6.140  20.421  0.00  0.00    +0.000 N 
ATOM      9  H   UNL     1       3.517   5.960  20.252  0.00  0.00    +0.000 HD
BRANCH   8  10
ATOM     10  C   UNL     1       2.026   7.360  19.929  0.00  0.00    +0.000 A 
ATOM     11  C   UNL     1       2.215   7.754  18.598  0.00  0.00    +0.000 A 
ATOM     12  C   UNL     1       1.761   9.001  18.164  0.00  0.00    +0.000 A 
ATOM     13  C   UNL     1       1.142   9.854  19.068  0.00  0.00    +0.000 A 
ATOM     14  F   UNL     1       0.758  11.074  18.671  0.00  0.00    +0.000 F 
ATOM     15  C   UNL     1       0.922   9.463  20.385  0.00  0.00    +0.000 A 
ATOM     16  C   UNL     1       1.335   8.198  20.810  0.00  0.00    +0.000 A 
ENDBRANCH   8  10
ENDBRANCH   5   6
ENDBRANCH   2   5
BRANCH   3  17
ATOM     17  C   UNL     1       4.924   3.671  19.355  0.00  0.00    +0.000 C 
BRANCH  17  18
ATOM     18  O   UNL     1       5.639   3.833  18.126  0.00  0.00    +0.000 OA
BRANCH  18  19
ATOM     19  C   UNL     1       4.978   4.608  17.216  0.00  0.00    +0.000 C 
ATOM     20  O   UNL     1       3.901   5.150  17.417  0.00  0.00    +0.000 OA
BRANCH  19  21
ATOM     21  C   UNL     1       5.760   4.697  15.956  0.00  0.00    +0.000 A 
ATOM     22  N   UNL     1       5.278   3.963  14.908  0.00  0.00    +0.000 NA
ATOM     23  C   UNL     1       5.953   4.044  13.747  0.00  0.00    +0.000 A 
ATOM     24 CL   UNL     1       5.307   3.098  12.474  0.00  0.00    +0.000 Cl
ATOM     25  C   UNL     1       7.081   4.821  13.552  0.00  0.00    +0.000 A 
ATOM     26  C   UNL     1       7.556   5.564  14.630  0.00  0.00    +0.000 A 
ATOM     27  C   UNL     1       6.893   5.508  15.860  0.00  0.00    +0.000 A 
ATOM     28 CL   UNL     1       7.566   6.420  17.157  0.00  0.00    +0.000 Cl
ENDBRANCH  19  21
ENDBRANCH  18  19
ENDBRANCH  17  18
ENDBRANCH   3  17
TORSDOF 7
ENDMDL
MODEL 8
REMARK VINA RESULT:      -6.7      3.391      7.440
REMARK  Name = 
REMARK  8 active torsions:
REMARK  status: ('A' for Active; 'I' for Inactive)
REMARK    1  A    between atoms: C_1  and  N_2
REMARK    2  A    between atoms: N_2  and  C_3
REMARK    3  A    between atoms: C_3  and  C_4
REMARK    4  A    between atoms: N_6  and  C_7
REMARK    5  A    between atoms: C_14  and  C_16
REMARK    6  A    between atoms: C_16  and  O_17
REMARK    7  A    between atoms: O_17  and  C_18
REMARK    8  A    between atoms: C_18  and  C_20
REMARK                            x       y       z     vdW  Elec       q    Type
REMARK                         _______ _______ _______ _____ _____    ______ ____
ROOT
ATOM      1  C   UNL     1       3.799   1.717  18.697  0.00  0.00    +0.000 C 
ATOM      2  N   UNL     1       3.538   3.121  18.412  0.00  0.00    +0.000 N 
ATOM      3  C   UNL     1       2.197   3.501  18.455  0.00  0.00    +0.000 C 
ATOM      4  O   UNL     1       1.308   2.669  18.675  0.00  0.00    +0.000 OA
ENDROOT
BRANCH   2   5
ATOM      5  C   UNL     1       4.673   4.058  18.415  0.00  0.00    +0.000 C 
BRANCH   5   6
ATOM      6  C   UNL     1       5.110   4.581  17.034  0.00  0.00    +0.000 C 
ATOM      7  O   UNL     1       4.739   5.674  16.614  0.00  0.00    +0.000 OA
ATOM      8  N   UNL     1       5.868   3.668  16.304  0.00  0.00    +0.000 N 
ATOM      9  H   UNL     1       5.727   2.691  16.527  0.00  0.00    +0.000 HD
BRANCH   8  10
ATOM     10  C   UNL     1       6.325   3.956  15.001  0.00  0.00    +0.000 A 
ATOM     11  C   UNL     1       7.328   4.906  14.765  0.00  0.00    +0.000 A 
ATOM     12  C   UNL     1       7.705   5.219  13.458  0.00  0.00    +0.000 A 
ATOM     13  C   UNL     1       7.061   4.598  12.396  0.00  0.00    +0.000 A 
ATOM     14  F   UNL     1       7.378   4.939  11.139  0.00  0.00    +0.000 F 
ATOM     15  C   UNL     1       6.085   3.632  12.616  0.00  0.00    +0.000 A 
ATOM     16  C   UNL     1       5.739   3.284  13.925  0.00  0.00    +0.000 A 
ENDBRANCH   8  10
ENDBRANCH   5   6
ENDBRANCH   2   5
BRANCH   3  17
ATOM     17  C   UNL     1       1.822   4.978  18.259  0.00  0.00    +0.000 C 
BRANCH  17  18
ATOM     18  O   UNL     1       1.632   5.633  19.516  0.00  0.00    +0.000 OA
BRANCH  18  19
ATOM     19  C   UNL     1       2.504   6.663  19.725  0.00  0.00    +0.000 C 
ATOM     20  O   UNL     1       3.721   6.560  19.698  0.00  0.00    +0.000 OA
BRANCH  19  21
ATOM     21  C   UNL     1       1.757   7.922  19.982  0.00  0.00    +0.000 A 
ATOM     22  N   UNL     1       1.238   8.054  21.240  0.00  0.00    +0.000 NA
ATOM     23  C   UNL     1       0.577   9.195  21.509  0.00  0.00    +0.000 A 
ATOM     24 CL   UNL     1      -0.055   9.302  23.096  0.00  0.00    +0.000 Cl
ATOM     25  C   UNL     1       0.403  10.228  20.605  0.00  0.00    +0.000 A 
ATOM     26  C   UNL     1       0.940  10.076  19.329  0.00  0.00    +0.000 A 
ATOM     27  C   UNL     1       1.631   8.905  18.999  0.00  0.00    +0.000 A 
ATOM     28 CL   UNL     1       2.227   8.773  17.388  0.00  0.00    +0.000 Cl
ENDBRANCH  19  21
ENDBRANCH  18  19
ENDBRANCH  17  18
ENDBRANCH   3  17
TORSDOF 7
ENDMDL
MODEL 9
REMARK VINA RESULT:      -6.7      3.304      6.751
REMARK  Name = 
REMARK  8 active torsions:
REMARK  status: ('A' for Active; 'I' for Inactive)
REMARK    1  A    between atoms: C_1  and  N_2
REMARK    2  A    between atoms: N_2  and  C_3
REMARK    3  A    between atoms: C_3  and  C_4
REMARK    4  A    between atoms: N_6  and  C_7
REMARK    5  A    between atoms: C_14  and  C_16
REMARK    6  A    between atoms: C_16  and  O_17
REMARK    7  A    between atoms: O_17  and  C_18
REMARK    8  A    between atoms: C_18  and  C_20
REMARK                            x       y       z     vdW  Elec       q    Type
REMARK                         _______ _______ _______ _____ _____    ______ ____
ROOT
ATOM      1  C   UNL     1       7.341   4.679  17.186  0.00  0.00    +0.000 C 
ATOM      2  N   UNL     1       5.977   5.097  16.894  0.00  0.00    +0.000 N 
ATOM      3  C   UNL     1       5.739   6.468  16.984  0.00  0.00    +0.000 C 
ATOM      4  O   UNL     1       6.633   7.247  17.339  0.00  0.00    +0.000 OA
ENDROOT
BRANCH   2   5
ATOM      5  C   UNL     1       5.075   4.132  16.245  0.00  0.00    +0.000 C 
BRANCH   5   6
ATOM      6  C   UNL     1       3.934   3.590  17.125  0.00  0.00    +0.000 C 
ATOM      7  O   UNL     1       2.884   3.180  16.636  0.00  0.00    +0.000 OA
ATOM      8  N   UNL     1       4.180   3.700  18.492  0.00  0.00    +0.000 N 
ATOM      9  H   UNL     1       4.821   4.432  18.772  0.00  0.00    +0.000 HD
BRANCH   8  10
ATOM     10  C   UNL     1       3.232   3.292  19.452  0.00  0.00    +0.000 A 
ATOM     11  C   UNL     1       1.856   3.460  19.248  0.00  0.00    +0.000 A 
ATOM     12  C   UNL     1       0.950   3.112  20.252  0.00  0.00    +0.000 A 
ATOM     13  C   UNL     1       1.426   2.619  21.459  0.00  0.00    +0.000 A 
ATOM     14  F   UNL     1       0.563   2.339  22.445  0.00  0.00    +0.000 F 
ATOM     15  C   UNL     1       2.787   2.419  21.664  0.00  0.00    +0.000 A 
ATOM     16  C   UNL     1       3.692   2.724  20.644  0.00  0.00    +0.000 A 
ENDBRANCH   8  10
ENDBRANCH   5   6
ENDBRANCH   2   5
BRANCH   3  17
ATOM     17  C   UNL     1       4.357   7.022  16.607  0.00  0.00    +0.000 C 
BRANCH  17  18
ATOM     18  O   UNL     1       3.812   7.812  17.668  0.00  0.00    +0.000 OA
BRANCH  18  19
ATOM     19  C   UNL     1       2.603   7.358  18.112  0.00  0.00    +0.000 C 
ATOM     20  O   UNL     1       2.124   6.269  17.833  0.00  0.00    +0.000 OA
BRANCH  19  21
ATOM     21  C   UNL     1       1.961   8.377  18.983  0.00  0.00    +0.000 A 
ATOM     22  N   UNL     1       1.831   9.624  18.436  0.00  0.00    +0.000 NA
ATOM     23  C   UNL     1       1.231  10.560  19.194  0.00  0.00    +0.000 A 
ATOM     24 CL   UNL     1       1.102  12.102  18.461  0.00  0.00    +0.000 Cl
ATOM     25  C   UNL     1       0.739  10.337  20.468  0.00  0.00    +0.000 A 
ATOM     26  C   UNL     1       0.879   9.060  21.007  0.00  0.00    +0.000 A 
ATOM     27  C   UNL     1       1.501   8.054  20.261  0.00  0.00    +0.000 A 
ATOM     28 CL   UNL     1       1.677   6.514  21.013  0.00  0.00    +0.000 Cl
ENDBRANCH  19  21
ENDBRANCH  18  19
ENDBRANCH  17  18
ENDBRANCH   3  17
TORSDOF 7
ENDMDL
