MODEL 1
REMARK VINA RESULT:      -9.0      0.000      0.000
REMARK  Name = 
REMARK  5 active torsions:
REMARK  status: ('A' for Active; 'I' for Inactive)
REMARK    1  A    between atoms: C_1  and  N_2
REMARK    2  A    between atoms: C_4  and  C_5
REMARK    3  A    between atoms: N_13  and  C_14
REMARK    4  A    between atoms: C_19  and  N_20
REMARK    5  A    between atoms: N_20  and  C_21
REMARK                            x       y       z     vdW  Elec       q    Type
REMARK                         _______ _______ _______ _____ _____    ______ ____
ROOT
ATOM      1  C   UNL     1       2.264  11.367  17.829  0.00  0.00    +0.000 C 
ATOM      2  N   UNL     1       1.260  11.539  18.851  0.00  0.00    +0.000 N 
ATOM      3  N   UNL     1       0.662  12.749  18.995  0.00  0.00    +0.000 NA
ATOM      4  C   UNL     1      -0.119  12.614  20.091  0.00  0.00    +0.000 A 
ATOM      5  C   UNL     1       0.020  11.323  20.643  0.00  0.00    +0.000 A 
ATOM      6  C   UNL     1       0.879  10.639  19.803  0.00  0.00    +0.000 A 
ATOM      7  C   UNL     1       1.261   9.254  20.016  0.00  0.00    +0.000 A 
ATOM      8  N   UNL     1       1.837   8.583  19.006  0.00  0.00    +0.000 NA
ATOM      9  C   UNL     1       2.057   7.278  19.224  0.00  0.00    +0.000 A 
ATOM     10  N   UNL     1       2.622   6.546  18.186  0.00  0.00    +0.000 N 
ATOM     11  N   UNL     1       1.748   6.649  20.373  0.00  0.00    +0.000 NA
ATOM     12  C   UNL     1       1.210   7.369  21.370  0.00  0.00    +0.000 A 
ATOM     13  C   UNL     1       0.913   8.697  21.242  0.00  0.00    +0.000 A 
ATOM     14  C   UNL     1       0.334   9.535  22.355  0.00  0.00    +0.000 C 
ATOM     15  C   UNL     1      -0.582  10.675  21.845  0.00  0.00    +0.000 C 
ATOM     16  H   UNL     1       2.819   7.114  17.377  0.00  0.00    +0.000 HD
ENDROOT
BRANCH  10  17
ATOM     17  C   UNL     1       2.726   5.152  18.015  0.00  0.00    +0.000 A 
ATOM     18  C   UNL     1       1.709   4.356  18.573  0.00  0.00    +0.000 A 
ATOM     19  C   UNL     1       1.713   2.967  18.428  0.00  0.00    +0.000 A 
ATOM     20  C   UNL     1       2.750   2.348  17.743  0.00  0.00    +0.000 A 
ATOM     21  C   UNL     1       3.789   3.115  17.217  0.00  0.00    +0.000 A 
ATOM     22  C   UNL     1       3.795   4.516  17.334  0.00  0.00    +0.000 A 
BRANCH  22  23
ATOM     23  N   UNL     1       4.891   5.251  16.835  0.00  0.00    +0.000 N 
ATOM     24  H   UNL     1       4.739   5.606  15.898  0.00  0.00    +0.000 HD
BRANCH  23  25
ATOM     25  C   UNL     1       6.006   5.806  17.485  0.00  0.00    +0.000 A 
ATOM     26  C   UNL     1       6.523   7.024  17.025  0.00  0.00    +0.000 A 
ATOM     27  C   UNL     1       7.619   7.623  17.650  0.00  0.00    +0.000 A 
ATOM     28  C   UNL     1       8.213   7.009  18.750  0.00  0.00    +0.000 A 
ATOM     29  C   UNL     1       7.730   5.783  19.201  0.00  0.00    +0.000 A 
ATOM     30  C   UNL     1       6.645   5.178  18.559  0.00  0.00    +0.000 A 
ENDBRANCH  23  25
ENDBRANCH  22  23
ENDBRANCH  10  17
BRANCH   4  31
ATOM     31  C   UNL     1      -0.961  13.720  20.584  0.00  0.00    +0.000 C 
ATOM     32  N   UNL     1      -2.250  13.682  20.140  0.00  0.00    +0.000 N 
ATOM     33  O   UNL     1      -0.559  14.607  21.326  0.00  0.00    +0.000 OA
ATOM     34  H   UNL     1      -2.527  12.930  19.521  0.00  0.00    +0.000 HD
ATOM     35  H   UNL     1      -2.903  14.397  20.422  0.00  0.00    +0.000 HD
ENDBRANCH   4  31
TORSDOF 4
ENDMDL
MODEL 2
REMARK VINA RESULT:      -8.8      2.018      4.196
REMARK  Name = 
REMARK  5 active torsions:
REMARK  status: ('A' for Active; 'I' for Inactive)
REMARK    1  A    between atoms: C_1  and  N_2
REMARK    2  A    between atoms: C_4  and  C_5
REMARK    3  A    between atoms: N_13  and  C_14
REMARK    4  A    between atoms: C_19  and  N_20
REMARK    5  A    between atoms: N_20  and  C_21
REMARK                            x       y       z     vdW  Elec       q    Type
REMARK                         _______ _______ _______ _____ _____    ______ ____
ROOT
ATOM      1  C   UNL     1      -0.389   8.235  22.223  0.00  0.00    +0.000 C 
ATOM      2  N   UNL     1      -0.288   9.658  22.013  0.00  0.00    +0.000 N 
ATOM      3  N   UNL     1      -0.834  10.502  22.926  0.00  0.00    +0.000 NA
ATOM      4  C   UNL     1      -0.680  11.733  22.387  0.00  0.00    +0.000 A 
ATOM      5  C   UNL     1      -0.061  11.646  21.121  0.00  0.00    +0.000 A 
ATOM      6  C   UNL     1       0.218  10.306  20.924  0.00  0.00    +0.000 A 
ATOM      7  C   UNL     1       0.884   9.801  19.736  0.00  0.00    +0.000 A 
ATOM      8  N   UNL     1       1.388   8.557  19.762  0.00  0.00    +0.000 NA
ATOM      9  C   UNL     1       2.093   8.192  18.680  0.00  0.00    +0.000 A 
ATOM     10  N   UNL     1       2.658   6.921  18.688  0.00  0.00    +0.000 N 
ATOM     11  N   UNL     1       2.291   8.987  17.613  0.00  0.00    +0.000 NA
ATOM     12  C   UNL     1       1.734  10.208  17.615  0.00  0.00    +0.000 A 
ATOM     13  C   UNL     1       1.026  10.693  18.679  0.00  0.00    +0.000 A 
ATOM     14  C   UNL     1       0.367  12.050  18.697  0.00  0.00    +0.000 C 
ATOM     15  C   UNL     1       0.307  12.679  20.110  0.00  0.00    +0.000 C 
ATOM     16  H   UNL     1       2.442   6.410  19.529  0.00  0.00    +0.000 HD
ENDROOT
BRANCH  10  17
ATOM     17  C   UNL     1       3.641   6.365  17.848  0.00  0.00    +0.000 A 
ATOM     18  C   UNL     1       4.620   7.235  17.336  0.00  0.00    +0.000 A 
ATOM     19  C   UNL     1       5.651   6.766  16.519  0.00  0.00    +0.000 A 
ATOM     20  C   UNL     1       5.705   5.421  16.179  0.00  0.00    +0.000 A 
ATOM     21  C   UNL     1       4.722   4.549  16.643  0.00  0.00    +0.000 A 
ATOM     22  C   UNL     1       3.686   4.995  17.482  0.00  0.00    +0.000 A 
BRANCH  22  23
ATOM     23  N   UNL     1       2.680   4.093  17.887  0.00  0.00    +0.000 N 
ATOM     24  H   UNL     1       2.252   3.599  17.111  0.00  0.00    +0.000 HD
BRANCH  23  25
ATOM     25  C   UNL     1       2.365   3.561  19.148  0.00  0.00    +0.000 A 
ATOM     26  C   UNL     1       3.396   3.033  19.937  0.00  0.00    +0.000 A 
ATOM     27  C   UNL     1       3.135   2.510  21.206  0.00  0.00    +0.000 A 
ATOM     28  C   UNL     1       1.834   2.511  21.704  0.00  0.00    +0.000 A 
ATOM     29  C   UNL     1       0.795   3.004  20.920  0.00  0.00    +0.000 A 
ATOM     30  C   UNL     1       1.058   3.508  19.643  0.00  0.00    +0.000 A 
ENDBRANCH  23  25
ENDBRANCH  22  23
ENDBRANCH  10  17
BRANCH   4  31
ATOM     31  C   UNL     1      -1.136  12.949  23.085  0.00  0.00    +0.000 C 
ATOM     32  N   UNL     1      -2.489  13.037  23.229  0.00  0.00    +0.000 N 
ATOM     33  O   UNL     1      -0.383  13.819  23.504  0.00  0.00    +0.000 OA
ATOM     34  H   UNL     1      -3.066  12.294  22.855  0.00  0.00    +0.000 HD
ATOM     35  H   UNL     1      -2.897  13.835  23.692  0.00  0.00    +0.000 HD
ENDBRANCH   4  31
TORSDOF 4
ENDMDL
MODEL 3
REMARK VINA RESULT:      -8.7      2.019      4.106
REMARK  Name = 
REMARK  5 active torsions:
REMARK  status: ('A' for Active; 'I' for Inactive)
REMARK    1  A    between atoms: C_1  and  N_2
REMARK    2  A    between atoms: C_4  and  C_5
REMARK    3  A    between atoms: N_13  and  C_14
REMARK    4  A    between atoms: C_19  and  N_20
REMARK    5  A    between atoms: N_20  and  C_21
REMARK                            x       y       z     vdW  Elec       q    Type
REMARK                         _______ _______ _______ _____ _____    ______ ____
ROOT
ATOM      1  C   UNL     1       0.682   8.782  22.870  0.00  0.00    +0.000 C 
ATOM      2  N   UNL     1       0.273  10.037  22.288  0.00  0.00    +0.000 N 
ATOM      3  N   UNL     1      -0.243  11.002  23.092  0.00  0.00    +0.000 NA
ATOM      4  C   UNL     1      -0.631  11.981  22.244  0.00  0.00    +0.000 A 
ATOM      5  C   UNL     1      -0.380  11.605  20.906  0.00  0.00    +0.000 A 
ATOM      6  C   UNL     1       0.240  10.371  20.966  0.00  0.00    +0.000 A 
ATOM      7  C   UNL     1       0.685   9.649  19.787  0.00  0.00    +0.000 A 
ATOM      8  N   UNL     1       1.540   8.626  19.944  0.00  0.00    +0.000 NA
ATOM      9  C   UNL     1       2.006   8.077  18.812  0.00  0.00    +0.000 A 
ATOM     10  N   UNL     1       2.920   7.037  18.939  0.00  0.00    +0.000 N 
ATOM     11  N   UNL     1       1.652   8.488  17.581  0.00  0.00    +0.000 NA
ATOM     12  C   UNL     1       0.764   9.488  17.472  0.00  0.00    +0.000 A 
ATOM     13  C   UNL     1       0.252  10.140  18.560  0.00  0.00    +0.000 A 
ATOM     14  C   UNL     1      -0.767  11.248  18.468  0.00  0.00    +0.000 C 
ATOM     15  C   UNL     1      -0.638  12.290  19.606  0.00  0.00    +0.000 C 
ATOM     16  H   UNL     1       3.109   6.806  19.902  0.00  0.00    +0.000 HD
ENDROOT
BRANCH  10  17
ATOM     17  C   UNL     1       3.764   6.453  17.975  0.00  0.00    +0.000 A 
ATOM     18  C   UNL     1       4.768   7.267  17.420  0.00  0.00    +0.000 A 
ATOM     19  C   UNL     1       5.670   6.765  16.479  0.00  0.00    +0.000 A 
ATOM     20  C   UNL     1       5.567   5.446  16.058  0.00  0.00    +0.000 A 
ATOM     21  C   UNL     1       4.554   4.634  16.566  0.00  0.00    +0.000 A 
ATOM     22  C   UNL     1       3.647   5.112  17.528  0.00  0.00    +0.000 A 
BRANCH  22  23
ATOM     23  N   UNL     1       2.603   4.276  17.977  0.00  0.00    +0.000 N 
ATOM     24  H   UNL     1       2.052   3.886  17.220  0.00  0.00    +0.000 HD
BRANCH  23  25
ATOM     25  C   UNL     1       2.367   3.678  19.226  0.00  0.00    +0.000 A 
ATOM     26  C   UNL     1       1.053   3.604  19.705  0.00  0.00    +0.000 A 
ATOM     27  C   UNL     1       0.767   3.002  20.933  0.00  0.00    +0.000 A 
ATOM     28  C   UNL     1       1.797   2.462  21.698  0.00  0.00    +0.000 A 
ATOM     29  C   UNL     1       3.112   2.555  21.250  0.00  0.00    +0.000 A 
ATOM     30  C   UNL     1       3.395   3.176  20.030  0.00  0.00    +0.000 A 
ENDBRANCH  23  25
ENDBRANCH  22  23
ENDBRANCH  10  17
BRANCH   4  31
ATOM     31  C   UNL     1      -1.239  13.234  22.729  0.00  0.00    +0.000 C 
ATOM     32  N   UNL     1      -2.573  13.345  22.469  0.00  0.00    +0.000 N 
ATOM     33  O   UNL     1      -0.619  14.112  23.314  0.00  0.00    +0.000 OA
ATOM     34  H   UNL     1      -3.035  12.593  21.973  0.00  0.00    +0.000 HD
ATOM     35  H   UNL     1      -3.077  14.169  22.760  0.00  0.00    +0.000 HD
ENDBRANCH   4  31
TORSDOF 4
ENDMDL
MODEL 4
REMARK VINA RESULT:      -8.6      1.657      2.492
REMARK  Name = 
REMARK  5 active torsions:
REMARK  status: ('A' for Active; 'I' for Inactive)
REMARK    1  A    between atoms: C_1  and  N_2
REMARK    2  A    between atoms: C_4  and  C_5
REMARK    3  A    between atoms: N_13  and  C_14
REMARK    4  A    between atoms: C_19  and  N_20
REMARK    5  A    between atoms: N_20  and  C_21
REMARK                            x       y       z     vdW  Elec       q    Type
REMARK                         _______ _______ _______ _____ _____    ______ ____
ROOT
ATOM      1  C   UNL     1      -0.432   9.266  22.624  0.00  0.00    +0.000 C 
ATOM      2  N   UNL     1       0.212  10.307  21.862  0.00  0.00    +0.000 N 
ATOM      3  N   UNL     1       0.105  11.595  22.278  0.00  0.00    +0.000 NA
ATOM      4  C   UNL     1       0.700  12.319  21.303  0.00  0.00    +0.000 A 
ATOM      5  C   UNL     1       1.152  11.475  20.265  0.00  0.00    +0.000 A 
ATOM      6  C   UNL     1       0.864  10.185  20.669  0.00  0.00    +0.000 A 
ATOM      7  C   UNL     1       1.198   9.013  19.879  0.00  0.00    +0.000 A 
ATOM      8  N   UNL     1       1.168   7.808  20.471  0.00  0.00    +0.000 NA
ATOM      9  C   UNL     1       1.600   6.781  19.725  0.00  0.00    +0.000 A 
ATOM     10  N   UNL     1       1.614   5.524  20.318  0.00  0.00    +0.000 N 
ATOM     11  N   UNL     1       2.030   6.908  18.456  0.00  0.00    +0.000 NA
ATOM     12  C   UNL     1       2.005   8.125  17.892  0.00  0.00    +0.000 A 
ATOM     13  C   UNL     1       1.615   9.245  18.573  0.00  0.00    +0.000 A 
ATOM     14  C   UNL     1       1.552  10.620  17.956  0.00  0.00    +0.000 C 
ATOM     15  C   UNL     1       1.836  11.756  18.969  0.00  0.00    +0.000 C 
ATOM     16  H   UNL     1       1.266   5.542  21.264  0.00  0.00    +0.000 HD
ENDROOT
BRANCH  10  17
ATOM     17  C   UNL     1       2.240   4.334  19.901  0.00  0.00    +0.000 A 
ATOM     18  C   UNL     1       1.434   3.186  19.789  0.00  0.00    +0.000 A 
ATOM     19  C   UNL     1       1.963   1.969  19.354  0.00  0.00    +0.000 A 
ATOM     20  C   UNL     1       3.314   1.873  19.047  0.00  0.00    +0.000 A 
ATOM     21  C   UNL     1       4.138   2.989  19.189  0.00  0.00    +0.000 A 
ATOM     22  C   UNL     1       3.623   4.229  19.607  0.00  0.00    +0.000 A 
BRANCH  22  23
ATOM     23  N   UNL     1       4.499   5.320  19.791  0.00  0.00    +0.000 N 
ATOM     24  H   UNL     1       4.490   5.683  20.737  0.00  0.00    +0.000 HD
BRANCH  23  25
ATOM     25  C   UNL     1       5.557   5.802  19.001  0.00  0.00    +0.000 A 
ATOM     26  C   UNL     1       5.267   6.376  17.756  0.00  0.00    +0.000 A 
ATOM     27  C   UNL     1       6.283   6.885  16.944  0.00  0.00    +0.000 A 
ATOM     28  C   UNL     1       7.608   6.828  17.371  0.00  0.00    +0.000 A 
ATOM     29  C   UNL     1       7.915   6.233  18.592  0.00  0.00    +0.000 A 
ATOM     30  C   UNL     1       6.896   5.707  19.392  0.00  0.00    +0.000 A 
ENDBRANCH  23  25
ENDBRANCH  22  23
ENDBRANCH  10  17
BRANCH   4  31
ATOM     31  C   UNL     1       0.810  13.788  21.382  0.00  0.00    +0.000 C 
ATOM     32  N   UNL     1      -0.071  14.457  20.586  0.00  0.00    +0.000 N 
ATOM     33  O   UNL     1       1.616  14.375  22.092  0.00  0.00    +0.000 OA
ATOM     34  H   UNL     1      -0.711  13.922  20.012  0.00  0.00    +0.000 HD
ATOM     35  H   UNL     1      -0.072  15.466  20.570  0.00  0.00    +0.000 HD
ENDBRANCH   4  31
TORSDOF 4
ENDMDL
MODEL 5
REMARK VINA RESULT:      -8.5      0.721      1.116
REMARK  Name = 
REMARK  5 active torsions:
REMARK  status: ('A' for Active; 'I' for Inactive)
REMARK    1  A    between atoms: C_1  and  N_2
REMARK    2  A    between atoms: C_4  and  C_5
REMARK    3  A    between atoms: N_13  and  C_14
REMARK    4  A    between atoms: C_19  and  N_20
REMARK    5  A    between atoms: N_20  and  C_21
REMARK                            x       y       z     vdW  Elec       q    Type
REMARK                         _______ _______ _______ _____ _____    ______ ____
ROOT
ATOM      1  C   UNL     1       2.248  11.087  17.818  0.00  0.00    +0.000 C 
ATOM      2  N   UNL     1       1.226  11.343  18.802  0.00  0.00    +0.000 N 
ATOM      3  N   UNL     1       0.638  12.567  18.843  0.00  0.00    +0.000 NA
ATOM      4  C   UNL     1      -0.167  12.522  19.928  0.00  0.00    +0.000 A 
ATOM      5  C   UNL     1      -0.053  11.274  20.579  0.00  0.00    +0.000 A 
ATOM      6  C   UNL     1       0.815  10.522  19.811  0.00  0.00    +0.000 A 
ATOM      7  C   UNL     1       1.177   9.152  20.135  0.00  0.00    +0.000 A 
ATOM      8  N   UNL     1       1.766   8.402  19.190  0.00  0.00    +0.000 NA
ATOM      9  C   UNL     1       1.967   7.115  19.509  0.00  0.00    +0.000 A 
ATOM     10  N   UNL     1       2.545   6.302  18.541  0.00  0.00    +0.000 N 
ATOM     11  N   UNL     1       1.627   6.577  20.695  0.00  0.00    +0.000 NA
ATOM     12  C   UNL     1       1.077   7.374  21.624  0.00  0.00    +0.000 A 
ATOM     13  C   UNL     1       0.798   8.692  21.391  0.00  0.00    +0.000 A 
ATOM     14  C   UNL     1       0.205   9.617  22.425  0.00  0.00    +0.000 C 
ATOM     15  C   UNL     1      -0.687  10.724  21.812  0.00  0.00    +0.000 C 
ATOM     16  H   UNL     1       2.765   6.807  17.697  0.00  0.00    +0.000 HD
ENDROOT
BRANCH  10  17
ATOM     17  C   UNL     1       2.637   4.899  18.477  0.00  0.00    +0.000 A 
ATOM     18  C   UNL     1       1.498   4.197  18.040  0.00  0.00    +0.000 A 
ATOM     19  C   UNL     1       1.507   2.806  17.917  0.00  0.00    +0.000 A 
ATOM     20  C   UNL     1       2.648   2.090  18.254  0.00  0.00    +0.000 A 
ATOM     21  C   UNL     1       3.774   2.762  18.726  0.00  0.00    +0.000 A 
ATOM     22  C   UNL     1       3.794   4.163  18.840  0.00  0.00    +0.000 A 
BRANCH  22  23
ATOM     23  N   UNL     1       4.933   4.802  19.374  0.00  0.00    +0.000 N 
ATOM     24  H   UNL     1       5.211   4.432  20.276  0.00  0.00    +0.000 HD
BRANCH  23  25
ATOM     25  C   UNL     1       5.891   5.640  18.777  0.00  0.00    +0.000 A 
ATOM     26  C   UNL     1       7.159   5.746  19.364  0.00  0.00    +0.000 A 
ATOM     27  C   UNL     1       8.149   6.551  18.797  0.00  0.00    +0.000 A 
ATOM     28  C   UNL     1       7.883   7.261  17.629  0.00  0.00    +0.000 A 
ATOM     29  C   UNL     1       6.618   7.189  17.050  0.00  0.00    +0.000 A 
ATOM     30  C   UNL     1       5.624   6.397  17.633  0.00  0.00    +0.000 A 
ENDBRANCH  23  25
ENDBRANCH  22  23
ENDBRANCH  10  17
BRANCH   4  31
ATOM     31  C   UNL     1      -1.007  13.670  20.320  0.00  0.00    +0.000 C 
ATOM     32  N   UNL     1      -2.296  13.593  19.882  0.00  0.00    +0.000 N 
ATOM     33  O   UNL     1      -0.602  14.620  20.977  0.00  0.00    +0.000 OA
ATOM     34  H   UNL     1      -2.575  12.789  19.334  0.00  0.00    +0.000 HD
ATOM     35  H   UNL     1      -2.947  14.333  20.098  0.00  0.00    +0.000 HD
ENDBRANCH   4  31
TORSDOF 4
ENDMDL
MODEL 6
REMARK VINA RESULT:      -8.5      1.654      2.026
REMARK  Name = 
REMARK  5 active torsions:
REMARK  status: ('A' for Active; 'I' for Inactive)
REMARK    1  A    between atoms: C_1  and  N_2
REMARK    2  A    between atoms: C_4  and  C_5
REMARK    3  A    between atoms: N_13  and  C_14
REMARK    4  A    between atoms: C_19  and  N_20
REMARK    5  A    between atoms: N_20  and  C_21
REMARK                            x       y       z     vdW  Elec       q    Type
REMARK                         _______ _______ _______ _____ _____    ______ ____
ROOT
ATOM      1  C   UNL     1       2.366  11.660  18.099  0.00  0.00    +0.000 C 
ATOM      2  N   UNL     1       1.231  12.131  18.853  0.00  0.00    +0.000 N 
ATOM      3  N   UNL     1       0.727  13.364  18.591  0.00  0.00    +0.000 NA
ATOM      4  C   UNL     1      -0.229  13.548  19.530  0.00  0.00    +0.000 A 
ATOM      5  C   UNL     1      -0.294  12.435  20.395  0.00  0.00    +0.000 A 
ATOM      6  C   UNL     1       0.624  11.522  19.913  0.00  0.00    +0.000 A 
ATOM      7  C   UNL     1       0.844  10.220  20.520  0.00  0.00    +0.000 A 
ATOM      8  N   UNL     1       1.513   9.289  19.822  0.00  0.00    +0.000 NA
ATOM      9  C   UNL     1       1.580   8.074  20.385  0.00  0.00    +0.000 A 
ATOM     10  N   UNL     1       2.237   7.077  19.674  0.00  0.00    +0.000 N 
ATOM     11  N   UNL     1       1.036   7.772  21.579  0.00  0.00    +0.000 NA
ATOM     12  C   UNL     1       0.411   8.746  22.260  0.00  0.00    +0.000 A 
ATOM     13  C   UNL     1       0.256  10.010  21.763  0.00  0.00    +0.000 A 
ATOM     14  C   UNL     1      -0.418  11.129  22.517  0.00  0.00    +0.000 C 
ATOM     15  C   UNL     1      -1.136  12.141  21.592  0.00  0.00    +0.000 C 
ATOM     16  H   UNL     1       2.610   7.412  18.799  0.00  0.00    +0.000 HD
ENDROOT
BRANCH  10  17
ATOM     17  C   UNL     1       2.243   5.683  19.868  0.00  0.00    +0.000 A 
ATOM     18  C   UNL     1       1.072   5.097  20.381  0.00  0.00    +0.000 A 
ATOM     19  C   UNL     1       0.977   3.718  20.579  0.00  0.00    +0.000 A 
ATOM     20  C   UNL     1       2.063   2.903  20.289  0.00  0.00    +0.000 A 
ATOM     21  C   UNL     1       3.247   3.467  19.817  0.00  0.00    +0.000 A 
ATOM     22  C   UNL     1       3.358   4.850  19.593  0.00  0.00    +0.000 A 
BRANCH  22  23
ATOM     23  N   UNL     1       4.591   5.390  19.166  0.00  0.00    +0.000 N 
ATOM     24  H   UNL     1       5.093   5.868  19.906  0.00  0.00    +0.000 HD
BRANCH  23  25
ATOM     25  C   UNL     1       5.357   5.151  18.013  0.00  0.00    +0.000 A 
ATOM     26  C   UNL     1       4.733   5.218  16.759  0.00  0.00    +0.000 A 
ATOM     27  C   UNL     1       5.457   5.006  15.583  0.00  0.00    +0.000 A 
ATOM     28  C   UNL     1       6.820   4.725  15.648  0.00  0.00    +0.000 A 
ATOM     29  C   UNL     1       7.447   4.625  16.887  0.00  0.00    +0.000 A 
ATOM     30  C   UNL     1       6.714   4.819  18.062  0.00  0.00    +0.000 A 
ENDBRANCH  23  25
ENDBRANCH  22  23
ENDBRANCH  10  17
BRANCH   4  31
ATOM     31  C   UNL     1      -1.039  14.779  19.583  0.00  0.00    +0.000 C 
ATOM     32  N   UNL     1      -0.674  15.727  18.673  0.00  0.00    +0.000 N 
ATOM     33  O   UNL     1      -1.960  14.958  20.368  0.00  0.00    +0.000 OA
ATOM     34  H   UNL     1       0.101  15.531  18.052  0.00  0.00    +0.000 HD
ATOM     35  H   UNL     1      -1.169  16.606  18.634  0.00  0.00    +0.000 HD
ENDBRANCH   4  31
TORSDOF 4
ENDMDL
MODEL 7
REMARK VINA RESULT:      -8.5      1.146      1.350
REMARK  Name = 
REMARK  5 active torsions:
REMARK  status: ('A' for Active; 'I' for Inactive)
REMARK    1  A    between atoms: C_1  and  N_2
REMARK    2  A    between atoms: C_4  and  C_5
REMARK    3  A    between atoms: N_13  and  C_14
REMARK    4  A    between atoms: C_19  and  N_20
REMARK    5  A    between atoms: N_20  and  C_21
REMARK                            x       y       z     vdW  Elec       q    Type
REMARK                         _______ _______ _______ _____ _____    ______ ____
ROOT
ATOM      1  C   UNL     1       2.248  11.849  18.285  0.00  0.00    +0.000 C 
ATOM      2  N   UNL     1       1.110  12.232  19.084  0.00  0.00    +0.000 N 
ATOM      3  N   UNL     1       0.584  13.474  18.933  0.00  0.00    +0.000 NA
ATOM      4  C   UNL     1      -0.369  13.559  19.889  0.00  0.00    +0.000 A 
ATOM      5  C   UNL     1      -0.411  12.372  20.653  0.00  0.00    +0.000 A 
ATOM      6  C   UNL     1       0.520  11.521  20.088  0.00  0.00    +0.000 A 
ATOM      7  C   UNL     1       0.764  10.175  20.577  0.00  0.00    +0.000 A 
ATOM      8  N   UNL     1       1.444   9.321  19.796  0.00  0.00    +0.000 NA
ATOM      9  C   UNL     1       1.534   8.062  20.250  0.00  0.00    +0.000 A 
ATOM     10  N   UNL     1       2.203   7.143  19.450  0.00  0.00    +0.000 N 
ATOM     11  N   UNL     1       1.003   7.647  21.415  0.00  0.00    +0.000 NA
ATOM     12  C   UNL     1       0.366   8.546  22.181  0.00  0.00    +0.000 A 
ATOM     13  C   UNL     1       0.188   9.846  21.799  0.00  0.00    +0.000 A 
ATOM     14  C   UNL     1      -0.500  10.883  22.652  0.00  0.00    +0.000 C 
ATOM     15  C   UNL     1      -1.240  11.960  21.823  0.00  0.00    +0.000 C 
ATOM     16  H   UNL     1       2.565   7.560  18.606  0.00  0.00    +0.000 HD
ENDROOT
BRANCH  10  17
ATOM     17  C   UNL     1       2.234   5.737  19.520  0.00  0.00    +0.000 A 
ATOM     18  C   UNL     1       1.375   5.119  20.447  0.00  0.00    +0.000 A 
ATOM     19  C   UNL     1       1.317   3.728  20.565  0.00  0.00    +0.000 A 
ATOM     20  C   UNL     1       2.136   2.933  19.774  0.00  0.00    +0.000 A 
ATOM     21  C   UNL     1       3.022   3.527  18.878  0.00  0.00    +0.000 A 
ATOM     22  C   UNL     1       3.084   4.924  18.728  0.00  0.00    +0.000 A 
BRANCH  22  23
ATOM     23  N   UNL     1       4.034   5.488  17.850  0.00  0.00    +0.000 N 
ATOM     24  H   UNL     1       3.622   5.846  16.996  0.00  0.00    +0.000 HD
BRANCH  23  25
ATOM     25  C   UNL     1       5.364   5.889  18.058  0.00  0.00    +0.000 A 
ATOM     26  C   UNL     1       5.909   6.883  17.234  0.00  0.00    +0.000 A 
ATOM     27  C   UNL     1       7.221   7.327  17.414  0.00  0.00    +0.000 A 
ATOM     28  C   UNL     1       8.007   6.781  18.426  0.00  0.00    +0.000 A 
ATOM     29  C   UNL     1       7.490   5.771  19.233  0.00  0.00    +0.000 A 
ATOM     30  C   UNL     1       6.182   5.316  19.036  0.00  0.00    +0.000 A 
ENDBRANCH  23  25
ENDBRANCH  22  23
ENDBRANCH  10  17
BRANCH   4  31
ATOM     31  C   UNL     1      -1.199  14.767  20.054  0.00  0.00    +0.000 C 
ATOM     32  N   UNL     1      -2.539  14.523  20.092  0.00  0.00    +0.000 N 
ATOM     33  O   UNL     1      -0.744  15.900  20.148  0.00  0.00    +0.000 OA
ATOM     34  H   UNL     1      -2.861  13.567  20.001  0.00  0.00    +0.000 HD
ATOM     35  H   UNL     1      -3.189  15.287  20.200  0.00  0.00    +0.000 HD
ENDBRANCH   4  31
TORSDOF 4
ENDMDL
MODEL 8
REMARK VINA RESULT:      -8.2      1.579      2.170
REMARK  Name = 
REMARK  5 active torsions:
REMARK  status: ('A' for Active; 'I' for Inactive)
REMARK    1  A    between atoms: C_1  and  N_2
REMARK    2  A    between atoms: C_4  and  C_5
REMARK    3  A    between atoms: N_13  and  C_14
REMARK    4  A    between atoms: C_19  and  N_20
REMARK    5  A    between atoms: N_20  and  C_21
REMARK                            x       y       z     vdW  Elec       q    Type
REMARK                         _______ _______ _______ _____ _____    ______ ____
ROOT
ATOM      1  C   UNL     1       2.030  12.191  18.634  0.00  0.00    +0.000 C 
ATOM      2  N   UNL     1       0.838  12.517  19.379  0.00  0.00    +0.000 N 
ATOM      3  N   UNL     1       0.259  13.732  19.202  0.00  0.00    +0.000 NA
ATOM      4  C   UNL     1      -0.740  13.769  20.113  0.00  0.00    +0.000 A 
ATOM      5  C   UNL     1      -0.758  12.581  20.876  0.00  0.00    +0.000 A 
ATOM      6  C   UNL     1       0.238  11.777  20.355  0.00  0.00    +0.000 A 
ATOM      7  C   UNL     1       0.525  10.444  20.857  0.00  0.00    +0.000 A 
ATOM      8  N   UNL     1       1.282   9.625  20.109  0.00  0.00    +0.000 NA
ATOM      9  C   UNL     1       1.413   8.372  20.569  0.00  0.00    +0.000 A 
ATOM     10  N   UNL     1       2.163   7.487  19.802  0.00  0.00    +0.000 N 
ATOM     11  N   UNL     1       0.849   7.930  21.709  0.00  0.00    +0.000 NA
ATOM     12  C   UNL     1       0.134   8.796  22.444  0.00  0.00    +0.000 A 
ATOM     13  C   UNL     1      -0.090  10.086  22.052  0.00  0.00    +0.000 A 
ATOM     14  C   UNL     1      -0.866  11.087  22.871  0.00  0.00    +0.000 C 
ATOM     15  C   UNL     1      -1.619  12.128  22.007  0.00  0.00    +0.000 C 
ATOM     16  H   UNL     1       2.542   7.922  18.975  0.00  0.00    +0.000 HD
ENDROOT
BRANCH  10  17
ATOM     17  C   UNL     1       2.259   6.085  19.875  0.00  0.00    +0.000 A 
ATOM     18  C   UNL     1       1.225   5.401  20.540  0.00  0.00    +0.000 A 
ATOM     19  C   UNL     1       1.222   4.008  20.636  0.00  0.00    +0.000 A 
ATOM     20  C   UNL     1       2.268   3.276  20.090  0.00  0.00    +0.000 A 
ATOM     21  C   UNL     1       3.322   3.936  19.462  0.00  0.00    +0.000 A 
ATOM     22  C   UNL     1       3.337   5.336  19.337  0.00  0.00    +0.000 A 
BRANCH  22  23
ATOM     23  N   UNL     1       4.448   5.971  18.743  0.00  0.00    +0.000 N 
ATOM     24  H   UNL     1       4.823   6.727  19.305  0.00  0.00    +0.000 HD
BRANCH  23  25
ATOM     25  C   UNL     1       5.281   5.579  17.681  0.00  0.00    +0.000 A 
ATOM     26  C   UNL     1       6.521   4.995  17.972  0.00  0.00    +0.000 A 
ATOM     27  C   UNL     1       7.374   4.571  16.950  0.00  0.00    +0.000 A 
ATOM     28  C   UNL     1       6.995   4.726  15.619  0.00  0.00    +0.000 A 
ATOM     29  C   UNL     1       5.779   5.332  15.313  0.00  0.00    +0.000 A 
ATOM     30  C   UNL     1       4.937   5.772  16.340  0.00  0.00    +0.000 A 
ENDBRANCH  23  25
ENDBRANCH  22  23
ENDBRANCH  10  17
BRANCH   4  31
ATOM     31  C   UNL     1      -1.635  14.934  20.238  0.00  0.00    +0.000 C 
ATOM     32  N   UNL     1      -2.961  14.621  20.252  0.00  0.00    +0.000 N 
ATOM     33  O   UNL     1      -1.242  16.091  20.319  0.00  0.00    +0.000 OA
ATOM     34  H   UNL     1      -3.231  13.648  20.173  0.00  0.00    +0.000 HD
ATOM     35  H   UNL     1      -3.652  15.352  20.332  0.00  0.00    +0.000 HD
ENDBRANCH   4  31
TORSDOF 4
ENDMDL
MODEL 9
REMARK VINA RESULT:      -8.2      1.456      1.946
REMARK  Name = 
REMARK  5 active torsions:
REMARK  status: ('A' for Active; 'I' for Inactive)
REMARK    1  A    between atoms: C_1  and  N_2
REMARK    2  A    between atoms: C_4  and  C_5
REMARK    3  A    between atoms: N_13  and  C_14
REMARK    4  A    between atoms: C_19  and  N_20
REMARK    5  A    between atoms: N_20  and  C_21
REMARK                            x       y       z     vdW  Elec       q    Type
REMARK                         _______ _______ _______ _____ _____    ______ ____
ROOT
ATOM      1  C   UNL     1       2.449  11.585  17.990  0.00  0.00    +0.000 C 
ATOM      2  N   UNL     1       1.326  12.067  18.755  0.00  0.00    +0.000 N 
ATOM      3  N   UNL     1       0.860  13.322  18.528  0.00  0.00    +0.000 NA
ATOM      4  C   UNL     1      -0.093  13.506  19.469  0.00  0.00    +0.000 A 
ATOM      5  C   UNL     1      -0.196  12.370  20.301  0.00  0.00    +0.000 A 
ATOM      6  C   UNL     1       0.697  11.445  19.793  0.00  0.00    +0.000 A 
ATOM      7  C   UNL     1       0.874  10.119  20.362  0.00  0.00    +0.000 A 
ATOM      8  N   UNL     1       1.518   9.190  19.637  0.00  0.00    +0.000 NA
ATOM      9  C   UNL     1       1.545   7.957  20.164  0.00  0.00    +0.000 A 
ATOM     10  N   UNL     1       2.175   6.962  19.425  0.00  0.00    +0.000 N 
ATOM     11  N   UNL     1       0.988   7.636  21.347  0.00  0.00    +0.000 NA
ATOM     12  C   UNL     1       0.390   8.607  22.055  0.00  0.00    +0.000 A 
ATOM     13  C   UNL     1       0.276   9.889  21.596  0.00  0.00    +0.000 A 
ATOM     14  C   UNL     1      -0.367  11.005  22.382  0.00  0.00    +0.000 C 
ATOM     15  C   UNL     1      -1.050  12.066  21.485  0.00  0.00    +0.000 C 
ATOM     16  H   UNL     1       2.561   7.312  18.562  0.00  0.00    +0.000 HD
ENDROOT
BRANCH  10  17
ATOM     17  C   UNL     1       2.139   5.563  19.576  0.00  0.00    +0.000 A 
ATOM     18  C   UNL     1       1.491   5.055  20.717  0.00  0.00    +0.000 A 
ATOM     19  C   UNL     1       1.380   3.680  20.935  0.00  0.00    +0.000 A 
ATOM     20  C   UNL     1       1.939   2.789  20.028  0.00  0.00    +0.000 A 
ATOM     21  C   UNL     1       2.620   3.273  18.912  0.00  0.00    +0.000 A 
ATOM     22  C   UNL     1       2.726   4.652  18.662  0.00  0.00    +0.000 A 
BRANCH  22  23
ATOM     23  N   UNL     1       3.470   5.103  17.551  0.00  0.00    +0.000 N 
ATOM     24  H   UNL     1       2.995   5.825  17.021  0.00  0.00    +0.000 HD
BRANCH  23  25
ATOM     25  C   UNL     1       4.825   4.942  17.216  0.00  0.00    +0.000 A 
ATOM     26  C   UNL     1       5.790   5.050  18.227  0.00  0.00    +0.000 A 
ATOM     27  C   UNL     1       7.148   4.879  17.947  0.00  0.00    +0.000 A 
ATOM     28  C   UNL     1       7.559   4.596  16.646  0.00  0.00    +0.000 A 
ATOM     29  C   UNL     1       6.615   4.515  15.626  0.00  0.00    +0.000 A 
ATOM     30  C   UNL     1       5.259   4.706  15.908  0.00  0.00    +0.000 A 
ENDBRANCH  23  25
ENDBRANCH  22  23
ENDBRANCH  10  17
BRANCH   4  31
ATOM     31  C   UNL     1      -0.866  14.760  19.557  0.00  0.00    +0.000 C 
ATOM     32  N   UNL     1      -0.580  15.662  18.576  0.00  0.00    +0.000 N 
ATOM     33  O   UNL     1      -1.694  14.992  20.428  0.00  0.00    +0.000 OA
ATOM     34  H   UNL     1       0.121  15.422  17.885  0.00  0.00    +0.000 HD
ATOM     35  H   UNL     1      -1.056  16.551  18.553  0.00  0.00    +0.000 HD
ENDBRANCH   4  31
TORSDOF 4
ENDMDL
