MODEL 1
REMARK VINA RESULT:      -9.0      0.000      0.000
REMARK  Name = 
REMARK  5 active torsions:
REMARK  status: ('A' for Active; 'I' for Inactive)
REMARK    1  A    between atoms: C_2  and  C_12
REMARK    2  A    between atoms: N_3  and  N_4
REMARK    3  A    between atoms: C_5  and  C_6
REMARK    4  A    between atoms: C_16  and  S_17
REMARK    5  A    between atoms: S_17  and  N_20
REMARK                            x       y       z     vdW  Elec       q    Type
REMARK                         _______ _______ _______ _____ _____    ______ ____
ROOT
ATOM      1  C   UNL     1       6.613   5.596  17.799  0.00  0.00    +0.000 A 
ATOM      2  C   UNL     1       6.123   5.924  16.527  0.00  0.00    +0.000 A 
ATOM      3  C   UNL     1       5.032   5.227  15.997  0.00  0.00    +0.000 A 
ATOM      4  C   UNL     1       4.415   4.225  16.748  0.00  0.00    +0.000 A 
ATOM      5  C   UNL     1       4.916   3.886  18.011  0.00  0.00    +0.000 A 
ATOM      6  C   UNL     1       6.038   4.541  18.526  0.00  0.00    +0.000 A 
ENDROOT
BRANCH   1   8
ATOM      7  O   UNL     1       8.324   5.879  19.370  0.00  0.00    +0.000 OA
ATOM      8  C   UNL     1       7.694   6.388  18.444  0.00  0.00    +0.000 C 
ATOM      9  N   UNL     1       7.850   7.683  17.963  0.00  0.00    +0.000 N 
ATOM     10  H   UNL     1       7.216   8.054  17.264  0.00  0.00    +0.000 HD
BRANCH   9  11
ATOM     11  N   UNL     1       8.703   8.540  18.603  0.00  0.00    +0.000 NA
ATOM     12  C   UNL     1       8.636   9.788  18.265  0.00  0.00    +0.000 C 
BRANCH  12  13
ATOM     13  C   UNL     1       9.491  10.811  18.908  0.00  0.00    +0.000 A 
ATOM     14  C   UNL     1       9.417  11.035  20.281  0.00  0.00    +0.000 A 
ATOM     15  C   UNL     1      10.252  11.996  20.824  0.00  0.00    +0.000 A 
ATOM     16  N   UNL     1      11.130  12.724  20.098  0.00  0.00    +0.000 NA
ATOM     17  C   UNL     1      11.172  12.486  18.770  0.00  0.00    +0.000 A 
ATOM     18  C   UNL     1      10.379  11.550  18.130  0.00  0.00    +0.000 A 
ENDBRANCH  12  13
ENDBRANCH   9  11
ENDBRANCH   1   8
BRANCH   5  19
ATOM     19  S   UNL     1       3.953   2.836  19.076  0.00  0.00    +0.000 S 
ATOM     20  O   UNL     1       3.214   1.940  18.211  0.00  0.00    +0.000 OA
ATOM     21  O   UNL     1       4.838   2.307  20.094  0.00  0.00    +0.000 OA
BRANCH  19  22
ATOM     22  N   UNL     1       2.827   3.845  19.860  0.00  0.00    +0.000 NA
ATOM     23  C   UNL     1       2.557   3.592  21.295  0.00  0.00    +0.000 C 
ATOM     24  C   UNL     1       1.317   2.721  21.315  0.00  0.00    +0.000 C 
ATOM     25  C   UNL     1       0.490   3.240  20.155  0.00  0.00    +0.000 C 
ATOM     26  C   UNL     1       1.490   3.855  19.178  0.00  0.00    +0.000 C 
ENDBRANCH  19  22
ENDBRANCH   5  19
TORSDOF 5
ENDMDL
MODEL 2
REMARK VINA RESULT:      -8.9      0.441      1.100
REMARK  Name = 
REMARK  5 active torsions:
REMARK  status: ('A' for Active; 'I' for Inactive)
REMARK    1  A    between atoms: C_2  and  C_12
REMARK    2  A    between atoms: N_3  and  N_4
REMARK    3  A    between atoms: C_5  and  C_6
REMARK    4  A    between atoms: C_16  and  S_17
REMARK    5  A    between atoms: S_17  and  N_20
REMARK                            x       y       z     vdW  Elec       q    Type
REMARK                         _______ _______ _______ _____ _____    ______ ____
ROOT
ATOM      1  C   UNL     1       6.576   5.603  17.689  0.00  0.00    +0.000 A 
ATOM      2  C   UNL     1       6.107   5.966  16.418  0.00  0.00    +0.000 A 
ATOM      3  C   UNL     1       5.050   5.259  15.835  0.00  0.00    +0.000 A 
ATOM      4  C   UNL     1       4.445   4.211  16.531  0.00  0.00    +0.000 A 
ATOM      5  C   UNL     1       4.926   3.837  17.792  0.00  0.00    +0.000 A 
ATOM      6  C   UNL     1       6.015   4.504  18.360  0.00  0.00    +0.000 A 
ENDROOT
BRANCH   1   8
ATOM      7  O   UNL     1       8.169   5.910  19.375  0.00  0.00    +0.000 OA
ATOM      8  C   UNL     1       7.617   6.400  18.390  0.00  0.00    +0.000 C 
ATOM      9  N   UNL     1       7.826   7.679  17.887  0.00  0.00    +0.000 N 
ATOM     10  H   UNL     1       7.251   8.038  17.133  0.00  0.00    +0.000 HD
BRANCH   9  11
ATOM     11  N   UNL     1       8.642   8.544  18.565  0.00  0.00    +0.000 NA
ATOM     12  C   UNL     1       8.646   9.774  18.163  0.00  0.00    +0.000 C 
BRANCH  12  13
ATOM     13  C   UNL     1       9.469  10.805  18.836  0.00  0.00    +0.000 A 
ATOM     14  C   UNL     1      10.297  11.644  18.095  0.00  0.00    +0.000 A 
ATOM     15  C   UNL     1      11.032  12.596  18.782  0.00  0.00    +0.000 A 
ATOM     16  N   UNL     1      10.987  12.754  20.124  0.00  0.00    +0.000 NA
ATOM     17  C   UNL     1      10.178  11.920  20.812  0.00  0.00    +0.000 A 
ATOM     18  C   UNL     1       9.406  10.935  20.221  0.00  0.00    +0.000 A 
ENDBRANCH  12  13
ENDBRANCH   9  11
ENDBRANCH   1   8
BRANCH   5  19
ATOM     19  S   UNL     1       3.970   2.719  18.792  0.00  0.00    +0.000 S 
ATOM     20  O   UNL     1       3.563   1.635  17.922  0.00  0.00    +0.000 OA
ATOM     21  O   UNL     1       4.726   2.447  19.998  0.00  0.00    +0.000 OA
BRANCH  19  22
ATOM     22  N   UNL     1       2.566   3.565  19.256  0.00  0.00    +0.000 NA
ATOM     23  C   UNL     1       2.680   4.524  20.379  0.00  0.00    +0.000 C 
ATOM     24  C   UNL     1       2.238   3.750  21.605  0.00  0.00    +0.000 C 
ATOM     25  C   UNL     1       1.135   2.848  21.086  0.00  0.00    +0.000 C 
ATOM     26  C   UNL     1       1.429   2.649  19.602  0.00  0.00    +0.000 C 
ENDBRANCH  19  22
ENDBRANCH   5  19
TORSDOF 5
ENDMDL
MODEL 3
REMARK VINA RESULT:      -8.9      1.268      1.879
REMARK  Name = 
REMARK  5 active torsions:
REMARK  status: ('A' for Active; 'I' for Inactive)
REMARK    1  A    between atoms: C_2  and  C_12
REMARK    2  A    between atoms: N_3  and  N_4
REMARK    3  A    between atoms: C_5  and  C_6
REMARK    4  A    between atoms: C_16  and  S_17
REMARK    5  A    between atoms: S_17  and  N_20
REMARK                            x       y       z     vdW  Elec       q    Type
REMARK                         _______ _______ _______ _____ _____    ______ ____
ROOT
ATOM      1  C   UNL     1       6.571   5.423  17.758  0.00  0.00    +0.000 A 
ATOM      2  C   UNL     1       6.727   4.962  16.443  0.00  0.00    +0.000 A 
ATOM      3  C   UNL     1       5.684   4.271  15.817  0.00  0.00    +0.000 A 
ATOM      4  C   UNL     1       4.480   4.065  16.493  0.00  0.00    +0.000 A 
ATOM      5  C   UNL     1       4.333   4.509  17.813  0.00  0.00    +0.000 A 
ATOM      6  C   UNL     1       5.387   5.155  18.464  0.00  0.00    +0.000 A 
ENDROOT
BRANCH   1   8
ATOM      7  O   UNL     1       8.211   5.797  19.385  0.00  0.00    +0.000 OA
ATOM      8  C   UNL     1       7.609   6.260  18.417  0.00  0.00    +0.000 C 
ATOM      9  N   UNL     1       7.756   7.541  17.897  0.00  0.00    +0.000 N 
ATOM     10  H   UNL     1       7.144   7.874  17.162  0.00  0.00    +0.000 HD
BRANCH   9  11
ATOM     11  N   UNL     1       8.566   8.439  18.540  0.00  0.00    +0.000 NA
ATOM     12  C   UNL     1       8.540   9.658  18.107  0.00  0.00    +0.000 C 
BRANCH  12  13
ATOM     13  C   UNL     1       9.353  10.721  18.741  0.00  0.00    +0.000 A 
ATOM     14  C   UNL     1      10.042  11.645  17.960  0.00  0.00    +0.000 A 
ATOM     15  C   UNL     1      10.775  12.623  18.612  0.00  0.00    +0.000 A 
ATOM     16  N   UNL     1      10.855  12.728  19.957  0.00  0.00    +0.000 NA
ATOM     17  C   UNL     1      10.179  11.813  20.684  0.00  0.00    +0.000 A 
ATOM     18  C   UNL     1       9.422  10.796  20.130  0.00  0.00    +0.000 A 
ENDBRANCH  12  13
ENDBRANCH   9  11
ENDBRANCH   1   8
BRANCH   5  19
ATOM     19  S   UNL     1       2.714   4.516  18.552  0.00  0.00    +0.000 S 
ATOM     20  O   UNL     1       2.758   5.481  19.630  0.00  0.00    +0.000 OA
ATOM     21  O   UNL     1       1.742   4.652  17.486  0.00  0.00    +0.000 OA
BRANCH  19  22
ATOM     22  N   UNL     1       2.493   2.976  19.244  0.00  0.00    +0.000 NA
ATOM     23  C   UNL     1       1.129   2.613  19.695  0.00  0.00    +0.000 C 
ATOM     24  C   UNL     1       1.104   2.936  21.176  0.00  0.00    +0.000 C 
ATOM     25  C   UNL     1       2.505   2.592  21.645  0.00  0.00    +0.000 C 
ATOM     26  C   UNL     1       3.399   2.735  20.417  0.00  0.00    +0.000 C 
ENDBRANCH  19  22
ENDBRANCH   5  19
TORSDOF 5
ENDMDL
MODEL 4
REMARK VINA RESULT:      -8.7      1.292      1.484
REMARK  Name = 
REMARK  5 active torsions:
REMARK  status: ('A' for Active; 'I' for Inactive)
REMARK    1  A    between atoms: C_2  and  C_12
REMARK    2  A    between atoms: N_3  and  N_4
REMARK    3  A    between atoms: C_5  and  C_6
REMARK    4  A    between atoms: C_16  and  S_17
REMARK    5  A    between atoms: S_17  and  N_20
REMARK                            x       y       z     vdW  Elec       q    Type
REMARK                         _______ _______ _______ _____ _____    ______ ____
ROOT
ATOM      1  C   UNL     1       6.693   5.649  17.472  0.00  0.00    +0.000 A 
ATOM      2  C   UNL     1       6.953   5.291  16.141  0.00  0.00    +0.000 A 
ATOM      3  C   UNL     1       5.976   4.624  15.394  0.00  0.00    +0.000 A 
ATOM      4  C   UNL     1       4.734   4.341  15.966  0.00  0.00    +0.000 A 
ATOM      5  C   UNL     1       4.484   4.682  17.301  0.00  0.00    +0.000 A 
ATOM      6  C   UNL     1       5.472   5.302  18.071  0.00  0.00    +0.000 A 
ENDROOT
BRANCH   1   8
ATOM      7  O   UNL     1       8.164   5.958  19.265  0.00  0.00    +0.000 OA
ATOM      8  C   UNL     1       7.659   6.459  18.261  0.00  0.00    +0.000 C 
ATOM      9  N   UNL     1       7.854   7.759  17.809  0.00  0.00    +0.000 N 
ATOM     10  H   UNL     1       7.316   8.121  17.030  0.00  0.00    +0.000 HD
BRANCH   9  11
ATOM     11  N   UNL     1       8.594   8.630  18.563  0.00  0.00    +0.000 NA
ATOM     12  C   UNL     1       8.691   9.843  18.121  0.00  0.00    +0.000 C 
BRANCH  12  13
ATOM     13  C   UNL     1       9.443  10.879  18.865  0.00  0.00    +0.000 A 
ATOM     14  C   UNL     1       9.408  10.916  20.257  0.00  0.00    +0.000 A 
ATOM     15  C   UNL     1      10.143  11.902  20.895  0.00  0.00    +0.000 A 
ATOM     16  N   UNL     1      10.888  12.822  20.243  0.00  0.00    +0.000 NA
ATOM     17  C   UNL     1      10.894  12.761  18.894  0.00  0.00    +0.000 A 
ATOM     18  C   UNL     1      10.193  11.818  18.162  0.00  0.00    +0.000 A 
ENDBRANCH  12  13
ENDBRANCH   9  11
ENDBRANCH   1   8
BRANCH   5  19
ATOM     19  S   UNL     1       2.819   4.597  17.922  0.00  0.00    +0.000 S 
ATOM     20  O   UNL     1       2.311   5.952  17.928  0.00  0.00    +0.000 OA
ATOM     21  O   UNL     1       2.126   3.557  17.187  0.00  0.00    +0.000 OA
BRANCH  19  22
ATOM     22  N   UNL     1       2.933   4.080  19.541  0.00  0.00    +0.000 NA
ATOM     23  C   UNL     1       3.014   2.623  19.795  0.00  0.00    +0.000 C 
ATOM     24  C   UNL     1       1.590   2.193  20.088  0.00  0.00    +0.000 C 
ATOM     25  C   UNL     1       1.004   3.371  20.842  0.00  0.00    +0.000 C 
ATOM     26  C   UNL     1       1.805   4.590  20.390  0.00  0.00    +0.000 C 
ENDBRANCH  19  22
ENDBRANCH   5  19
TORSDOF 5
ENDMDL
MODEL 5
REMARK VINA RESULT:      -8.7      0.927      1.563
REMARK  Name = 
REMARK  5 active torsions:
REMARK  status: ('A' for Active; 'I' for Inactive)
REMARK    1  A    between atoms: C_2  and  C_12
REMARK    2  A    between atoms: N_3  and  N_4
REMARK    3  A    between atoms: C_5  and  C_6
REMARK    4  A    between atoms: C_16  and  S_17
REMARK    5  A    between atoms: S_17  and  N_20
REMARK                            x       y       z     vdW  Elec       q    Type
REMARK                         _______ _______ _______ _____ _____    ______ ____
ROOT
ATOM      1  C   UNL     1       6.630   5.472  17.574  0.00  0.00    +0.000 A 
ATOM      2  C   UNL     1       6.461   5.618  16.190  0.00  0.00    +0.000 A 
ATOM      3  C   UNL     1       5.472   4.885  15.525  0.00  0.00    +0.000 A 
ATOM      4  C   UNL     1       4.636   4.030  16.246  0.00  0.00    +0.000 A 
ATOM      5  C   UNL     1       4.817   3.872  17.626  0.00  0.00    +0.000 A 
ATOM      6  C   UNL     1       5.836   4.560  18.289  0.00  0.00    +0.000 A 
ENDROOT
BRANCH   1   8
ATOM      7  O   UNL     1       8.096   5.856  19.356  0.00  0.00    +0.000 OA
ATOM      8  C   UNL     1       7.590   6.316  18.334  0.00  0.00    +0.000 C 
ATOM      9  N   UNL     1       7.778   7.600  17.833  0.00  0.00    +0.000 N 
ATOM     10  H   UNL     1       7.239   7.929  17.040  0.00  0.00    +0.000 HD
BRANCH   9  11
ATOM     11  N   UNL     1       8.512   8.502  18.554  0.00  0.00    +0.000 NA
ATOM     12  C   UNL     1       8.616   9.694  18.059  0.00  0.00    +0.000 C 
BRANCH  12  13
ATOM     13  C   UNL     1       9.363  10.761  18.763  0.00  0.00    +0.000 A 
ATOM     14  C   UNL     1      10.034  11.747  18.045  0.00  0.00    +0.000 A 
ATOM     15  C   UNL     1      10.703  12.725  18.761  0.00  0.00    +0.000 A 
ATOM     16  N   UNL     1      10.739  12.773  20.111  0.00  0.00    +0.000 NA
ATOM     17  C   UNL     1      10.084  11.798  20.776  0.00  0.00    +0.000 A 
ATOM     18  C   UNL     1       9.388  10.776  20.155  0.00  0.00    +0.000 A 
ENDBRANCH  12  13
ENDBRANCH   9  11
ENDBRANCH   1   8
BRANCH   5  19
ATOM     19  S   UNL     1       3.571   3.029  18.575  0.00  0.00    +0.000 S 
ATOM     20  O   UNL     1       3.203   1.851  17.819  0.00  0.00    +0.000 OA
ATOM     21  O   UNL     1       4.059   2.905  19.934  0.00  0.00    +0.000 OA
BRANCH  19  22
ATOM     22  N   UNL     1       2.216   4.061  18.617  0.00  0.00    +0.000 NA
ATOM     23  C   UNL     1       2.445   5.509  18.402  0.00  0.00    +0.000 C 
ATOM     24  C   UNL     1       2.547   6.103  19.793  0.00  0.00    +0.000 C 
ATOM     25  C   UNL     1       1.555   5.294  20.606  0.00  0.00    +0.000 C 
ATOM     26  C   UNL     1       1.444   3.946  19.899  0.00  0.00    +0.000 C 
ENDBRANCH  19  22
ENDBRANCH   5  19
TORSDOF 5
ENDMDL
MODEL 6
REMARK VINA RESULT:      -8.6      0.904      1.348
REMARK  Name = 
REMARK  5 active torsions:
REMARK  status: ('A' for Active; 'I' for Inactive)
REMARK    1  A    between atoms: C_2  and  C_12
REMARK    2  A    between atoms: N_3  and  N_4
REMARK    3  A    between atoms: C_5  and  C_6
REMARK    4  A    between atoms: C_16  and  S_17
REMARK    5  A    between atoms: S_17  and  N_20
REMARK                            x       y       z     vdW  Elec       q    Type
REMARK                         _______ _______ _______ _____ _____    ______ ____
ROOT
ATOM      1  C   UNL     1       6.687   5.555  17.695  0.00  0.00    +0.000 A 
ATOM      2  C   UNL     1       6.305   5.789  16.366  0.00  0.00    +0.000 A 
ATOM      3  C   UNL     1       5.303   5.009  15.780  0.00  0.00    +0.000 A 
ATOM      4  C   UNL     1       4.665   4.017  16.526  0.00  0.00    +0.000 A 
ATOM      5  C   UNL     1       5.060   3.772  17.848  0.00  0.00    +0.000 A 
ATOM      6  C   UNL     1       6.096   4.511  18.425  0.00  0.00    +0.000 A 
ENDROOT
BRANCH   1   8
ATOM      7  O   UNL     1       8.227   6.009  19.396  0.00  0.00    +0.000 OA
ATOM      8  C   UNL     1       7.664   6.435  18.389  0.00  0.00    +0.000 C 
ATOM      9  N   UNL     1       7.801   7.710  17.853  0.00  0.00    +0.000 N 
ATOM     10  H   UNL     1       7.218   8.011  17.080  0.00  0.00    +0.000 HD
BRANCH   9  11
ATOM     11  N   UNL     1       8.549   8.644  18.519  0.00  0.00    +0.000 NA
ATOM     12  C   UNL     1       8.571   9.836  18.017  0.00  0.00    +0.000 C 
BRANCH  12  13
ATOM     13  C   UNL     1       9.324  10.934  18.664  0.00  0.00    +0.000 A 
ATOM     14  C   UNL     1       9.685  10.849  20.006  0.00  0.00    +0.000 A 
ATOM     15  C   UNL     1      10.400  11.903  20.551  0.00  0.00    +0.000 A 
ATOM     16  N   UNL     1      10.763  13.003  19.853  0.00  0.00    +0.000 NA
ATOM     17  C   UNL     1      10.391  13.055  18.557  0.00  0.00    +0.000 A 
ATOM     18  C   UNL     1       9.675  12.058  17.919  0.00  0.00    +0.000 A 
ENDBRANCH  12  13
ENDBRANCH   9  11
ENDBRANCH   1   8
BRANCH   5  19
ATOM     19  S   UNL     1       4.050   2.731  18.878  0.00  0.00    +0.000 S 
ATOM     20  O   UNL     1       3.481   1.721  18.011  0.00  0.00    +0.000 OA
ATOM     21  O   UNL     1       4.843   2.347  20.029  0.00  0.00    +0.000 OA
BRANCH  19  22
ATOM     22  N   UNL     1       2.774   3.705  19.446  0.00  0.00    +0.000 NA
ATOM     23  C   UNL     1       1.475   3.621  18.738  0.00  0.00    +0.000 C 
ATOM     24  C   UNL     1       1.492   4.767  17.747  0.00  0.00    +0.000 C 
ATOM     25  C   UNL     1       2.232   5.869  18.479  0.00  0.00    +0.000 C 
ATOM     26  C   UNL     1       3.134   5.162  19.487  0.00  0.00    +0.000 C 
ENDBRANCH  19  22
ENDBRANCH   5  19
TORSDOF 5
ENDMDL
MODEL 7
REMARK VINA RESULT:      -8.4      1.577      2.078
REMARK  Name = 
REMARK  5 active torsions:
REMARK  status: ('A' for Active; 'I' for Inactive)
REMARK    1  A    between atoms: C_2  and  C_12
REMARK    2  A    between atoms: N_3  and  N_4
REMARK    3  A    between atoms: C_5  and  C_6
REMARK    4  A    between atoms: C_16  and  S_17
REMARK    5  A    between atoms: S_17  and  N_20
REMARK                            x       y       z     vdW  Elec       q    Type
REMARK                         _______ _______ _______ _____ _____    ______ ____
ROOT
ATOM      1  C   UNL     1       6.464   5.545  17.734  0.00  0.00    +0.000 A 
ATOM      2  C   UNL     1       6.558   5.099  16.408  0.00  0.00    +0.000 A 
ATOM      3  C   UNL     1       5.466   4.467  15.805  0.00  0.00    +0.000 A 
ATOM      4  C   UNL     1       4.274   4.307  16.513  0.00  0.00    +0.000 A 
ATOM      5  C   UNL     1       4.187   4.737  17.844  0.00  0.00    +0.000 A 
ATOM      6  C   UNL     1       5.290   5.322  18.472  0.00  0.00    +0.000 A 
ENDROOT
BRANCH   1   8
ATOM      7  O   UNL     1       8.181   5.808  19.301  0.00  0.00    +0.000 OA
ATOM      8  C   UNL     1       7.559   6.322  18.373  0.00  0.00    +0.000 C 
ATOM      9  N   UNL     1       7.736   7.612  17.885  0.00  0.00    +0.000 N 
ATOM     10  H   UNL     1       7.107   7.991  17.185  0.00  0.00    +0.000 HD
BRANCH   9  11
ATOM     11  N   UNL     1       8.605   8.459  18.519  0.00  0.00    +0.000 NA
ATOM     12  C   UNL     1       8.578   9.700  18.154  0.00  0.00    +0.000 C 
BRANCH  12  13
ATOM     13  C   UNL     1       9.453  10.712  18.787  0.00  0.00    +0.000 A 
ATOM     14  C   UNL     1      10.292  11.508  18.011  0.00  0.00    +0.000 A 
ATOM     15  C   UNL     1      11.077  12.445  18.662  0.00  0.00    +0.000 A 
ATOM     16  N   UNL     1      11.072  12.627  20.001  0.00  0.00    +0.000 NA
ATOM     17  C   UNL     1      10.252  11.835  20.724  0.00  0.00    +0.000 A 
ATOM     18  C   UNL     1       9.431  10.868  20.171  0.00  0.00    +0.000 A 
ENDBRANCH  12  13
ENDBRANCH   9  11
ENDBRANCH   1   8
BRANCH   5  19
ATOM     19  S   UNL     1       2.594   4.808  18.632  0.00  0.00    +0.000 S 
ATOM     20  O   UNL     1       2.704   5.784  19.696  0.00  0.00    +0.000 OA
ATOM     21  O   UNL     1       1.594   4.966  17.594  0.00  0.00    +0.000 OA
BRANCH  19  22
ATOM     22  N   UNL     1       2.342   3.284  19.350  0.00  0.00    +0.000 NA
ATOM     23  C   UNL     1       3.260   2.875  20.437  0.00  0.00    +0.000 C 
ATOM     24  C   UNL     1       4.321   2.030  19.760  0.00  0.00    +0.000 C 
ATOM     25  C   UNL     1       3.559   1.290  18.678  0.00  0.00    +0.000 C 
ATOM     26  C   UNL     1       2.355   2.167  18.348  0.00  0.00    +0.000 C 
ENDBRANCH  19  22
ENDBRANCH   5  19
TORSDOF 5
ENDMDL
MODEL 8
REMARK VINA RESULT:      -8.3      1.428      1.763
REMARK  Name = 
REMARK  5 active torsions:
REMARK  status: ('A' for Active; 'I' for Inactive)
REMARK    1  A    between atoms: C_2  and  C_12
REMARK    2  A    between atoms: N_3  and  N_4
REMARK    3  A    between atoms: C_5  and  C_6
REMARK    4  A    between atoms: C_16  and  S_17
REMARK    5  A    between atoms: S_17  and  N_20
REMARK                            x       y       z     vdW  Elec       q    Type
REMARK                         _______ _______ _______ _____ _____    ______ ____
ROOT
ATOM      1  C   UNL     1       5.942   5.757  16.734  0.00  0.00    +0.000 A 
ATOM      2  C   UNL     1       6.450   5.252  15.528  0.00  0.00    +0.000 A 
ATOM      3  C   UNL     1       6.076   3.977  15.091  0.00  0.00    +0.000 A 
ATOM      4  C   UNL     1       5.175   3.220  15.842  0.00  0.00    +0.000 A 
ATOM      5  C   UNL     1       4.683   3.718  17.056  0.00  0.00    +0.000 A 
ATOM      6  C   UNL     1       5.092   4.969  17.526  0.00  0.00    +0.000 A 
ENDROOT
BRANCH   1   8
ATOM      7  O   UNL     1       5.275   7.905  17.378  0.00  0.00    +0.000 OA
ATOM      8  C   UNL     1       6.224   7.149  17.174  0.00  0.00    +0.000 C 
ATOM      9  N   UNL     1       7.571   7.486  17.254  0.00  0.00    +0.000 N 
ATOM     10  H   UNL     1       8.286   6.828  16.967  0.00  0.00    +0.000 HD
BRANCH   9  11
ATOM     11  N   UNL     1       7.926   8.787  17.488  0.00  0.00    +0.000 NA
ATOM     12  C   UNL     1       8.643   9.013  18.542  0.00  0.00    +0.000 C 
BRANCH  12  13
ATOM     13  C   UNL     1       9.109  10.376  18.883  0.00  0.00    +0.000 A 
ATOM     14  C   UNL     1       9.066  11.396  17.936  0.00  0.00    +0.000 A 
ATOM     15  C   UNL     1       9.504  12.653  18.319  0.00  0.00    +0.000 A 
ATOM     16  N   UNL     1       9.967  12.940  19.557  0.00  0.00    +0.000 NA
ATOM     17  C   UNL     1      10.000  11.927  20.449  0.00  0.00    +0.000 A 
ATOM     18  C   UNL     1       9.588  10.637  20.164  0.00  0.00    +0.000 A 
ENDBRANCH  12  13
ENDBRANCH   9  11
ENDBRANCH   1   8
BRANCH   5  19
ATOM     19  S   UNL     1       3.319   2.892  17.845  0.00  0.00    +0.000 S 
ATOM     20  O   UNL     1       2.146   3.180  17.047  0.00  0.00    +0.000 OA
ATOM     21  O   UNL     1       3.717   1.521  18.094  0.00  0.00    +0.000 OA
BRANCH  19  22
ATOM     22  N   UNL     1       3.112   3.641  19.360  0.00  0.00    +0.000 NA
ATOM     23  C   UNL     1       2.958   2.766  20.546  0.00  0.00    +0.000 C 
ATOM     24  C   UNL     1       1.462   2.643  20.754  0.00  0.00    +0.000 C 
ATOM     25  C   UNL     1       0.928   4.009  20.365  0.00  0.00    +0.000 C 
ATOM     26  C   UNL     1       1.944   4.584  19.382  0.00  0.00    +0.000 C 
ENDBRANCH  19  22
ENDBRANCH   5  19
TORSDOF 5
ENDMDL
MODEL 9
REMARK VINA RESULT:      -8.1      0.896      1.051
REMARK  Name = 
REMARK  5 active torsions:
REMARK  status: ('A' for Active; 'I' for Inactive)
REMARK    1  A    between atoms: C_2  and  C_12
REMARK    2  A    between atoms: N_3  and  N_4
REMARK    3  A    between atoms: C_5  and  C_6
REMARK    4  A    between atoms: C_16  and  S_17
REMARK    5  A    between atoms: S_17  and  N_20
REMARK                            x       y       z     vdW  Elec       q    Type
REMARK                         _______ _______ _______ _____ _____    ______ ____
ROOT
ATOM      1  C   UNL     1       5.889   5.869  17.976  0.00  0.00    +0.000 A 
ATOM      2  C   UNL     1       4.885   6.481  17.212  0.00  0.00    +0.000 A 
ATOM      3  C   UNL     1       3.642   5.858  17.065  0.00  0.00    +0.000 A 
ATOM      4  C   UNL     1       3.393   4.640  17.701  0.00  0.00    +0.000 A 
ATOM      5  C   UNL     1       4.403   4.021  18.448  0.00  0.00    +0.000 A 
ATOM      6  C   UNL     1       5.665   4.611  18.558  0.00  0.00    +0.000 A 
ENDROOT
BRANCH   1   8
ATOM      7  O   UNL     1       7.912   6.096  19.129  0.00  0.00    +0.000 OA
ATOM      8  C   UNL     1       7.181   6.552  18.251  0.00  0.00    +0.000 C 
ATOM      9  N   UNL     1       7.413   7.707  17.512  0.00  0.00    +0.000 N 
ATOM     10  H   UNL     1       6.706   8.067  16.881  0.00  0.00    +0.000 HD
BRANCH   9  11
ATOM     11  N   UNL     1       8.493   8.493  17.812  0.00  0.00    +0.000 NA
ATOM     12  C   UNL     1       8.247   9.615  18.407  0.00  0.00    +0.000 C 
BRANCH  12  13
ATOM     13  C   UNL     1       9.337  10.535  18.805  0.00  0.00    +0.000 A 
ATOM     14  C   UNL     1       9.510  10.893  20.139  0.00  0.00    +0.000 A 
ATOM     15  C   UNL     1      10.555  11.747  20.449  0.00  0.00    +0.000 A 
ATOM     16  N   UNL     1      11.412  12.247  19.530  0.00  0.00    +0.000 NA
ATOM     17  C   UNL     1      11.212  11.885  18.245  0.00  0.00    +0.000 A 
ATOM     18  C   UNL     1      10.196  11.040  17.832  0.00  0.00    +0.000 A 
ENDBRANCH  12  13
ENDBRANCH   9  11
ENDBRANCH   1   8
BRANCH   5  19
ATOM     19  S   UNL     1       3.990   2.642  19.493  0.00  0.00    +0.000 S 
ATOM     20  O   UNL     1       3.143   1.769  18.708  0.00  0.00    +0.000 OA
ATOM     21  O   UNL     1       5.221   2.143  20.073  0.00  0.00    +0.000 OA
BRANCH  19  22
ATOM     22  N   UNL     1       3.049   3.267  20.768  0.00  0.00    +0.000 NA
ATOM     23  C   UNL     1       1.705   2.682  20.984  0.00  0.00    +0.000 C 
ATOM     24  C   UNL     1       0.752   3.600  20.247  0.00  0.00    +0.000 C 
ATOM     25  C   UNL     1       1.353   4.979  20.443  0.00  0.00    +0.000 C 
ATOM     26  C   UNL     1       2.846   4.751  20.661  0.00  0.00    +0.000 C 
ENDBRANCH  19  22
ENDBRANCH   5  19
TORSDOF 5
ENDMDL
