MODEL 1
REMARK VINA RESULT:      -7.1      0.000      0.000
REMARK  Name = 
REMARK  4 active torsions:
REMARK  status: ('A' for Active; 'I' for Inactive)
REMARK    1  A    between atoms: C_1  and  C_2
REMARK    2  A    between atoms: C_2  and  C_3
REMARK    3  A    between atoms: C_17  and  N_18
REMARK    4  A    between atoms: C_22  and  C_23
REMARK                            x       y       z     vdW  Elec       q    Type
REMARK                         _______ _______ _______ _____ _____    ______ ____
ROOT
ATOM      1  C   UNL     1      -2.942   9.612  17.842  0.00  0.00    +0.000 C 
ATOM      2  C   UNL     1      -2.666  11.121  17.985  0.00  0.00    +0.000 C 
ATOM      3  C   UNL     1      -2.152  11.648  16.642  0.00  0.00    +0.000 C 
ATOM      4  O   UNL     1      -3.945  11.780  18.272  0.00  0.00    +0.000 OA
ATOM      5  C   UNL     1      -3.802  12.285  19.564  0.00  0.00    +0.000 C 
ATOM      6  C   UNL     1      -2.618  12.076  20.120  0.00  0.00    +0.000 C 
ATOM      7  C   UNL     1      -2.277  12.426  21.492  0.00  0.00    +0.000 C 
ATOM      8  O   UNL     1      -1.235  12.035  21.995  0.00  0.00    +0.000 OA
ATOM      9  C   UNL     1      -3.280  13.210  22.234  0.00  0.00    +0.000 A 
ATOM     10  C   UNL     1      -2.965  13.674  23.517  0.00  0.00    +0.000 A 
ATOM     11  C   UNL     1      -3.918  14.382  24.250  0.00  0.00    +0.000 A 
ATOM     12  C   UNL     1      -5.181  14.619  23.704  0.00  0.00    +0.000 A 
ATOM     13  C   UNL     1      -5.495  14.158  22.423  0.00  0.00    +0.000 A 
ATOM     14  C   UNL     1      -4.541  13.452  21.676  0.00  0.00    +0.000 A 
ATOM     15  C   UNL     1      -4.886  12.960  20.311  0.00  0.00    +0.000 C 
ATOM     16  O   UNL     1      -6.013  13.101  19.850  0.00  0.00    +0.000 OA
ATOM     17  C   UNL     1      -1.726  11.354  19.202  0.00  0.00    +0.000 C 
ENDROOT
BRANCH  17  18
ATOM     18  N   UNL     1      -0.472  12.036  18.954  0.00  0.00    +0.000 N 
ATOM     19  N   UNL     1      -0.474  13.367  18.713  0.00  0.00    +0.000 NA
ATOM     20  N   UNL     1       0.762  13.729  18.417  0.00  0.00    +0.000 NA
ATOM     21  C   UNL     1       1.549  12.619  18.481  0.00  0.00    +0.000 A 
ATOM     22  C   UNL     1       0.805  11.510  18.851  0.00  0.00    +0.000 A 
BRANCH  22  23
ATOM     23  C   UNL     1       1.200  10.108  19.008  0.00  0.00    +0.000 A 
ATOM     24  C   UNL     1       1.719   9.359  17.943  0.00  0.00    +0.000 A 
ATOM     25  C   UNL     1       2.225   8.073  18.140  0.00  0.00    +0.000 A 
ATOM     26  C   UNL     1       2.120   7.473  19.388  0.00  0.00    +0.000 A 
ATOM     27  C   UNL     1       1.510   8.159  20.434  0.00  0.00    +0.000 A 
ATOM     28  C   UNL     1       1.067   9.473  20.250  0.00  0.00    +0.000 A 
ENDBRANCH  22  23
ENDBRANCH  17  18
TORSDOF 2
ENDMDL
MODEL 2
REMARK VINA RESULT:      -7.1      8.110     12.158
REMARK  Name = 
REMARK  4 active torsions:
REMARK  status: ('A' for Active; 'I' for Inactive)
REMARK    1  A    between atoms: C_1  and  C_2
REMARK    2  A    between atoms: C_2  and  C_3
REMARK    3  A    between atoms: C_17  and  N_18
REMARK    4  A    between atoms: C_22  and  C_23
REMARK                            x       y       z     vdW  Elec       q    Type
REMARK                         _______ _______ _______ _____ _____    ______ ____
ROOT
ATOM      1  C   UNL     1       7.871   5.727  18.705  0.00  0.00    +0.000 C 
ATOM      2  C   UNL     1       7.058   6.453  17.616  0.00  0.00    +0.000 C 
ATOM      3  C   UNL     1       6.859   7.908  18.050  0.00  0.00    +0.000 C 
ATOM      4  O   UNL     1       7.860   6.451  16.388  0.00  0.00    +0.000 OA
ATOM      5  C   UNL     1       7.138   5.660  15.493  0.00  0.00    +0.000 C 
ATOM      6  C   UNL     1       5.989   5.194  15.959  0.00  0.00    +0.000 C 
ATOM      7  C   UNL     1       5.120   4.272  15.240  0.00  0.00    +0.000 C 
ATOM      8  O   UNL     1       4.176   3.738  15.801  0.00  0.00    +0.000 OA
ATOM      9  C   UNL     1       5.489   3.983  13.842  0.00  0.00    +0.000 A 
ATOM     10  C   UNL     1       4.633   3.194  13.064  0.00  0.00    +0.000 A 
ATOM     11  C   UNL     1       4.987   2.877  11.752  0.00  0.00    +0.000 A 
ATOM     12  C   UNL     1       6.192   3.342  11.225  0.00  0.00    +0.000 A 
ATOM     13  C   UNL     1       7.046   4.132  12.001  0.00  0.00    +0.000 A 
ATOM     14  C   UNL     1       6.695   4.462  13.317  0.00  0.00    +0.000 A 
ATOM     15  C   UNL     1       7.614   5.301  14.139  0.00  0.00    +0.000 C 
ATOM     16  O   UNL     1       8.706   5.656  13.711  0.00  0.00    +0.000 OA
ATOM     17  C   UNL     1       5.754   5.653  17.335  0.00  0.00    +0.000 C 
ENDROOT
BRANCH  17  18
ATOM     18  N   UNL     1       4.495   6.348  17.509  0.00  0.00    +0.000 N 
ATOM     19  N   UNL     1       4.261   7.484  16.815  0.00  0.00    +0.000 NA
ATOM     20  N   UNL     1       3.104   7.979  17.221  0.00  0.00    +0.000 NA
ATOM     21  C   UNL     1       2.603   7.142  18.171  0.00  0.00    +0.000 A 
ATOM     22  C   UNL     1       3.449   6.063  18.371  0.00  0.00    +0.000 A 
BRANCH  22  23
ATOM     23  C   UNL     1       3.355   4.940  19.307  0.00  0.00    +0.000 A 
ATOM     24  C   UNL     1       2.481   4.958  20.403  0.00  0.00    +0.000 A 
ATOM     25  C   UNL     1       2.296   3.828  21.202  0.00  0.00    +0.000 A 
ATOM     26  C   UNL     1       3.065   2.694  20.983  0.00  0.00    +0.000 A 
ATOM     27  C   UNL     1       4.017   2.692  19.966  0.00  0.00    +0.000 A 
ATOM     28  C   UNL     1       4.150   3.800  19.124  0.00  0.00    +0.000 A 
ENDBRANCH  22  23
ENDBRANCH  17  18
TORSDOF 2
ENDMDL
MODEL 3
REMARK VINA RESULT:      -6.9      2.934      7.334
REMARK  Name = 
REMARK  4 active torsions:
REMARK  status: ('A' for Active; 'I' for Inactive)
REMARK    1  A    between atoms: C_1  and  C_2
REMARK    2  A    between atoms: C_2  and  C_3
REMARK    3  A    between atoms: C_17  and  N_18
REMARK    4  A    between atoms: C_22  and  C_23
REMARK                            x       y       z     vdW  Elec       q    Type
REMARK                         _______ _______ _______ _____ _____    ______ ____
ROOT
ATOM      1  C   UNL     1      -6.524  15.635  20.601  0.00  0.00    +0.000 C 
ATOM      2  C   UNL     1      -6.257  14.186  21.051  0.00  0.00    +0.000 C 
ATOM      3  C   UNL     1      -7.203  13.857  22.210  0.00  0.00    +0.000 C 
ATOM      4  O   UNL     1      -6.591  13.304  19.928  0.00  0.00    +0.000 OA
ATOM      5  C   UNL     1      -5.376  12.730  19.553  0.00  0.00    +0.000 C 
ATOM      6  C   UNL     1      -4.336  13.088  20.290  0.00  0.00    +0.000 C 
ATOM      7  C   UNL     1      -2.959  12.694  20.023  0.00  0.00    +0.000 C 
ATOM      8  O   UNL     1      -2.033  13.212  20.628  0.00  0.00    +0.000 OA
ATOM      9  C   UNL     1      -2.761  11.699  18.954  0.00  0.00    +0.000 A 
ATOM     10  C   UNL     1      -1.475  11.195  18.726  0.00  0.00    +0.000 A 
ATOM     11  C   UNL     1      -1.263  10.285  17.690  0.00  0.00    +0.000 A 
ATOM     12  C   UNL     1      -2.330   9.885  16.885  0.00  0.00    +0.000 A 
ATOM     13  C   UNL     1      -3.615  10.386  17.114  0.00  0.00    +0.000 A 
ATOM     14  C   UNL     1      -3.840  11.295  18.156  0.00  0.00    +0.000 A 
ATOM     15  C   UNL     1      -5.213  11.828  18.391  0.00  0.00    +0.000 C 
ATOM     16  O   UNL     1      -6.143  11.540  17.648  0.00  0.00    +0.000 OA
ATOM     17  C   UNL     1      -4.741  14.017  21.355  0.00  0.00    +0.000 C 
ENDROOT
BRANCH  17  18
ATOM     18  N   UNL     1      -4.373  13.574  22.684  0.00  0.00    +0.000 N 
ATOM     19  N   UNL     1      -4.319  12.250  22.953  0.00  0.00    +0.000 NA
ATOM     20  N   UNL     1      -4.067  12.105  24.242  0.00  0.00    +0.000 NA
ATOM     21  C   UNL     1      -3.952  13.349  24.787  0.00  0.00    +0.000 A 
ATOM     22  C   UNL     1      -4.113  14.326  23.817  0.00  0.00    +0.000 A 
BRANCH  22  23
ATOM     23  C   UNL     1      -4.115  15.787  23.930  0.00  0.00    +0.000 A 
ATOM     24  C   UNL     1      -3.021  16.565  23.527  0.00  0.00    +0.000 A 
ATOM     25  C   UNL     1      -3.092  17.959  23.505  0.00  0.00    +0.000 A 
ATOM     26  C   UNL     1      -4.223  18.601  23.990  0.00  0.00    +0.000 A 
ATOM     27  C   UNL     1      -5.280  17.849  24.496  0.00  0.00    +0.000 A 
ATOM     28  C   UNL     1      -5.233  16.452  24.452  0.00  0.00    +0.000 A 
ENDBRANCH  22  23
ENDBRANCH  17  18
TORSDOF 2
ENDMDL
MODEL 4
REMARK VINA RESULT:      -6.9      2.992      7.303
REMARK  Name = 
REMARK  4 active torsions:
REMARK  status: ('A' for Active; 'I' for Inactive)
REMARK    1  A    between atoms: C_1  and  C_2
REMARK    2  A    between atoms: C_2  and  C_3
REMARK    3  A    between atoms: C_17  and  N_18
REMARK    4  A    between atoms: C_22  and  C_23
REMARK                            x       y       z     vdW  Elec       q    Type
REMARK                         _______ _______ _______ _____ _____    ______ ____
ROOT
ATOM      1  C   UNL     1      -6.109  16.007  20.749  0.00  0.00    +0.000 C 
ATOM      2  C   UNL     1      -6.047  14.514  21.124  0.00  0.00    +0.000 C 
ATOM      3  C   UNL     1      -7.055  14.254  22.246  0.00  0.00    +0.000 C 
ATOM      4  O   UNL     1      -6.467  13.744  19.948  0.00  0.00    +0.000 OA
ATOM      5  C   UNL     1      -5.330  13.034  19.563  0.00  0.00    +0.000 C 
ATOM      6  C   UNL     1      -4.269  13.212  20.336  0.00  0.00    +0.000 C 
ATOM      7  C   UNL     1      -2.951  12.652  20.070  0.00  0.00    +0.000 C 
ATOM      8  O   UNL     1      -1.979  13.010  20.719  0.00  0.00    +0.000 OA
ATOM      9  C   UNL     1      -2.860  11.698  18.952  0.00  0.00    +0.000 A 
ATOM     10  C   UNL     1      -1.647  11.040  18.718  0.00  0.00    +0.000 A 
ATOM     11  C   UNL     1      -1.532  10.164  17.637  0.00  0.00    +0.000 A 
ATOM     12  C   UNL     1      -2.623   9.953  16.793  0.00  0.00    +0.000 A 
ATOM     13  C   UNL     1      -3.836  10.608  17.028  0.00  0.00    +0.000 A 
ATOM     14  C   UNL     1      -3.963  11.483  18.115  0.00  0.00    +0.000 A 
ATOM     15  C   UNL     1      -5.259  12.181  18.355  0.00  0.00    +0.000 C 
ATOM     16  O   UNL     1      -6.201  12.058  17.582  0.00  0.00    +0.000 OA
ATOM     17  C   UNL     1      -4.574  14.129  21.443  0.00  0.00    +0.000 C 
ENDROOT
BRANCH  17  18
ATOM     18  N   UNL     1      -4.299  13.572  22.752  0.00  0.00    +0.000 N 
ATOM     19  N   UNL     1      -4.413  12.238  22.944  0.00  0.00    +0.000 NA
ATOM     20  N   UNL     1      -4.217  11.993  24.228  0.00  0.00    +0.000 NA
ATOM     21  C   UNL     1      -3.968  13.182  24.846  0.00  0.00    +0.000 A 
ATOM     22  C   UNL     1      -3.982  14.223  23.932  0.00  0.00    +0.000 A 
BRANCH  22  23
ATOM     23  C   UNL     1      -3.812  15.665  24.129  0.00  0.00    +0.000 A 
ATOM     24  C   UNL     1      -4.837  16.471  24.643  0.00  0.00    +0.000 A 
ATOM     25  C   UNL     1      -4.615  17.812  24.961  0.00  0.00    +0.000 A 
ATOM     26  C   UNL     1      -3.391  18.398  24.666  0.00  0.00    +0.000 A 
ATOM     27  C   UNL     1      -2.394  17.643  24.055  0.00  0.00    +0.000 A 
ATOM     28  C   UNL     1      -2.596  16.282  23.803  0.00  0.00    +0.000 A 
ENDBRANCH  22  23
ENDBRANCH  17  18
TORSDOF 2
ENDMDL
MODEL 5
REMARK VINA RESULT:      -6.8      2.492      7.109
REMARK  Name = 
REMARK  4 active torsions:
REMARK  status: ('A' for Active; 'I' for Inactive)
REMARK    1  A    between atoms: C_1  and  C_2
REMARK    2  A    between atoms: C_2  and  C_3
REMARK    3  A    between atoms: C_17  and  N_18
REMARK    4  A    between atoms: C_22  and  C_23
REMARK                            x       y       z     vdW  Elec       q    Type
REMARK                         _______ _______ _______ _____ _____    ______ ____
ROOT
ATOM      1  C   UNL     1      -1.976  11.609  23.389  0.00  0.00    +0.000 C 
ATOM      2  C   UNL     1      -1.646  12.510  22.184  0.00  0.00    +0.000 C 
ATOM      3  C   UNL     1      -0.796  13.685  22.677  0.00  0.00    +0.000 C 
ATOM      4  O   UNL     1      -0.834  11.722  21.250  0.00  0.00    +0.000 OA
ATOM      5  C   UNL     1      -1.630  11.588  20.113  0.00  0.00    +0.000 C 
ATOM      6  C   UNL     1      -2.803  12.200  20.175  0.00  0.00    +0.000 C 
ATOM      7  C   UNL     1      -3.834  12.115  19.149  0.00  0.00    +0.000 C 
ATOM      8  O   UNL     1      -4.958  12.546  19.356  0.00  0.00    +0.000 OA
ATOM      9  C   UNL     1      -3.457  11.430  17.900  0.00  0.00    +0.000 A 
ATOM     10  C   UNL     1      -4.364  11.414  16.834  0.00  0.00    +0.000 A 
ATOM     11  C   UNL     1      -4.039  10.735  15.659  0.00  0.00    +0.000 A 
ATOM     12  C   UNL     1      -2.816  10.071  15.554  0.00  0.00    +0.000 A 
ATOM     13  C   UNL     1      -1.909  10.089  16.618  0.00  0.00    +0.000 A 
ATOM     14  C   UNL     1      -2.223  10.775  17.798  0.00  0.00    +0.000 A 
ATOM     15  C   UNL     1      -1.251  10.785  18.929  0.00  0.00    +0.000 C 
ATOM     16  O   UNL     1      -0.206  10.148  18.876  0.00  0.00    +0.000 OA
ATOM     17  C   UNL     1      -2.966  12.896  21.458  0.00  0.00    +0.000 C 
ENDROOT
BRANCH  17  18
ATOM     18  N   UNL     1      -3.264  14.307  21.322  0.00  0.00    +0.000 N 
ATOM     19  N   UNL     1      -2.427  15.098  20.613  0.00  0.00    +0.000 NA
ATOM     20  N   UNL     1      -2.853  16.344  20.722  0.00  0.00    +0.000 NA
ATOM     21  C   UNL     1      -3.973  16.336  21.498  0.00  0.00    +0.000 A 
ATOM     22  C   UNL     1      -4.293  15.044  21.885  0.00  0.00    +0.000 A 
BRANCH  22  23
ATOM     23  C   UNL     1      -5.370  14.547  22.745  0.00  0.00    +0.000 A 
ATOM     24  C   UNL     1      -6.496  15.323  23.048  0.00  0.00    +0.000 A 
ATOM     25  C   UNL     1      -7.579  14.787  23.748  0.00  0.00    +0.000 A 
ATOM     26  C   UNL     1      -7.505  13.496  24.252  0.00  0.00    +0.000 A 
ATOM     27  C   UNL     1      -6.350  12.744  24.055  0.00  0.00    +0.000 A 
ATOM     28  C   UNL     1      -5.296  13.259  23.293  0.00  0.00    +0.000 A 
ENDBRANCH  22  23
ENDBRANCH  17  18
TORSDOF 2
ENDMDL
MODEL 6
REMARK VINA RESULT:      -6.7      2.750      6.121
REMARK  Name = 
REMARK  4 active torsions:
REMARK  status: ('A' for Active; 'I' for Inactive)
REMARK    1  A    between atoms: C_1  and  C_2
REMARK    2  A    between atoms: C_2  and  C_3
REMARK    3  A    between atoms: C_17  and  N_18
REMARK    4  A    between atoms: C_22  and  C_23
REMARK                            x       y       z     vdW  Elec       q    Type
REMARK                         _______ _______ _______ _____ _____    ______ ____
ROOT
ATOM      1  C   UNL     1       0.462   9.516  20.481  0.00  0.00    +0.000 C 
ATOM      2  C   UNL     1       0.041  10.851  21.124  0.00  0.00    +0.000 C 
ATOM      3  C   UNL     1      -0.863  10.548  22.322  0.00  0.00    +0.000 C 
ATOM      4  O   UNL     1       1.255  11.504  21.624  0.00  0.00    +0.000 OA
ATOM      5  C   UNL     1       1.385  12.657  20.850  0.00  0.00    +0.000 C 
ATOM      6  C   UNL     1       0.419  12.847  19.963  0.00  0.00    +0.000 C 
ATOM      7  C   UNL     1       0.398  13.925  18.983  0.00  0.00    +0.000 C 
ATOM      8  O   UNL     1      -0.421  13.930  18.078  0.00  0.00    +0.000 OA
ATOM      9  C   UNL     1       1.449  14.949  19.118  0.00  0.00    +0.000 A 
ATOM     10  C   UNL     1       1.416  16.070  18.278  0.00  0.00    +0.000 A 
ATOM     11  C   UNL     1       2.427  17.028  18.364  0.00  0.00    +0.000 A 
ATOM     12  C   UNL     1       3.466  16.863  19.280  0.00  0.00    +0.000 A 
ATOM     13  C   UNL     1       3.498  15.746  20.120  0.00  0.00    +0.000 A 
ATOM     14  C   UNL     1       2.484  14.782  20.047  0.00  0.00    +0.000 A 
ATOM     15  C   UNL     1       2.528  13.591  20.943  0.00  0.00    +0.000 C 
ATOM     16  O   UNL     1       3.472  13.400  21.701  0.00  0.00    +0.000 OA
ATOM     17  C   UNL     1      -0.578  11.770  20.032  0.00  0.00    +0.000 C 
ENDROOT
BRANCH  17  18
ATOM     18  N   UNL     1      -1.931  12.243  20.248  0.00  0.00    +0.000 N 
ATOM     19  N   UNL     1      -2.226  12.920  21.380  0.00  0.00    +0.000 NA
ATOM     20  N   UNL     1      -3.528  13.148  21.391  0.00  0.00    +0.000 NA
ATOM     21  C   UNL     1      -4.054  12.619  20.251  0.00  0.00    +0.000 A 
ATOM     22  C   UNL     1      -3.060  12.050  19.470  0.00  0.00    +0.000 A 
BRANCH  22  23
ATOM     23  C   UNL     1      -3.145  11.333  18.195  0.00  0.00    +0.000 A 
ATOM     24  C   UNL     1      -4.159  11.594  17.263  0.00  0.00    +0.000 A 
ATOM     25  C   UNL     1      -4.146  11.010  15.995  0.00  0.00    +0.000 A 
ATOM     26  C   UNL     1      -3.176  10.068  15.678  0.00  0.00    +0.000 A 
ATOM     27  C   UNL     1      -2.222   9.714  16.629  0.00  0.00    +0.000 A 
ATOM     28  C   UNL     1      -2.197  10.353  17.873  0.00  0.00    +0.000 A 
ENDBRANCH  22  23
ENDBRANCH  17  18
TORSDOF 2
ENDMDL
MODEL 7
REMARK VINA RESULT:      -6.7      8.542     11.506
REMARK  Name = 
REMARK  4 active torsions:
REMARK  status: ('A' for Active; 'I' for Inactive)
REMARK    1  A    between atoms: C_1  and  C_2
REMARK    2  A    between atoms: C_2  and  C_3
REMARK    3  A    between atoms: C_17  and  N_18
REMARK    4  A    between atoms: C_22  and  C_23
REMARK                            x       y       z     vdW  Elec       q    Type
REMARK                         _______ _______ _______ _____ _____    ______ ____
ROOT
ATOM      1  C   UNL     1      11.600  15.900  16.833  0.00  0.00    +0.000 C 
ATOM      2  C   UNL     1      10.903  15.481  18.142  0.00  0.00    +0.000 C 
ATOM      3  C   UNL     1      11.979  15.209  19.197  0.00  0.00    +0.000 C 
ATOM      4  O   UNL     1      10.097  16.618  18.598  0.00  0.00    +0.000 OA
ATOM      5  C   UNL     1       8.777  16.176  18.509  0.00  0.00    +0.000 C 
ATOM      6  C   UNL     1       8.631  14.925  18.100  0.00  0.00    +0.000 C 
ATOM      7  C   UNL     1       7.348  14.286  17.838  0.00  0.00    +0.000 C 
ATOM      8  O   UNL     1       7.295  13.198  17.286  0.00  0.00    +0.000 OA
ATOM      9  C   UNL     1       6.148  15.052  18.218  0.00  0.00    +0.000 A 
ATOM     10  C   UNL     1       4.891  14.447  18.098  0.00  0.00    +0.000 A 
ATOM     11  C   UNL     1       3.742  15.172  18.413  0.00  0.00    +0.000 A 
ATOM     12  C   UNL     1       3.850  16.496  18.842  0.00  0.00    +0.000 A 
ATOM     13  C   UNL     1       5.105  17.099  18.965  0.00  0.00    +0.000 A 
ATOM     14  C   UNL     1       6.265  16.377  18.657  0.00  0.00    +0.000 A 
ATOM     15  C   UNL     1       7.600  17.029  18.787  0.00  0.00    +0.000 C 
ATOM     16  O   UNL     1       7.703  18.211  19.094  0.00  0.00    +0.000 OA
ATOM     17  C   UNL     1       9.936  14.298  17.850  0.00  0.00    +0.000 C 
ENDROOT
BRANCH  17  18
ATOM     18  N   UNL     1      10.143  13.070  18.590  0.00  0.00    +0.000 N 
ATOM     19  N   UNL     1      10.618  11.979  17.948  0.00  0.00    +0.000 NA
ATOM     20  N   UNL     1      10.619  10.971  18.803  0.00  0.00    +0.000 NA
ATOM     21  C   UNL     1      10.151  11.435  19.995  0.00  0.00    +0.000 A 
ATOM     22  C   UNL     1       9.858  12.787  19.915  0.00  0.00    +0.000 A 
BRANCH  22  23
ATOM     23  C   UNL     1       9.297  13.700  20.914  0.00  0.00    +0.000 A 
ATOM     24  C   UNL     1       7.918  13.780  21.157  0.00  0.00    +0.000 A 
ATOM     25  C   UNL     1       7.410  14.545  22.208  0.00  0.00    +0.000 A 
ATOM     26  C   UNL     1       8.266  15.332  22.967  0.00  0.00    +0.000 A 
ATOM     27  C   UNL     1       9.627  15.351  22.673  0.00  0.00    +0.000 A 
ATOM     28  C   UNL     1      10.141  14.529  21.664  0.00  0.00    +0.000 A 
ENDBRANCH  22  23
ENDBRANCH  17  18
TORSDOF 2
ENDMDL
MODEL 8
REMARK VINA RESULT:      -6.6      2.085      7.155
REMARK  Name = 
REMARK  4 active torsions:
REMARK  status: ('A' for Active; 'I' for Inactive)
REMARK    1  A    between atoms: C_1  and  C_2
REMARK    2  A    between atoms: C_2  and  C_3
REMARK    3  A    between atoms: C_17  and  N_18
REMARK    4  A    between atoms: C_22  and  C_23
REMARK                            x       y       z     vdW  Elec       q    Type
REMARK                         _______ _______ _______ _____ _____    ______ ____
ROOT
ATOM      1  C   UNL     1      -3.415  12.258  23.767  0.00  0.00    +0.000 C 
ATOM      2  C   UNL     1      -2.095  12.777  23.166  0.00  0.00    +0.000 C 
ATOM      3  C   UNL     1      -1.704  14.064  23.897  0.00  0.00    +0.000 C 
ATOM      4  O   UNL     1      -1.061  11.771  23.433  0.00  0.00    +0.000 OA
ATOM      5  C   UNL     1      -0.697  11.292  22.175  0.00  0.00    +0.000 C 
ATOM      6  C   UNL     1      -1.319  11.866  21.156  0.00  0.00    +0.000 C 
ATOM      7  C   UNL     1      -1.172  11.460  19.764  0.00  0.00    +0.000 C 
ATOM      8  O   UNL     1      -1.914  11.905  18.903  0.00  0.00    +0.000 OA
ATOM      9  C   UNL     1      -0.136  10.450  19.485  0.00  0.00    +0.000 A 
ATOM     10  C   UNL     1       0.131  10.102  18.155  0.00  0.00    +0.000 A 
ATOM     11  C   UNL     1       1.079   9.118  17.875  0.00  0.00    +0.000 A 
ATOM     12  C   UNL     1       1.753   8.482  18.920  0.00  0.00    +0.000 A 
ATOM     13  C   UNL     1       1.488   8.832  20.247  0.00  0.00    +0.000 A 
ATOM     14  C   UNL     1       0.543   9.824  20.538  0.00  0.00    +0.000 A 
ATOM     15  C   UNL     1       0.263  10.187  21.957  0.00  0.00    +0.000 C 
ATOM     16  O   UNL     1       0.796   9.588  22.884  0.00  0.00    +0.000 OA
ATOM     17  C   UNL     1      -2.250  12.901  21.624  0.00  0.00    +0.000 C 
ENDROOT
BRANCH  17  18
ATOM     18  N   UNL     1      -2.017  14.204  21.033  0.00  0.00    +0.000 N 
ATOM     19  N   UNL     1      -0.777  14.525  20.601  0.00  0.00    +0.000 NA
ATOM     20  N   UNL     1      -0.797  15.786  20.206  0.00  0.00    +0.000 NA
ATOM     21  C   UNL     1      -2.063  16.259  20.383  0.00  0.00    +0.000 A 
ATOM     22  C   UNL     1      -2.890  15.268  20.887  0.00  0.00    +0.000 A 
BRANCH  22  23
ATOM     23  C   UNL     1      -4.303  15.314  21.273  0.00  0.00    +0.000 A 
ATOM     24  C   UNL     1      -5.314  14.785  20.458  0.00  0.00    +0.000 A 
ATOM     25  C   UNL     1      -6.635  14.705  20.901  0.00  0.00    +0.000 A 
ATOM     26  C   UNL     1      -6.987  15.254  22.127  0.00  0.00    +0.000 A 
ATOM     27  C   UNL     1      -6.018  15.881  22.906  0.00  0.00    +0.000 A 
ATOM     28  C   UNL     1      -4.683  15.897  22.490  0.00  0.00    +0.000 A 
ENDBRANCH  22  23
ENDBRANCH  17  18
TORSDOF 2
ENDMDL
MODEL 9
REMARK VINA RESULT:      -6.6      3.350      6.662
REMARK  Name = 
REMARK  4 active torsions:
REMARK  status: ('A' for Active; 'I' for Inactive)
REMARK    1  A    between atoms: C_1  and  C_2
REMARK    2  A    between atoms: C_2  and  C_3
REMARK    3  A    between atoms: C_17  and  N_18
REMARK    4  A    between atoms: C_22  and  C_23
REMARK                            x       y       z     vdW  Elec       q    Type
REMARK                         _______ _______ _______ _____ _____    ______ ____
ROOT
ATOM      1  C   UNL     1      -1.163  12.408  18.260  0.00  0.00    +0.000 C 
ATOM      2  C   UNL     1      -0.004  11.848  19.107  0.00  0.00    +0.000 C 
ATOM      3  C   UNL     1      -0.073  10.319  19.071  0.00  0.00    +0.000 C 
ATOM      4  O   UNL     1       1.251  12.262  18.471  0.00  0.00    +0.000 OA
ATOM      5  C   UNL     1       1.848  13.125  19.389  0.00  0.00    +0.000 C 
ATOM      6  C   UNL     1       1.178  13.291  20.520  0.00  0.00    +0.000 C 
ATOM      7  C   UNL     1       1.559  14.218  21.577  0.00  0.00    +0.000 C 
ATOM      8  O   UNL     1       0.798  14.456  22.502  0.00  0.00    +0.000 OA
ATOM      9  C   UNL     1       2.865  14.882  21.423  0.00  0.00    +0.000 A 
ATOM     10  C   UNL     1       3.338  15.696  22.459  0.00  0.00    +0.000 A 
ATOM     11  C   UNL     1       4.554  16.365  22.313  0.00  0.00    +0.000 A 
ATOM     12  C   UNL     1       5.289  16.224  21.135  0.00  0.00    +0.000 A 
ATOM     13  C   UNL     1       4.818  15.409  20.101  0.00  0.00    +0.000 A 
ATOM     14  C   UNL     1       3.602  14.727  20.242  0.00  0.00    +0.000 A 
ATOM     15  C   UNL     1       3.105  13.863  19.133  0.00  0.00    +0.000 C 
ATOM     16  O   UNL     1       3.705  13.787  18.068  0.00  0.00    +0.000 OA
ATOM     17  C   UNL     1      -0.053  12.489  20.524  0.00  0.00    +0.000 C 
ENDROOT
BRANCH  17  18
ATOM     18  N   UNL     1      -0.159  11.592  21.657  0.00  0.00    +0.000 N 
ATOM     19  N   UNL     1       0.860  10.748  21.935  0.00  0.00    +0.000 NA
ATOM     20  N   UNL     1       0.484   9.972  22.937  0.00  0.00    +0.000 NA
ATOM     21  C   UNL     1      -0.778  10.337  23.298  0.00  0.00    +0.000 A 
ATOM     22  C   UNL     1      -1.223  11.395  22.521  0.00  0.00    +0.000 A 
BRANCH  22  23
ATOM     23  C   UNL     1      -2.513  12.091  22.511  0.00  0.00    +0.000 A 
ATOM     24  C   UNL     1      -3.095  12.561  21.326  0.00  0.00    +0.000 A 
ATOM     25  C   UNL     1      -4.385  13.092  21.312  0.00  0.00    +0.000 A 
ATOM     26  C   UNL     1      -5.075  13.263  22.505  0.00  0.00    +0.000 A 
ATOM     27  C   UNL     1      -4.471  12.904  23.708  0.00  0.00    +0.000 A 
ATOM     28  C   UNL     1      -3.206  12.307  23.710  0.00  0.00    +0.000 A 
ENDBRANCH  22  23
ENDBRANCH  17  18
TORSDOF 2
ENDMDL
