MODEL 1
REMARK VINA RESULT:      -8.5      0.000      0.000
REMARK  Name = 
REMARK  14 active torsions:
REMARK  status: ('A' for Active; 'I' for Inactive)
REMARK    1  A    between atoms: C_1  and  C_2
REMARK    2  A    between atoms: C_2  and  C_3
REMARK    3  A    between atoms: C_2  and  O_4
REMARK    4  A    between atoms: C_2  and  C_5
REMARK    5  A    between atoms: C_5  and  O_6
REMARK    6  A    between atoms: O_6  and  C_7
REMARK    7  A    between atoms: C_10  and  C_11
REMARK    8  A    between atoms: C_16  and  C_17
REMARK    9  A    between atoms: C_21  and  C_22
REMARK   10  A    between atoms: C_22  and  C_23
REMARK   11  A    between atoms: C_22  and  C_24
REMARK   12  A    between atoms: C_22  and  C_25
REMARK   13  A    between atoms: N_27  and  C_28
REMARK   14  A    between atoms: C_28  and  C_29
REMARK                            x       y       z     vdW  Elec       q    Type
REMARK                         _______ _______ _______ _____ _____    ______ ____
ROOT
ATOM      1  C   UNL     1       1.273   9.222  18.496  0.00  0.00    +0.000 A 
ATOM      2  N   UNL     1       2.150   9.539  17.503  0.00  0.00    +0.000 NA
ATOM      3  C   UNL     1       3.182   8.706  17.228  0.00  0.00    +0.000 A 
ATOM      4  C   UNL     1       3.319   7.533  17.953  0.00  0.00    +0.000 A 
ATOM      5  C   UNL     1       4.169   6.388  17.991  0.00  0.00    +0.000 A 
ATOM      6  N   UNL     1       3.792   5.547  18.970  0.00  0.00    +0.000 NA
ATOM      7  N   UNL     1       2.737   6.154  19.553  0.00  0.00    +0.000 N 
ATOM      8  C   UNL     1       2.394   7.338  18.963  0.00  0.00    +0.000 A 
ATOM      9  N   UNL     1       1.355   8.134  19.282  0.00  0.00    +0.000 NA
ENDROOT
BRANCH   1  15
ATOM     10  C   UNL     1      -0.326  10.910  19.611  0.00  0.00    +0.000 A 
ATOM     11  C   UNL     1      -1.555  11.600  19.547  0.00  0.00    +0.000 A 
ATOM     12  C   UNL     1      -2.432  11.446  18.475  0.00  0.00    +0.000 A 
ATOM     13  C   UNL     1      -2.106  10.604  17.419  0.00  0.00    +0.000 A 
ATOM     14  C   UNL     1      -0.876   9.929  17.466  0.00  0.00    +0.000 A 
ATOM     15  C   UNL     1       0.039  10.048  18.550  0.00  0.00    +0.000 A 
BRANCH  13  16
ATOM     16  C   UNL     1      -3.047  10.405  16.261  0.00  0.00    +0.000 C 
ATOM     17  F   UNL     1      -3.013   9.142  15.747  0.00  0.00    +0.000 F 
ATOM     18  F   UNL     1      -4.345  10.636  16.594  0.00  0.00    +0.000 F 
ATOM     19  F   UNL     1      -2.772  11.236  15.218  0.00  0.00    +0.000 F 
ENDBRANCH  13  16
BRANCH  10  20
ATOM     20  O   UNL     1       0.543  11.068  20.673  0.00  0.00    +0.000 OA
BRANCH  20  21
ATOM     21  C   UNL     1      -0.028  10.902  21.979  0.00  0.00    +0.000 C 
BRANCH  21  23
ATOM     22  C   UNL     1       1.752   9.156  22.409  0.00  0.00    +0.000 C 
ATOM     23  C   UNL     1       0.289   9.540  22.621  0.00  0.00    +0.000 C 
ATOM     24  C   UNL     1      -0.638   8.448  22.095  0.00  0.00    +0.000 C 
BRANCH  23  25
ATOM     25  O   UNL     1       0.063   9.674  24.035  0.00  0.00    +0.000 OA
ATOM     26  H   UNL     1       0.403  10.543  24.310  0.00  0.00    +0.000 HD
ENDBRANCH  23  25
ENDBRANCH  21  23
ENDBRANCH  20  21
ENDBRANCH  10  20
ENDBRANCH   1  15
BRANCH   5  27
ATOM     27  C   UNL     1       5.376   6.061  17.116  0.00  0.00    +0.000 C 
ATOM     28  C   UNL     1       6.604   6.859  17.597  0.00  0.00    +0.000 C 
ATOM     29  C   UNL     1       5.738   4.557  17.175  0.00  0.00    +0.000 C 
ATOM     30  C   UNL     1       5.102   6.406  15.637  0.00  0.00    +0.000 C 
ENDBRANCH   5  27
BRANCH   7  31
ATOM     31  C   UNL     1       2.136   5.565  20.730  0.00  0.00    +0.000 C 
BRANCH  31  32
ATOM     32  C   UNL     1       1.115   4.464  20.447  0.00  0.00    +0.000 C 
ATOM     33  C   UNL     1       1.244   3.803  19.081  0.00  0.00    +0.000 C 
ATOM     34  C   UNL     1       2.115   2.605  19.362  0.00  0.00    +0.000 C 
ATOM     35  C   UNL     1       1.658   2.204  20.744  0.00  0.00    +0.000 C 
ATOM     36  O   UNL     1       1.315   3.416  21.426  0.00  0.00    +0.000 OA
ENDBRANCH  31  32
ENDBRANCH   7  31
TORSDOF 9
ENDMDL
MODEL 2
REMARK VINA RESULT:      -8.1      0.618      1.242
REMARK  Name = 
REMARK  14 active torsions:
REMARK  status: ('A' for Active; 'I' for Inactive)
REMARK    1  A    between atoms: C_1  and  C_2
REMARK    2  A    between atoms: C_2  and  C_3
REMARK    3  A    between atoms: C_2  and  O_4
REMARK    4  A    between atoms: C_2  and  C_5
REMARK    5  A    between atoms: C_5  and  O_6
REMARK    6  A    between atoms: O_6  and  C_7
REMARK    7  A    between atoms: C_10  and  C_11
REMARK    8  A    between atoms: C_16  and  C_17
REMARK    9  A    between atoms: C_21  and  C_22
REMARK   10  A    between atoms: C_22  and  C_23
REMARK   11  A    between atoms: C_22  and  C_24
REMARK   12  A    between atoms: C_22  and  C_25
REMARK   13  A    between atoms: N_27  and  C_28
REMARK   14  A    between atoms: C_28  and  C_29
REMARK                            x       y       z     vdW  Elec       q    Type
REMARK                         _______ _______ _______ _____ _____    ______ ____
ROOT
ATOM      1  C   UNL     1       1.422   9.142  18.496  0.00  0.00    +0.000 A 
ATOM      2  N   UNL     1       2.340   9.503  17.556  0.00  0.00    +0.000 NA
ATOM      3  C   UNL     1       3.384   8.682  17.288  0.00  0.00    +0.000 A 
ATOM      4  C   UNL     1       3.492   7.478  17.965  0.00  0.00    +0.000 A 
ATOM      5  C   UNL     1       4.342   6.332  17.987  0.00  0.00    +0.000 A 
ATOM      6  N   UNL     1       3.926   5.448  18.910  0.00  0.00    +0.000 NA
ATOM      7  N   UNL     1       2.846   6.029  19.475  0.00  0.00    +0.000 N 
ATOM      8  C   UNL     1       2.526   7.238  18.924  0.00  0.00    +0.000 A 
ATOM      9  N   UNL     1       1.473   8.019  19.235  0.00  0.00    +0.000 NA
ENDROOT
BRANCH   1  15
ATOM     10  C   UNL     1      -0.187  10.836  19.585  0.00  0.00    +0.000 A 
ATOM     11  C   UNL     1      -1.418  11.521  19.508  0.00  0.00    +0.000 A 
ATOM     12  C   UNL     1      -2.289  11.354  18.432  0.00  0.00    +0.000 A 
ATOM     13  C   UNL     1      -1.955  10.502  17.387  0.00  0.00    +0.000 A 
ATOM     14  C   UNL     1      -0.723   9.831  17.448  0.00  0.00    +0.000 A 
ATOM     15  C   UNL     1       0.186   9.964  18.535  0.00  0.00    +0.000 A 
BRANCH  13  16
ATOM     16  C   UNL     1      -2.889  10.288  16.226  0.00  0.00    +0.000 C 
ATOM     17  F   UNL     1      -4.206  10.318  16.579  0.00  0.00    +0.000 F 
ATOM     18  F   UNL     1      -2.743  11.228  15.254  0.00  0.00    +0.000 F 
ATOM     19  F   UNL     1      -2.697   9.085  15.618  0.00  0.00    +0.000 F 
ENDBRANCH  13  16
BRANCH  10  20
ATOM     20  O   UNL     1       0.676  11.008  20.650  0.00  0.00    +0.000 OA
BRANCH  20  21
ATOM     21  C   UNL     1       0.091  10.886  21.955  0.00  0.00    +0.000 C 
BRANCH  21  23
ATOM     22  C   UNL     1       1.773   9.061  22.446  0.00  0.00    +0.000 C 
ATOM     23  C   UNL     1       0.323   9.512  22.608  0.00  0.00    +0.000 C 
ATOM     24  C   UNL     1      -0.634   8.463  22.050  0.00  0.00    +0.000 C 
BRANCH  23  25
ATOM     25  O   UNL     1       0.055   9.659  24.013  0.00  0.00    +0.000 OA
ATOM     26  H   UNL     1       0.346   8.846  24.459  0.00  0.00    +0.000 HD
ENDBRANCH  23  25
ENDBRANCH  21  23
ENDBRANCH  20  21
ENDBRANCH  10  20
ENDBRANCH   1  15
BRANCH   5  27
ATOM     27  C   UNL     1       5.586   6.044  17.149  0.00  0.00    +0.000 C 
ATOM     28  C   UNL     1       5.226   6.073  15.651  0.00  0.00    +0.000 C 
ATOM     29  C   UNL     1       6.696   7.096  17.389  0.00  0.00    +0.000 C 
ATOM     30  C   UNL     1       6.183   4.665  17.495  0.00  0.00    +0.000 C 
ENDBRANCH   5  27
BRANCH   7  31
ATOM     31  C   UNL     1       2.197   5.387  20.597  0.00  0.00    +0.000 C 
BRANCH  31  32
ATOM     32  C   UNL     1       2.384   3.872  20.668  0.00  0.00    +0.000 C 
ATOM     33  C   UNL     1       1.125   3.083  21.001  0.00  0.00    +0.000 C 
ATOM     34  C   UNL     1       0.578   2.721  19.644  0.00  0.00    +0.000 C 
ATOM     35  C   UNL     1       1.841   2.499  18.847  0.00  0.00    +0.000 C 
ATOM     36  O   UNL     1       2.812   3.421  19.359  0.00  0.00    +0.000 OA
ENDBRANCH  31  32
ENDBRANCH   7  31
TORSDOF 9
ENDMDL
MODEL 3
REMARK VINA RESULT:      -8.1      0.446      1.178
REMARK  Name = 
REMARK  14 active torsions:
REMARK  status: ('A' for Active; 'I' for Inactive)
REMARK    1  A    between atoms: C_1  and  C_2
REMARK    2  A    between atoms: C_2  and  C_3
REMARK    3  A    between atoms: C_2  and  O_4
REMARK    4  A    between atoms: C_2  and  C_5
REMARK    5  A    between atoms: C_5  and  O_6
REMARK    6  A    between atoms: O_6  and  C_7
REMARK    7  A    between atoms: C_10  and  C_11
REMARK    8  A    between atoms: C_16  and  C_17
REMARK    9  A    between atoms: C_21  and  C_22
REMARK   10  A    between atoms: C_22  and  C_23
REMARK   11  A    between atoms: C_22  and  C_24
REMARK   12  A    between atoms: C_22  and  C_25
REMARK   13  A    between atoms: N_27  and  C_28
REMARK   14  A    between atoms: C_28  and  C_29
REMARK                            x       y       z     vdW  Elec       q    Type
REMARK                         _______ _______ _______ _____ _____    ______ ____
ROOT
ATOM      1  C   UNL     1       1.308   9.251  18.449  0.00  0.00    +0.000 A 
ATOM      2  N   UNL     1       2.241   9.660  17.545  0.00  0.00    +0.000 NA
ATOM      3  C   UNL     1       3.289   8.853  17.252  0.00  0.00    +0.000 A 
ATOM      4  C   UNL     1       3.385   7.615  17.867  0.00  0.00    +0.000 A 
ATOM      5  C   UNL     1       4.234   6.469  17.844  0.00  0.00    +0.000 A 
ATOM      6  N   UNL     1       3.802   5.538  18.713  0.00  0.00    +0.000 NA
ATOM      7  N   UNL     1       2.713   6.090  19.289  0.00  0.00    +0.000 N 
ATOM      8  C   UNL     1       2.403   7.327  18.797  0.00  0.00    +0.000 A 
ATOM      9  N   UNL     1       1.346   8.091  19.130  0.00  0.00    +0.000 NA
ENDROOT
BRANCH   1  15
ATOM     10  C   UNL     1      -0.289  10.936  19.572  0.00  0.00    +0.000 A 
ATOM     11  C   UNL     1      -1.521  11.621  19.515  0.00  0.00    +0.000 A 
ATOM     12  C   UNL     1      -2.406  11.460  18.450  0.00  0.00    +0.000 A 
ATOM     13  C   UNL     1      -2.085  10.617  17.394  0.00  0.00    +0.000 A 
ATOM     14  C   UNL     1      -0.852   9.947  17.434  0.00  0.00    +0.000 A 
ATOM     15  C   UNL     1       0.071  10.072  18.510  0.00  0.00    +0.000 A 
BRANCH  13  16
ATOM     16  C   UNL     1      -3.034  10.410  16.244  0.00  0.00    +0.000 C 
ATOM     17  F   UNL     1      -2.920  11.358  15.271  0.00  0.00    +0.000 F 
ATOM     18  F   UNL     1      -2.852   9.214  15.622  0.00  0.00    +0.000 F 
ATOM     19  F   UNL     1      -4.338  10.437  16.635  0.00  0.00    +0.000 F 
ENDBRANCH  13  16
BRANCH  10  20
ATOM     20  O   UNL     1       0.588  11.101  20.626  0.00  0.00    +0.000 OA
BRANCH  20  21
ATOM     21  C   UNL     1       0.027  10.940  21.937  0.00  0.00    +0.000 C 
BRANCH  21  23
ATOM     22  C   UNL     1       1.745   9.131  22.351  0.00  0.00    +0.000 C 
ATOM     23  C   UNL     1       0.293   9.557  22.556  0.00  0.00    +0.000 C 
ATOM     24  C   UNL     1      -0.662   8.505  21.999  0.00  0.00    +0.000 C 
BRANCH  23  25
ATOM     25  O   UNL     1       0.056   9.671  23.970  0.00  0.00    +0.000 OA
ATOM     26  H   UNL     1      -0.081  10.612  24.174  0.00  0.00    +0.000 HD
ENDBRANCH  23  25
ENDBRANCH  21  23
ENDBRANCH  20  21
ENDBRANCH  10  20
ENDBRANCH   1  15
BRANCH   5  27
ATOM     27  C   UNL     1       5.492   6.223  17.014  0.00  0.00    +0.000 C 
ATOM     28  C   UNL     1       5.167   6.374  15.514  0.00  0.00    +0.000 C 
ATOM     29  C   UNL     1       6.614   7.232  17.358  0.00  0.00    +0.000 C 
ATOM     30  C   UNL     1       6.057   4.810  17.264  0.00  0.00    +0.000 C 
ENDBRANCH   5  27
BRANCH   7  31
ATOM     31  C   UNL     1       2.045   5.392  20.366  0.00  0.00    +0.000 C 
BRANCH  31  32
ATOM     32  C   UNL     1       1.717   3.928  20.076  0.00  0.00    +0.000 C 
ATOM     33  C   UNL     1       2.918   2.991  20.055  0.00  0.00    +0.000 C 
ATOM     34  C   UNL     1       2.964   2.463  21.466  0.00  0.00    +0.000 C 
ATOM     35  C   UNL     1       1.498   2.370  21.814  0.00  0.00    +0.000 C 
ATOM     36  O   UNL     1       0.850   3.454  21.136  0.00  0.00    +0.000 OA
ENDBRANCH  31  32
ENDBRANCH   7  31
TORSDOF 9
ENDMDL
MODEL 4
REMARK VINA RESULT:      -7.9      0.827      1.236
REMARK  Name = 
REMARK  14 active torsions:
REMARK  status: ('A' for Active; 'I' for Inactive)
REMARK    1  A    between atoms: C_1  and  C_2
REMARK    2  A    between atoms: C_2  and  C_3
REMARK    3  A    between atoms: C_2  and  O_4
REMARK    4  A    between atoms: C_2  and  C_5
REMARK    5  A    between atoms: C_5  and  O_6
REMARK    6  A    between atoms: O_6  and  C_7
REMARK    7  A    between atoms: C_10  and  C_11
REMARK    8  A    between atoms: C_16  and  C_17
REMARK    9  A    between atoms: C_21  and  C_22
REMARK   10  A    between atoms: C_22  and  C_23
REMARK   11  A    between atoms: C_22  and  C_24
REMARK   12  A    between atoms: C_22  and  C_25
REMARK   13  A    between atoms: N_27  and  C_28
REMARK   14  A    between atoms: C_28  and  C_29
REMARK                            x       y       z     vdW  Elec       q    Type
REMARK                         _______ _______ _______ _____ _____    ______ ____
ROOT
ATOM      1  C   UNL     1       1.491   9.102  18.456  0.00  0.00    +0.000 A 
ATOM      2  N   UNL     1       2.402   9.454  17.506  0.00  0.00    +0.000 NA
ATOM      3  C   UNL     1       3.436   8.624  17.228  0.00  0.00    +0.000 A 
ATOM      4  C   UNL     1       3.540   7.419  17.904  0.00  0.00    +0.000 A 
ATOM      5  C   UNL     1       4.380   6.265  17.919  0.00  0.00    +0.000 A 
ATOM      6  N   UNL     1       3.965   5.385  18.846  0.00  0.00    +0.000 NA
ATOM      7  N   UNL     1       2.896   5.976  19.422  0.00  0.00    +0.000 N 
ATOM      8  C   UNL     1       2.581   7.188  18.874  0.00  0.00    +0.000 A 
ATOM      9  N   UNL     1       1.539   7.979  19.196  0.00  0.00    +0.000 NA
ENDROOT
BRANCH   1  15
ATOM     10  C   UNL     1      -0.088  10.816  19.558  0.00  0.00    +0.000 A 
ATOM     11  C   UNL     1      -1.314  11.512  19.493  0.00  0.00    +0.000 A 
ATOM     12  C   UNL     1      -2.201  11.347  18.431  0.00  0.00    +0.000 A 
ATOM     13  C   UNL     1      -1.888  10.487  17.385  0.00  0.00    +0.000 A 
ATOM     14  C   UNL     1      -0.662   9.805  17.433  0.00  0.00    +0.000 A 
ATOM     15  C   UNL     1       0.263   9.935  18.507  0.00  0.00    +0.000 A 
BRANCH  13  16
ATOM     16  C   UNL     1      -2.840  10.275  16.238  0.00  0.00    +0.000 C 
ATOM     17  F   UNL     1      -4.152  10.316  16.609  0.00  0.00    +0.000 F 
ATOM     18  F   UNL     1      -2.700  11.210  15.260  0.00  0.00    +0.000 F 
ATOM     19  F   UNL     1      -2.665   9.068  15.633  0.00  0.00    +0.000 F 
ENDBRANCH  13  16
BRANCH  10  20
ATOM     20  O   UNL     1       0.791  10.986  20.610  0.00  0.00    +0.000 OA
BRANCH  20  21
ATOM     21  C   UNL     1       0.242  10.792  21.921  0.00  0.00    +0.000 C 
BRANCH  21  23
ATOM     22  C   UNL     1      -0.620   8.416  21.818  0.00  0.00    +0.000 C 
ATOM     23  C   UNL     1       0.403   9.356  22.451  0.00  0.00    +0.000 C 
ATOM     24  C   UNL     1       0.309   9.311  23.973  0.00  0.00    +0.000 C 
BRANCH  23  25
ATOM     25  O   UNL     1       1.716   8.908  22.071  0.00  0.00    +0.000 OA
ATOM     26  H   UNL     1       1.702   8.718  21.118  0.00  0.00    +0.000 HD
ENDBRANCH  23  25
ENDBRANCH  21  23
ENDBRANCH  20  21
ENDBRANCH  10  20
ENDBRANCH   1  15
BRANCH   5  27
ATOM     27  C   UNL     1       5.612   5.966  17.068  0.00  0.00    +0.000 C 
ATOM     28  C   UNL     1       6.699   7.026  17.329  0.00  0.00    +0.000 C 
ATOM     29  C   UNL     1       6.215   4.579  17.400  0.00  0.00    +0.000 C 
ATOM     30  C   UNL     1       5.264   5.964  15.565  0.00  0.00    +0.000 C 
ENDBRANCH   5  27
BRANCH   7  31
ATOM     31  C   UNL     1       2.253   5.341  20.552  0.00  0.00    +0.000 C 
BRANCH  31  32
ATOM     32  C   UNL     1       2.444   3.827  20.633  0.00  0.00    +0.000 C 
ATOM     33  C   UNL     1       1.209   3.045  21.059  0.00  0.00    +0.000 C 
ATOM     34  C   UNL     1       0.575   2.664  19.746  0.00  0.00    +0.000 C 
ATOM     35  C   UNL     1       1.783   2.429  18.872  0.00  0.00    +0.000 C 
ATOM     36  O   UNL     1       2.785   3.357  19.306  0.00  0.00    +0.000 OA
ENDBRANCH  31  32
ENDBRANCH   7  31
TORSDOF 9
ENDMDL
MODEL 5
REMARK VINA RESULT:      -7.8      1.670      2.330
REMARK  Name = 
REMARK  14 active torsions:
REMARK  status: ('A' for Active; 'I' for Inactive)
REMARK    1  A    between atoms: C_1  and  C_2
REMARK    2  A    between atoms: C_2  and  C_3
REMARK    3  A    between atoms: C_2  and  O_4
REMARK    4  A    between atoms: C_2  and  C_5
REMARK    5  A    between atoms: C_5  and  O_6
REMARK    6  A    between atoms: O_6  and  C_7
REMARK    7  A    between atoms: C_10  and  C_11
REMARK    8  A    between atoms: C_16  and  C_17
REMARK    9  A    between atoms: C_21  and  C_22
REMARK   10  A    between atoms: C_22  and  C_23
REMARK   11  A    between atoms: C_22  and  C_24
REMARK   12  A    between atoms: C_22  and  C_25
REMARK   13  A    between atoms: N_27  and  C_28
REMARK   14  A    between atoms: C_28  and  C_29
REMARK                            x       y       z     vdW  Elec       q    Type
REMARK                         _______ _______ _______ _____ _____    ______ ____
ROOT
ATOM      1  C   UNL     1       1.511   9.252  18.550  0.00  0.00    +0.000 A 
ATOM      2  N   UNL     1       2.406   9.549  17.568  0.00  0.00    +0.000 NA
ATOM      3  C   UNL     1       3.398   8.674  17.278  0.00  0.00    +0.000 A 
ATOM      4  C   UNL     1       3.476   7.480  17.977  0.00  0.00    +0.000 A 
ATOM      5  C   UNL     1       4.271   6.295  17.992  0.00  0.00    +0.000 A 
ATOM      6  N   UNL     1       3.850   5.451  18.950  0.00  0.00    +0.000 NA
ATOM      7  N   UNL     1       2.822   6.095  19.544  0.00  0.00    +0.000 N 
ATOM      8  C   UNL     1       2.538   7.307  18.979  0.00  0.00    +0.000 A 
ATOM      9  N   UNL     1       1.537   8.143  19.312  0.00  0.00    +0.000 NA
ENDROOT
BRANCH   1  15
ATOM     10  C   UNL     1       0.228  11.340  19.353  0.00  0.00    +0.000 A 
ATOM     11  C   UNL     1      -0.989  12.054  19.363  0.00  0.00    +0.000 A 
ATOM     12  C   UNL     1      -2.117  11.597  18.683  0.00  0.00    +0.000 A 
ATOM     13  C   UNL     1      -2.065  10.415  17.955  0.00  0.00    +0.000 A 
ATOM     14  C   UNL     1      -0.851   9.709  17.925  0.00  0.00    +0.000 A 
ATOM     15  C   UNL     1       0.317  10.134  18.618  0.00  0.00    +0.000 A 
BRANCH  13  16
ATOM     16  C   UNL     1      -3.276   9.891  17.231  0.00  0.00    +0.000 C 
ATOM     17  F   UNL     1      -3.895   8.866  17.883  0.00  0.00    +0.000 F 
ATOM     18  F   UNL     1      -4.229  10.843  17.044  0.00  0.00    +0.000 F 
ATOM     19  F   UNL     1      -2.974   9.412  15.992  0.00  0.00    +0.000 F 
ENDBRANCH  13  16
BRANCH  10  20
ATOM     20  O   UNL     1       1.346  11.797  20.025  0.00  0.00    +0.000 OA
BRANCH  20  21
ATOM     21  C   UNL     1       2.061  12.868  19.391  0.00  0.00    +0.000 C 
BRANCH  21  23
ATOM     22  C   UNL     1       1.127  15.176  19.840  0.00  0.00    +0.000 C 
ATOM     23  C   UNL     1       2.165  14.136  20.257  0.00  0.00    +0.000 C 
ATOM     24  C   UNL     1       3.571  14.728  20.210  0.00  0.00    +0.000 C 
BRANCH  23  25
ATOM     25  O   UNL     1       1.889  13.748  21.614  0.00  0.00    +0.000 OA
ATOM     26  H   UNL     1       1.687  14.554  22.120  0.00  0.00    +0.000 HD
ENDBRANCH  23  25
ENDBRANCH  21  23
ENDBRANCH  20  21
ENDBRANCH  10  20
ENDBRANCH   1  15
BRANCH   5  27
ATOM     27  C   UNL     1       5.465   5.930  17.114  0.00  0.00    +0.000 C 
ATOM     28  C   UNL     1       6.641   6.883  17.407  0.00  0.00    +0.000 C 
ATOM     29  C   UNL     1       5.952   4.484  17.378  0.00  0.00    +0.000 C 
ATOM     30  C   UNL     1       5.105   6.024  15.617  0.00  0.00    +0.000 C 
ENDBRANCH   5  27
BRANCH   7  31
ATOM     31  C   UNL     1       2.188   5.509  20.705  0.00  0.00    +0.000 C 
BRANCH  31  32
ATOM     32  C   UNL     1       1.137   4.444  20.394  0.00  0.00    +0.000 C 
ATOM     33  C   UNL     1       1.245   3.819  19.009  0.00  0.00    +0.000 C 
ATOM     34  C   UNL     1       2.084   2.591  19.252  0.00  0.00    +0.000 C 
ATOM     35  C   UNL     1       1.621   2.162  20.624  0.00  0.00    +0.000 C 
ATOM     36  O   UNL     1       1.313   3.363  21.342  0.00  0.00    +0.000 OA
ENDBRANCH  31  32
ENDBRANCH   7  31
TORSDOF 9
ENDMDL
MODEL 6
REMARK VINA RESULT:      -7.8      1.662      2.465
REMARK  Name = 
REMARK  14 active torsions:
REMARK  status: ('A' for Active; 'I' for Inactive)
REMARK    1  A    between atoms: C_1  and  C_2
REMARK    2  A    between atoms: C_2  and  C_3
REMARK    3  A    between atoms: C_2  and  O_4
REMARK    4  A    between atoms: C_2  and  C_5
REMARK    5  A    between atoms: C_5  and  O_6
REMARK    6  A    between atoms: O_6  and  C_7
REMARK    7  A    between atoms: C_10  and  C_11
REMARK    8  A    between atoms: C_16  and  C_17
REMARK    9  A    between atoms: C_21  and  C_22
REMARK   10  A    between atoms: C_22  and  C_23
REMARK   11  A    between atoms: C_22  and  C_24
REMARK   12  A    between atoms: C_22  and  C_25
REMARK   13  A    between atoms: N_27  and  C_28
REMARK   14  A    between atoms: C_28  and  C_29
REMARK                            x       y       z     vdW  Elec       q    Type
REMARK                         _______ _______ _______ _____ _____    ______ ____
ROOT
ATOM      1  C   UNL     1       1.481   9.225  18.598  0.00  0.00    +0.000 A 
ATOM      2  N   UNL     1       2.353   9.523  17.596  0.00  0.00    +0.000 NA
ATOM      3  C   UNL     1       3.342   8.650  17.286  0.00  0.00    +0.000 A 
ATOM      4  C   UNL     1       3.439   7.458  17.985  0.00  0.00    +0.000 A 
ATOM      5  C   UNL     1       4.238   6.276  17.985  0.00  0.00    +0.000 A 
ATOM      6  N   UNL     1       3.841   5.433  18.954  0.00  0.00    +0.000 NA
ATOM      7  N   UNL     1       2.824   6.074  19.569  0.00  0.00    +0.000 N 
ATOM      8  C   UNL     1       2.524   7.284  19.008  0.00  0.00    +0.000 A 
ATOM      9  N   UNL     1       1.528   8.118  19.362  0.00  0.00    +0.000 NA
ENDROOT
BRANCH   1  15
ATOM     10  C   UNL     1       0.196  11.289  19.458  0.00  0.00    +0.000 A 
ATOM     11  C   UNL     1      -1.022  12.000  19.488  0.00  0.00    +0.000 A 
ATOM     12  C   UNL     1      -2.150  11.561  18.797  0.00  0.00    +0.000 A 
ATOM     13  C   UNL     1      -2.097  10.398  18.038  0.00  0.00    +0.000 A 
ATOM     14  C   UNL     1      -0.883   9.695  17.988  0.00  0.00    +0.000 A 
ATOM     15  C   UNL     1       0.286  10.103  18.691  0.00  0.00    +0.000 A 
BRANCH  13  16
ATOM     16  C   UNL     1      -3.308   9.892  17.301  0.00  0.00    +0.000 C 
ATOM     17  F   UNL     1      -4.287  10.831  17.159  0.00  0.00    +0.000 F 
ATOM     18  F   UNL     1      -3.017   9.465  16.043  0.00  0.00    +0.000 F 
ATOM     19  F   UNL     1      -3.896   8.837  17.930  0.00  0.00    +0.000 F 
ENDBRANCH  13  16
BRANCH  10  20
ATOM     20  O   UNL     1       1.314  11.730  20.140  0.00  0.00    +0.000 OA
BRANCH  20  21
ATOM     21  C   UNL     1       1.301  13.109  20.537  0.00  0.00    +0.000 C 
BRANCH  21  23
ATOM     22  C   UNL     1       3.289  14.672  20.540  0.00  0.00    +0.000 C 
ATOM     23  C   UNL     1       2.215  14.005  19.684  0.00  0.00    +0.000 C 
ATOM     24  C   UNL     1       1.410  15.050  18.916  0.00  0.00    +0.000 C 
BRANCH  23  25
ATOM     25  O   UNL     1       2.870  13.155  18.727  0.00  0.00    +0.000 OA
ATOM     26  H   UNL     1       3.256  12.404  19.210  0.00  0.00    +0.000 HD
ENDBRANCH  23  25
ENDBRANCH  21  23
ENDBRANCH  20  21
ENDBRANCH  10  20
ENDBRANCH   1  15
BRANCH   5  27
ATOM     27  C   UNL     1       5.414   5.913  17.082  0.00  0.00    +0.000 C 
ATOM     28  C   UNL     1       6.664   6.711  17.503  0.00  0.00    +0.000 C 
ATOM     29  C   UNL     1       5.762   4.408  17.169  0.00  0.00    +0.000 C 
ATOM     30  C   UNL     1       5.097   6.222  15.604  0.00  0.00    +0.000 C 
ENDBRANCH   5  27
BRANCH   7  31
ATOM     31  C   UNL     1       2.218   5.489  20.745  0.00  0.00    +0.000 C 
BRANCH  31  32
ATOM     32  C   UNL     1       1.159   4.425  20.459  0.00  0.00    +0.000 C 
ATOM     33  C   UNL     1       1.232   3.800  19.072  0.00  0.00    +0.000 C 
ATOM     34  C   UNL     1       2.076   2.571  19.295  0.00  0.00    +0.000 C 
ATOM     35  C   UNL     1       1.646   2.143  20.677  0.00  0.00    +0.000 C 
ATOM     36  O   UNL     1       1.356   3.344  21.403  0.00  0.00    +0.000 OA
ENDBRANCH  31  32
ENDBRANCH   7  31
TORSDOF 9
ENDMDL
MODEL 7
REMARK VINA RESULT:      -7.8      1.511      2.244
REMARK  Name = 
REMARK  14 active torsions:
REMARK  status: ('A' for Active; 'I' for Inactive)
REMARK    1  A    between atoms: C_1  and  C_2
REMARK    2  A    between atoms: C_2  and  C_3
REMARK    3  A    between atoms: C_2  and  O_4
REMARK    4  A    between atoms: C_2  and  C_5
REMARK    5  A    between atoms: C_5  and  O_6
REMARK    6  A    between atoms: O_6  and  C_7
REMARK    7  A    between atoms: C_10  and  C_11
REMARK    8  A    between atoms: C_16  and  C_17
REMARK    9  A    between atoms: C_21  and  C_22
REMARK   10  A    between atoms: C_22  and  C_23
REMARK   11  A    between atoms: C_22  and  C_24
REMARK   12  A    between atoms: C_22  and  C_25
REMARK   13  A    between atoms: N_27  and  C_28
REMARK   14  A    between atoms: C_28  and  C_29
REMARK                            x       y       z     vdW  Elec       q    Type
REMARK                         _______ _______ _______ _____ _____    ______ ____
ROOT
ATOM      1  C   UNL     1       1.474   9.212  18.535  0.00  0.00    +0.000 A 
ATOM      2  N   UNL     1       2.352   9.494  17.532  0.00  0.00    +0.000 NA
ATOM      3  C   UNL     1       3.352   8.624  17.252  0.00  0.00    +0.000 A 
ATOM      4  C   UNL     1       3.455   7.450  17.981  0.00  0.00    +0.000 A 
ATOM      5  C   UNL     1       4.266   6.277  18.017  0.00  0.00    +0.000 A 
ATOM      6  N   UNL     1       3.869   5.453  19.002  0.00  0.00    +0.000 NA
ATOM      7  N   UNL     1       2.841   6.099  19.593  0.00  0.00    +0.000 N 
ATOM      8  C   UNL     1       2.533   7.292  19.000  0.00  0.00    +0.000 A 
ATOM      9  N   UNL     1       1.526   8.124  19.325  0.00  0.00    +0.000 NA
ENDROOT
BRANCH   1  15
ATOM     10  C   UNL     1       0.139  11.248  19.384  0.00  0.00    +0.000 A 
ATOM     11  C   UNL     1      -1.084  11.950  19.379  0.00  0.00    +0.000 A 
ATOM     12  C   UNL     1      -2.179  11.519  18.631  0.00  0.00    +0.000 A 
ATOM     13  C   UNL     1      -2.085  10.374  17.849  0.00  0.00    +0.000 A 
ATOM     14  C   UNL     1      -0.865   9.680  17.835  0.00  0.00    +0.000 A 
ATOM     15  C   UNL     1       0.270  10.080  18.596  0.00  0.00    +0.000 A 
BRANCH  13  16
ATOM     16  C   UNL     1      -3.260   9.876  17.051  0.00  0.00    +0.000 C 
ATOM     17  F   UNL     1      -2.906   9.313  15.860  0.00  0.00    +0.000 F 
ATOM     18  F   UNL     1      -3.980   8.929  17.711  0.00  0.00    +0.000 F 
ATOM     19  F   UNL     1      -4.138  10.870  16.744  0.00  0.00    +0.000 F 
ENDBRANCH  13  16
BRANCH  10  20
ATOM     20  O   UNL     1       1.224  11.680  20.123  0.00  0.00    +0.000 OA
BRANCH  20  21
ATOM     21  C   UNL     1       0.940  12.653  21.139  0.00  0.00    +0.000 C 
BRANCH  21  23
ATOM     22  C   UNL     1       0.752  14.980  20.166  0.00  0.00    +0.000 C 
ATOM     23  C   UNL     1       1.650  14.000  20.918  0.00  0.00    +0.000 C 
ATOM     24  C   UNL     1       2.978  13.816  20.189  0.00  0.00    +0.000 C 
BRANCH  23  25
ATOM     25  O   UNL     1       1.926  14.553  22.216  0.00  0.00    +0.000 OA
ATOM     26  H   UNL     1       1.132  14.437  22.765  0.00  0.00    +0.000 HD
ENDBRANCH  23  25
ENDBRANCH  21  23
ENDBRANCH  20  21
ENDBRANCH  10  20
ENDBRANCH   1  15
BRANCH   5  27
ATOM     27  C   UNL     1       5.453   5.904  17.132  0.00  0.00    +0.000 C 
ATOM     28  C   UNL     1       5.767   4.403  17.282  0.00  0.00    +0.000 C 
ATOM     29  C   UNL     1       5.163   6.178  15.636  0.00  0.00    +0.000 C 
ATOM     30  C   UNL     1       6.707   6.719  17.510  0.00  0.00    +0.000 C 
ENDBRANCH   5  27
BRANCH   7  31
ATOM     31  C   UNL     1       2.230   5.536  20.777  0.00  0.00    +0.000 C 
BRANCH  31  32
ATOM     32  C   UNL     1       1.175   4.464  20.509  0.00  0.00    +0.000 C 
ATOM     33  C   UNL     1       1.236   3.835  19.123  0.00  0.00    +0.000 C 
ATOM     34  C   UNL     1       2.091   2.612  19.339  0.00  0.00    +0.000 C 
ATOM     35  C   UNL     1       1.681   2.186  20.728  0.00  0.00    +0.000 C 
ATOM     36  O   UNL     1       1.392   3.388  21.453  0.00  0.00    +0.000 OA
ENDBRANCH  31  32
ENDBRANCH   7  31
TORSDOF 9
ENDMDL
MODEL 8
REMARK VINA RESULT:      -7.8      0.824      1.314
REMARK  Name = 
REMARK  14 active torsions:
REMARK  status: ('A' for Active; 'I' for Inactive)
REMARK    1  A    between atoms: C_1  and  C_2
REMARK    2  A    between atoms: C_2  and  C_3
REMARK    3  A    between atoms: C_2  and  O_4
REMARK    4  A    between atoms: C_2  and  C_5
REMARK    5  A    between atoms: C_5  and  O_6
REMARK    6  A    between atoms: O_6  and  C_7
REMARK    7  A    between atoms: C_10  and  C_11
REMARK    8  A    between atoms: C_16  and  C_17
REMARK    9  A    between atoms: C_21  and  C_22
REMARK   10  A    between atoms: C_22  and  C_23
REMARK   11  A    between atoms: C_22  and  C_24
REMARK   12  A    between atoms: C_22  and  C_25
REMARK   13  A    between atoms: N_27  and  C_28
REMARK   14  A    between atoms: C_28  and  C_29
REMARK                            x       y       z     vdW  Elec       q    Type
REMARK                         _______ _______ _______ _____ _____    ______ ____
ROOT
ATOM      1  C   UNL     1       1.432   9.209  18.380  0.00  0.00    +0.000 A 
ATOM      2  N   UNL     1       2.328   9.595  17.430  0.00  0.00    +0.000 NA
ATOM      3  C   UNL     1       3.376   8.790  17.129  0.00  0.00    +0.000 A 
ATOM      4  C   UNL     1       3.508   7.576  17.784  0.00  0.00    +0.000 A 
ATOM      5  C   UNL     1       4.371   6.439  17.772  0.00  0.00    +0.000 A 
ATOM      6  N   UNL     1       3.981   5.536  18.688  0.00  0.00    +0.000 NA
ATOM      7  N   UNL     1       2.905   6.096  19.282  0.00  0.00    +0.000 N 
ATOM      8  C   UNL     1       2.563   7.310  18.757  0.00  0.00    +0.000 A 
ATOM      9  N   UNL     1       1.508   8.075  19.100  0.00  0.00    +0.000 NA
ENDROOT
BRANCH   1  15
ATOM     10  C   UNL     1      -0.173  10.870  19.525  0.00  0.00    +0.000 A 
ATOM     11  C   UNL     1      -1.412  11.544  19.481  0.00  0.00    +0.000 A 
ATOM     12  C   UNL     1      -2.303  11.382  18.421  0.00  0.00    +0.000 A 
ATOM     13  C   UNL     1      -1.980  10.549  17.357  0.00  0.00    +0.000 A 
ATOM     14  C   UNL     1      -0.741   9.890  17.384  0.00  0.00    +0.000 A 
ATOM     15  C   UNL     1       0.188  10.017  18.455  0.00  0.00    +0.000 A 
BRANCH  13  16
ATOM     16  C   UNL     1      -2.935  10.341  16.212  0.00  0.00    +0.000 C 
ATOM     17  F   UNL     1      -2.711   9.185  15.523  0.00  0.00    +0.000 F 
ATOM     18  F   UNL     1      -4.233  10.289  16.614  0.00  0.00    +0.000 F 
ATOM     19  F   UNL     1      -2.866  11.340  15.290  0.00  0.00    +0.000 F 
ENDBRANCH  13  16
BRANCH  10  20
ATOM     20  O   UNL     1       0.709  11.036  20.575  0.00  0.00    +0.000 OA
BRANCH  20  21
ATOM     21  C   UNL     1       0.171  10.811  21.886  0.00  0.00    +0.000 C 
BRANCH  21  23
ATOM     22  C   UNL     1      -0.627   8.412  21.809  0.00  0.00    +0.000 C 
ATOM     23  C   UNL     1       0.393   9.379  22.405  0.00  0.00    +0.000 C 
ATOM     24  C   UNL     1       0.357   9.329  23.930  0.00  0.00    +0.000 C 
BRANCH  23  25
ATOM     25  O   UNL     1       1.702   8.969  21.975  0.00  0.00    +0.000 OA
ATOM     26  H   UNL     1       1.592   8.349  21.234  0.00  0.00    +0.000 HD
ENDBRANCH  23  25
ENDBRANCH  21  23
ENDBRANCH  20  21
ENDBRANCH  10  20
ENDBRANCH   1  15
BRANCH   5  27
ATOM     27  C   UNL     1       5.602   6.178  16.908  0.00  0.00    +0.000 C 
ATOM     28  C   UNL     1       6.094   4.733  17.120  0.00  0.00    +0.000 C 
ATOM     29  C   UNL     1       5.293   6.355  15.401  0.00  0.00    +0.000 C 
ATOM     30  C   UNL     1       6.745   7.154  17.256  0.00  0.00    +0.000 C 
ENDBRANCH   5  27
BRANCH   7  31
ATOM     31  C   UNL     1       2.284   5.429  20.406  0.00  0.00    +0.000 C 
BRANCH  31  32
ATOM     32  C   UNL     1       2.763   3.999  20.649  0.00  0.00    +0.000 C 
ATOM     33  C   UNL     1       2.133   3.305  21.850  0.00  0.00    +0.000 C 
ATOM     34  C   UNL     1       0.966   2.567  21.246  0.00  0.00    +0.000 C 
ATOM     35  C   UNL     1       1.516   2.161  19.900  0.00  0.00    +0.000 C 
ATOM     36  O   UNL     1       2.401   3.211  19.489  0.00  0.00    +0.000 OA
ENDBRANCH  31  32
ENDBRANCH   7  31
TORSDOF 9
ENDMDL
MODEL 9
REMARK VINA RESULT:      -7.8      1.771      2.655
REMARK  Name = 
REMARK  14 active torsions:
REMARK  status: ('A' for Active; 'I' for Inactive)
REMARK    1  A    between atoms: C_1  and  C_2
REMARK    2  A    between atoms: C_2  and  C_3
REMARK    3  A    between atoms: C_2  and  O_4
REMARK    4  A    between atoms: C_2  and  C_5
REMARK    5  A    between atoms: C_5  and  O_6
REMARK    6  A    between atoms: O_6  and  C_7
REMARK    7  A    between atoms: C_10  and  C_11
REMARK    8  A    between atoms: C_16  and  C_17
REMARK    9  A    between atoms: C_21  and  C_22
REMARK   10  A    between atoms: C_22  and  C_23
REMARK   11  A    between atoms: C_22  and  C_24
REMARK   12  A    between atoms: C_22  and  C_25
REMARK   13  A    between atoms: N_27  and  C_28
REMARK   14  A    between atoms: C_28  and  C_29
REMARK                            x       y       z     vdW  Elec       q    Type
REMARK                         _______ _______ _______ _____ _____    ______ ____
ROOT
ATOM      1  C   UNL     1       1.499   9.300  18.513  0.00  0.00    +0.000 A 
ATOM      2  N   UNL     1       2.414   9.592  17.547  0.00  0.00    +0.000 NA
ATOM      3  C   UNL     1       3.407   8.711  17.276  0.00  0.00    +0.000 A 
ATOM      4  C   UNL     1       3.464   7.516  17.976  0.00  0.00    +0.000 A 
ATOM      5  C   UNL     1       4.252   6.327  18.006  0.00  0.00    +0.000 A 
ATOM      6  N   UNL     1       3.809   5.485  18.956  0.00  0.00    +0.000 NA
ATOM      7  N   UNL     1       2.774   6.135  19.530  0.00  0.00    +0.000 N 
ATOM      8  C   UNL     1       2.507   7.348  18.960  0.00  0.00    +0.000 A 
ATOM      9  N   UNL     1       1.505   8.191  19.275  0.00  0.00    +0.000 NA
ENDROOT
BRANCH   1  15
ATOM     10  C   UNL     1       0.240  11.433  19.230  0.00  0.00    +0.000 A 
ATOM     11  C   UNL     1      -0.975  12.150  19.227  0.00  0.00    +0.000 A 
ATOM     12  C   UNL     1      -2.118  11.663  18.597  0.00  0.00    +0.000 A 
ATOM     13  C   UNL     1      -2.085  10.443  17.932  0.00  0.00    +0.000 A 
ATOM     14  C   UNL     1      -0.874   9.732  17.914  0.00  0.00    +0.000 A 
ATOM     15  C   UNL     1       0.310  10.189  18.559  0.00  0.00    +0.000 A 
BRANCH  13  16
ATOM     16  C   UNL     1      -3.313   9.885  17.263  0.00  0.00    +0.000 C 
ATOM     17  F   UNL     1      -3.080   9.428  16.000  0.00  0.00    +0.000 F 
ATOM     18  F   UNL     1      -3.852   8.838  17.944  0.00  0.00    +0.000 F 
ATOM     19  F   UNL     1      -4.305  10.809  17.145  0.00  0.00    +0.000 F 
ENDBRANCH  13  16
BRANCH  10  20
ATOM     20  O   UNL     1       1.373  11.921  19.852  0.00  0.00    +0.000 OA
BRANCH  20  21
ATOM     21  C   UNL     1       1.490  13.350  19.906  0.00  0.00    +0.000 C 
BRANCH  21  23
ATOM     22  C   UNL     1       3.856  14.242  19.839  0.00  0.00    +0.000 C 
ATOM     23  C   UNL     1       2.613  13.911  19.016  0.00  0.00    +0.000 C 
ATOM     24  C   UNL     1       2.143  15.132  18.231  0.00  0.00    +0.000 C 
BRANCH  23  25
ATOM     25  O   UNL     1       2.962  12.882  18.074  0.00  0.00    +0.000 OA
ATOM     26  H   UNL     1       2.282  12.871  17.378  0.00  0.00    +0.000 HD
ENDBRANCH  23  25
ENDBRANCH  21  23
ENDBRANCH  20  21
ENDBRANCH  10  20
ENDBRANCH   1  15
BRANCH   5  27
ATOM     27  C   UNL     1       5.461   5.955  17.150  0.00  0.00    +0.000 C 
ATOM     28  C   UNL     1       5.110   6.102  15.656  0.00  0.00    +0.000 C 
ATOM     29  C   UNL     1       6.675   6.870  17.442  0.00  0.00    +0.000 C 
ATOM     30  C   UNL     1       5.908   4.504  17.419  0.00  0.00    +0.000 C 
ENDBRANCH   5  27
BRANCH   7  31
ATOM     31  C   UNL     1       2.115   5.553  20.679  0.00  0.00    +0.000 C 
BRANCH  31  32
ATOM     32  C   UNL     1       1.095   4.463  20.351  0.00  0.00    +0.000 C 
ATOM     33  C   UNL     1       1.254   3.826  18.977  0.00  0.00    +0.000 C 
ATOM     34  C   UNL     1       2.111   2.618  19.257  0.00  0.00    +0.000 C 
ATOM     35  C   UNL     1       1.618   2.195  20.620  0.00  0.00    +0.000 C 
ATOM     36  O   UNL     1       1.266   3.397  21.316  0.00  0.00    +0.000 OA
ENDBRANCH  31  32
ENDBRANCH   7  31
TORSDOF 9
ENDMDL
