MODEL 1
REMARK VINA RESULT:      -7.8      0.000      0.000
REMARK  Name = 
REMARK  9 active torsions:
REMARK  status: ('A' for Active; 'I' for Inactive)
REMARK    1  A    between atoms: C_1  and  O_2
REMARK    2  A    between atoms: O_2  and  C_3
REMARK    3  A    between atoms: N_10  and  C_11
REMARK    4  A    between atoms: C_21  and  C_22
REMARK    5  A    between atoms: C_22  and  N_23
REMARK    6  A    between atoms: N_23  and  C_24
REMARK    7  A    between atoms: N_23  and  C_25
REMARK    8  A    between atoms: C_25  and  C_26
REMARK    9  A    between atoms: C_25  and  C_27
REMARK                            x       y       z     vdW  Elec       q    Type
REMARK                         _______ _______ _______ _____ _____    ______ ____
ROOT
ATOM      1  C   UNL     1       3.842   4.935  18.355  0.00  0.00    +0.000 A 
ATOM      2  C   UNL     1       3.005   5.036  19.474  0.00  0.00    +0.000 A 
ATOM      3  C   UNL     1       2.357   6.211  19.813  0.00  0.00    +0.000 A 
ATOM      4  N   UNL     1       1.557   6.192  20.882  0.00  0.00    +0.000 NA
ATOM      5  C   UNL     1       0.919   7.326  21.170  0.00  0.00    +0.000 A 
ATOM      6  N   UNL     1       1.017   8.468  20.491  0.00  0.00    +0.000 NA
ATOM      7  C   UNL     1       1.828   8.475  19.413  0.00  0.00    +0.000 A 
ATOM      8  N   UNL     1       1.901   9.666  18.642  0.00  0.00    +0.000 N 
ATOM      9  C   UNL     1       2.552   7.341  19.016  0.00  0.00    +0.000 A 
ATOM     10  C   UNL     1       3.379   7.249  17.868  0.00  0.00    +0.000 A 
ATOM     11  C   UNL     1       4.003   6.042  17.509  0.00  0.00    +0.000 A 
ATOM     12  H   UNL     1       2.854  10.021  18.637  0.00  0.00    +0.000 HD
ENDROOT
BRANCH   8  13
ATOM     13  C   UNL     1       0.940  10.703  18.728  0.00  0.00    +0.000 A 
ATOM     14  C   UNL     1       1.234  11.893  19.413  0.00  0.00    +0.000 A 
ATOM     15  C   UNL     1       0.327  12.953  19.435  0.00  0.00    +0.000 A 
ATOM     16  C   UNL     1      -0.901  12.827  18.790  0.00  0.00    +0.000 A 
ATOM     17  C   UNL     1      -1.225  11.634  18.145  0.00  0.00    +0.000 A 
ATOM     18 CL   UNL     1      -2.751  11.492  17.359  0.00  0.00    +0.000 Cl
ATOM     19  C   UNL     1      -0.314  10.575  18.123  0.00  0.00    +0.000 A 
ATOM     20  F   UNL     1      -0.617   9.427  17.493  0.00  0.00    +0.000 F 
ENDBRANCH   8  13
BRANCH   1  22
ATOM     21  C   UNL     1       3.671   2.607  17.954  0.00  0.00    +0.000 C 
ATOM     22  O   UNL     1       4.493   3.774  18.022  0.00  0.00    +0.000 OA
ENDBRANCH   1  22
BRANCH  11  23
ATOM     23  C   UNL     1       4.743   5.961  16.179  0.00  0.00    +0.000 C 
BRANCH  23  24
ATOM     24  N   UNL     1       5.943   5.094  16.218  0.00  0.00    +0.000 NA
ATOM     25  C   UNL     1       6.274   4.630  14.863  0.00  0.00    +0.000 C 
BRANCH  24  26
ATOM     26  C   UNL     1       7.121   5.775  16.843  0.00  0.00    +0.000 C 
ATOM     27  C   UNL     1       6.900   7.212  17.331  0.00  0.00    +0.000 C 
BRANCH  26  28
ATOM     28  C   UNL     1       7.689   4.918  18.001  0.00  0.00    +0.000 C 
ATOM     29  N   UNL     1       7.170   5.185  19.237  0.00  0.00    +0.000 N 
ATOM     30  O   UNL     1       8.535   4.039  17.865  0.00  0.00    +0.000 OA
ATOM     31  H   UNL     1       6.549   5.966  19.390  0.00  0.00    +0.000 HD
ATOM     32  H   UNL     1       7.537   4.670  20.025  0.00  0.00    +0.000 HD
ENDBRANCH  26  28
ENDBRANCH  24  26
ENDBRANCH  23  24
ENDBRANCH  11  23
TORSDOF 6
ENDMDL
MODEL 2
REMARK VINA RESULT:      -7.7      1.061      1.596
REMARK  Name = 
REMARK  9 active torsions:
REMARK  status: ('A' for Active; 'I' for Inactive)
REMARK    1  A    between atoms: C_1  and  O_2
REMARK    2  A    between atoms: O_2  and  C_3
REMARK    3  A    between atoms: N_10  and  C_11
REMARK    4  A    between atoms: C_21  and  C_22
REMARK    5  A    between atoms: C_22  and  N_23
REMARK    6  A    between atoms: N_23  and  C_24
REMARK    7  A    between atoms: N_23  and  C_25
REMARK    8  A    between atoms: C_25  and  C_26
REMARK    9  A    between atoms: C_25  and  C_27
REMARK                            x       y       z     vdW  Elec       q    Type
REMARK                         _______ _______ _______ _____ _____    ______ ____
ROOT
ATOM      1  C   UNL     1       3.865   5.033  18.372  0.00  0.00    +0.000 A 
ATOM      2  C   UNL     1       3.047   5.169  19.501  0.00  0.00    +0.000 A 
ATOM      3  C   UNL     1       2.394   6.350  19.807  0.00  0.00    +0.000 A 
ATOM      4  N   UNL     1       1.614   6.365  20.891  0.00  0.00    +0.000 NA
ATOM      5  C   UNL     1       0.971   7.503  21.147  0.00  0.00    +0.000 A 
ATOM      6  N   UNL     1       1.046   8.620  20.424  0.00  0.00    +0.000 NA
ATOM      7  C   UNL     1       1.838   8.593  19.332  0.00  0.00    +0.000 A 
ATOM      8  N   UNL     1       1.887   9.754  18.516  0.00  0.00    +0.000 N 
ATOM      9  C   UNL     1       2.565   7.451  18.965  0.00  0.00    +0.000 A 
ATOM     10  C   UNL     1       3.372   7.323  17.807  0.00  0.00    +0.000 A 
ATOM     11  C   UNL     1       4.001   6.108  17.482  0.00  0.00    +0.000 A 
ATOM     12  H   UNL     1       2.836  10.118  18.481  0.00  0.00    +0.000 HD
ENDROOT
BRANCH   8  13
ATOM     13  C   UNL     1       0.918  10.786  18.580  0.00  0.00    +0.000 A 
ATOM     14  C   UNL     1       1.226  12.018  19.179  0.00  0.00    +0.000 A 
ATOM     15  C   UNL     1       0.308  13.069  19.176  0.00  0.00    +0.000 A 
ATOM     16  C   UNL     1      -0.944  12.893  18.593  0.00  0.00    +0.000 A 
ATOM     17  C   UNL     1      -1.281  11.659  18.035  0.00  0.00    +0.000 A 
ATOM     18 CL   UNL     1      -2.837  11.455  17.325  0.00  0.00    +0.000 Cl
ATOM     19  C   UNL     1      -0.359  10.610  18.038  0.00  0.00    +0.000 A 
ATOM     20  F   UNL     1      -0.675   9.423  17.492  0.00  0.00    +0.000 F 
ENDBRANCH   8  13
BRANCH   1  22
ATOM     21  C   UNL     1       3.734   2.677  18.172  0.00  0.00    +0.000 C 
ATOM     22  O   UNL     1       4.520   3.866  18.071  0.00  0.00    +0.000 OA
ENDBRANCH   1  22
BRANCH  11  23
ATOM     23  C   UNL     1       4.718   5.984  16.143  0.00  0.00    +0.000 C 
BRANCH  23  24
ATOM     24  N   UNL     1       6.126   6.441  16.177  0.00  0.00    +0.000 NA
ATOM     25  C   UNL     1       6.386   7.177  17.422  0.00  0.00    +0.000 C 
BRANCH  24  26
ATOM     26  C   UNL     1       7.098   5.313  16.020  0.00  0.00    +0.000 C 
ATOM     27  C   UNL     1       7.532   4.602  17.308  0.00  0.00    +0.000 C 
BRANCH  26  28
ATOM     28  C   UNL     1       6.559   4.270  15.012  0.00  0.00    +0.000 C 
ATOM     29  N   UNL     1       6.071   3.119  15.563  0.00  0.00    +0.000 N 
ATOM     30  O   UNL     1       6.537   4.427  13.794  0.00  0.00    +0.000 OA
ATOM     31  H   UNL     1       6.168   2.924  16.549  0.00  0.00    +0.000 HD
ATOM     32  H   UNL     1       5.738   2.398  14.937  0.00  0.00    +0.000 HD
ENDBRANCH  26  28
ENDBRANCH  24  26
ENDBRANCH  23  24
ENDBRANCH  11  23
TORSDOF 6
ENDMDL
MODEL 3
REMARK VINA RESULT:      -7.7      1.261      1.531
REMARK  Name = 
REMARK  9 active torsions:
REMARK  status: ('A' for Active; 'I' for Inactive)
REMARK    1  A    between atoms: C_1  and  O_2
REMARK    2  A    between atoms: O_2  and  C_3
REMARK    3  A    between atoms: N_10  and  C_11
REMARK    4  A    between atoms: C_21  and  C_22
REMARK    5  A    between atoms: C_22  and  N_23
REMARK    6  A    between atoms: N_23  and  C_24
REMARK    7  A    between atoms: N_23  and  C_25
REMARK    8  A    between atoms: C_25  and  C_26
REMARK    9  A    between atoms: C_25  and  C_27
REMARK                            x       y       z     vdW  Elec       q    Type
REMARK                         _______ _______ _______ _____ _____    ______ ____
ROOT
ATOM      1  C   UNL     1       3.834   4.942  18.639  0.00  0.00    +0.000 A 
ATOM      2  C   UNL     1       3.010   5.141  19.754  0.00  0.00    +0.000 A 
ATOM      3  C   UNL     1       2.334   6.328  19.976  0.00  0.00    +0.000 A 
ATOM      4  N   UNL     1       1.551   6.403  21.054  0.00  0.00    +0.000 NA
ATOM      5  C   UNL     1       0.885   7.544  21.229  0.00  0.00    +0.000 A 
ATOM      6  N   UNL     1       0.942   8.609  20.430  0.00  0.00    +0.000 NA
ATOM      7  C   UNL     1       1.737   8.521  19.344  0.00  0.00    +0.000 A 
ATOM      8  N   UNL     1       1.766   9.624  18.450  0.00  0.00    +0.000 N 
ATOM      9  C   UNL     1       2.487   7.370  19.059  0.00  0.00    +0.000 A 
ATOM     10  C   UNL     1       3.300   7.178  17.914  0.00  0.00    +0.000 A 
ATOM     11  C   UNL     1       3.953   5.955  17.676  0.00  0.00    +0.000 A 
ATOM     12  H   UNL     1       2.709  10.002  18.391  0.00  0.00    +0.000 HD
ENDROOT
BRANCH   8  13
ATOM     13  C   UNL     1       0.778  10.639  18.440  0.00  0.00    +0.000 A 
ATOM     14  C   UNL     1      -0.564  10.325  18.178  0.00  0.00    +0.000 A 
ATOM     15  C   UNL     1      -1.559  11.301  18.246  0.00  0.00    +0.000 A 
ATOM     16  C   UNL     1      -1.218  12.616  18.554  0.00  0.00    +0.000 A 
ATOM     17  C   UNL     1       0.119  12.952  18.771  0.00  0.00    +0.000 A 
ATOM     18 CL   UNL     1       0.524  14.584  19.143  0.00  0.00    +0.000 Cl
ATOM     19  C   UNL     1       1.111  11.971  18.704  0.00  0.00    +0.000 A 
ATOM     20  F   UNL     1       2.399  12.287  18.923  0.00  0.00    +0.000 F 
ENDBRANCH   8  13
BRANCH   1  22
ATOM     21  C   UNL     1       3.739   2.577  18.564  0.00  0.00    +0.000 C 
ATOM     22  O   UNL     1       4.513   3.770  18.421  0.00  0.00    +0.000 OA
ENDBRANCH   1  22
BRANCH  11  23
ATOM     23  C   UNL     1       4.676   5.752  16.350  0.00  0.00    +0.000 C 
BRANCH  23  24
ATOM     24  N   UNL     1       5.857   4.864  16.447  0.00  0.00    +0.000 NA
ATOM     25  C   UNL     1       6.084   4.185  15.164  0.00  0.00    +0.000 C 
BRANCH  24  26
ATOM     26  C   UNL     1       7.089   5.595  16.881  0.00  0.00    +0.000 C 
ATOM     27  C   UNL     1       6.917   7.079  17.227  0.00  0.00    +0.000 C 
BRANCH  26  28
ATOM     28  C   UNL     1       7.763   4.863  18.068  0.00  0.00    +0.000 C 
ATOM     29  N   UNL     1       7.300   5.207  19.307  0.00  0.00    +0.000 N 
ATOM     30  O   UNL     1       8.644   4.016  17.953  0.00  0.00    +0.000 OA
ATOM     31  H   UNL     1       6.650   5.969  19.435  0.00  0.00    +0.000 HD
ATOM     32  H   UNL     1       7.736   4.777  20.112  0.00  0.00    +0.000 HD
ENDBRANCH  26  28
ENDBRANCH  24  26
ENDBRANCH  23  24
ENDBRANCH  11  23
TORSDOF 6
ENDMDL
MODEL 4
REMARK VINA RESULT:      -7.6      1.629      2.198
REMARK  Name = 
REMARK  9 active torsions:
REMARK  status: ('A' for Active; 'I' for Inactive)
REMARK    1  A    between atoms: C_1  and  O_2
REMARK    2  A    between atoms: O_2  and  C_3
REMARK    3  A    between atoms: N_10  and  C_11
REMARK    4  A    between atoms: C_21  and  C_22
REMARK    5  A    between atoms: C_22  and  N_23
REMARK    6  A    between atoms: N_23  and  C_24
REMARK    7  A    between atoms: N_23  and  C_25
REMARK    8  A    between atoms: C_25  and  C_26
REMARK    9  A    between atoms: C_25  and  C_27
REMARK                            x       y       z     vdW  Elec       q    Type
REMARK                         _______ _______ _______ _____ _____    ______ ____
ROOT
ATOM      1  C   UNL     1       3.949   5.051  18.456  0.00  0.00    +0.000 A 
ATOM      2  C   UNL     1       3.141   5.216  19.589  0.00  0.00    +0.000 A 
ATOM      3  C   UNL     1       2.450   6.386  19.844  0.00  0.00    +0.000 A 
ATOM      4  N   UNL     1       1.683   6.429  20.936  0.00  0.00    +0.000 NA
ATOM      5  C   UNL     1       1.002   7.555  21.143  0.00  0.00    +0.000 A 
ATOM      6  N   UNL     1       1.028   8.635  20.364  0.00  0.00    +0.000 NA
ATOM      7  C   UNL     1       1.806   8.581  19.264  0.00  0.00    +0.000 A 
ATOM      8  N   UNL     1       1.803   9.701  18.390  0.00  0.00    +0.000 N 
ATOM      9  C   UNL     1       2.570   7.449  18.945  0.00  0.00    +0.000 A 
ATOM     10  C   UNL     1       3.367   7.291  17.783  0.00  0.00    +0.000 A 
ATOM     11  C   UNL     1       4.036   6.084  17.511  0.00  0.00    +0.000 A 
ATOM     12  H   UNL     1       2.738  10.095  18.323  0.00  0.00    +0.000 HD
ENDROOT
BRANCH   8  13
ATOM     13  C   UNL     1       0.798  10.700  18.416  0.00  0.00    +0.000 A 
ATOM     14  C   UNL     1      -0.540  10.372  18.149  0.00  0.00    +0.000 A 
ATOM     15  C   UNL     1      -1.550  11.329  18.251  0.00  0.00    +0.000 A 
ATOM     16  C   UNL     1      -1.228  12.639  18.598  0.00  0.00    +0.000 A 
ATOM     17  C   UNL     1       0.104  12.990  18.821  0.00  0.00    +0.000 A 
ATOM     18 CL   UNL     1       0.484  14.616  19.242  0.00  0.00    +0.000 Cl
ATOM     19  C   UNL     1       1.111  12.028  18.720  0.00  0.00    +0.000 A 
ATOM     20  F   UNL     1       2.395  12.358  18.944  0.00  0.00    +0.000 F 
ENDBRANCH   8  13
BRANCH   1  22
ATOM     21  C   UNL     1       3.943   2.684  18.497  0.00  0.00    +0.000 C 
ATOM     22  O   UNL     1       4.643   3.894  18.206  0.00  0.00    +0.000 OA
ENDBRANCH   1  22
BRANCH  11  23
ATOM     23  C   UNL     1       4.740   5.917  16.170  0.00  0.00    +0.000 C 
BRANCH  23  24
ATOM     24  N   UNL     1       6.144   6.389  16.173  0.00  0.00    +0.000 NA
ATOM     25  C   UNL     1       6.416   7.154  17.398  0.00  0.00    +0.000 C 
BRANCH  24  26
ATOM     26  C   UNL     1       7.125   5.269  16.024  0.00  0.00    +0.000 C 
ATOM     27  C   UNL     1       7.586   4.587  17.319  0.00  0.00    +0.000 C 
BRANCH  26  28
ATOM     28  C   UNL     1       6.582   4.200  15.044  0.00  0.00    +0.000 C 
ATOM     29  N   UNL     1       6.068   3.077  15.628  0.00  0.00    +0.000 N 
ATOM     30  O   UNL     1       6.578   4.316  13.822  0.00  0.00    +0.000 OA
ATOM     31  H   UNL     1       6.149   2.914  16.621  0.00  0.00    +0.000 HD
ATOM     32  H   UNL     1       5.732   2.340  15.023  0.00  0.00    +0.000 HD
ENDBRANCH  26  28
ENDBRANCH  24  26
ENDBRANCH  23  24
ENDBRANCH  11  23
TORSDOF 6
ENDMDL
MODEL 5
REMARK VINA RESULT:      -7.2      3.962      7.755
REMARK  Name = 
REMARK  9 active torsions:
REMARK  status: ('A' for Active; 'I' for Inactive)
REMARK    1  A    between atoms: C_1  and  O_2
REMARK    2  A    between atoms: O_2  and  C_3
REMARK    3  A    between atoms: N_10  and  C_11
REMARK    4  A    between atoms: C_21  and  C_22
REMARK    5  A    between atoms: C_22  and  N_23
REMARK    6  A    between atoms: N_23  and  C_24
REMARK    7  A    between atoms: N_23  and  C_25
REMARK    8  A    between atoms: C_25  and  C_26
REMARK    9  A    between atoms: C_25  and  C_27
REMARK                            x       y       z     vdW  Elec       q    Type
REMARK                         _______ _______ _______ _____ _____    ______ ____
ROOT
ATOM      1  C   UNL     1       0.449   8.527  21.103  0.00  0.00    +0.000 A 
ATOM      2  C   UNL     1       0.655   7.165  21.355  0.00  0.00    +0.000 A 
ATOM      3  C   UNL     1       1.565   6.407  20.639  0.00  0.00    +0.000 A 
ATOM      4  N   UNL     1       1.707   5.123  20.979  0.00  0.00    +0.000 NA
ATOM      5  C   UNL     1       2.612   4.423  20.296  0.00  0.00    +0.000 A 
ATOM      6  N   UNL     1       3.373   4.888  19.307  0.00  0.00    +0.000 NA
ATOM      7  C   UNL     1       3.220   6.186  18.972  0.00  0.00    +0.000 A 
ATOM      8  N   UNL     1       4.062   6.716  17.959  0.00  0.00    +0.000 N 
ATOM      9  C   UNL     1       2.296   7.020  19.619  0.00  0.00    +0.000 A 
ATOM     10  C   UNL     1       2.114   8.403  19.366  0.00  0.00    +0.000 A 
ATOM     11  C   UNL     1       1.216   9.175  20.124  0.00  0.00    +0.000 A 
ATOM     12  H   UNL     1       3.503   7.050  17.177  0.00  0.00    +0.000 HD
ENDROOT
BRANCH   8  13
ATOM     13  C   UNL     1       5.256   6.081  17.534  0.00  0.00    +0.000 A 
ATOM     14  C   UNL     1       6.179   5.596  18.473  0.00  0.00    +0.000 A 
ATOM     15  C   UNL     1       7.317   4.897  18.070  0.00  0.00    +0.000 A 
ATOM     16  C   UNL     1       7.560   4.695  16.714  0.00  0.00    +0.000 A 
ATOM     17  C   UNL     1       6.675   5.211  15.767  0.00  0.00    +0.000 A 
ATOM     18 CL   UNL     1       6.994   4.958  14.093  0.00  0.00    +0.000 Cl
ATOM     19  C   UNL     1       5.535   5.908  16.175  0.00  0.00    +0.000 A 
ATOM     20  F   UNL     1       4.673   6.398  15.267  0.00  0.00    +0.000 F 
ENDBRANCH   8  13
BRANCH   1  22
ATOM     21  C   UNL     1      -0.132   9.513  23.177  0.00  0.00    +0.000 C 
ATOM     22  O   UNL     1      -0.459   9.279  21.806  0.00  0.00    +0.000 OA
ENDBRANCH   1  22
BRANCH  11  23
ATOM     23  C   UNL     1       1.185  10.685  19.918  0.00  0.00    +0.000 C 
BRANCH  23  24
ATOM     24  N   UNL     1       0.584  11.095  18.628  0.00  0.00    +0.000 NA
ATOM     25  C   UNL     1      -0.717  10.438  18.447  0.00  0.00    +0.000 C 
BRANCH  24  26
ATOM     26  C   UNL     1       0.443  12.581  18.509  0.00  0.00    +0.000 C 
ATOM     27  C   UNL     1      -0.278  13.293  19.660  0.00  0.00    +0.000 C 
BRANCH  26  28
ATOM     28  C   UNL     1       1.826  13.239  18.282  0.00  0.00    +0.000 C 
ATOM     29  N   UNL     1       2.645  12.593  17.399  0.00  0.00    +0.000 N 
ATOM     30  O   UNL     1       2.200  14.276  18.823  0.00  0.00    +0.000 OA
ATOM     31  H   UNL     1       2.402  11.690  17.018  0.00  0.00    +0.000 HD
ATOM     32  H   UNL     1       3.570  12.972  17.247  0.00  0.00    +0.000 HD
ENDBRANCH  26  28
ENDBRANCH  24  26
ENDBRANCH  23  24
ENDBRANCH  11  23
TORSDOF 6
ENDMDL
MODEL 6
REMARK VINA RESULT:      -7.1      4.021      8.143
REMARK  Name = 
REMARK  9 active torsions:
REMARK  status: ('A' for Active; 'I' for Inactive)
REMARK    1  A    between atoms: C_1  and  O_2
REMARK    2  A    between atoms: O_2  and  C_3
REMARK    3  A    between atoms: N_10  and  C_11
REMARK    4  A    between atoms: C_21  and  C_22
REMARK    5  A    between atoms: C_22  and  N_23
REMARK    6  A    between atoms: N_23  and  C_24
REMARK    7  A    between atoms: N_23  and  C_25
REMARK    8  A    between atoms: C_25  and  C_26
REMARK    9  A    between atoms: C_25  and  C_27
REMARK                            x       y       z     vdW  Elec       q    Type
REMARK                         _______ _______ _______ _____ _____    ______ ____
ROOT
ATOM      1  C   UNL     1       0.432   9.020  20.526  0.00  0.00    +0.000 A 
ATOM      2  C   UNL     1       0.697   7.738  21.026  0.00  0.00    +0.000 A 
ATOM      3  C   UNL     1       1.610   6.884  20.432  0.00  0.00    +0.000 A 
ATOM      4  N   UNL     1       1.810   5.695  21.006  0.00  0.00    +0.000 NA
ATOM      5  C   UNL     1       2.717   4.903  20.434  0.00  0.00    +0.000 A 
ATOM      6  N   UNL     1       3.428   5.193  19.345  0.00  0.00    +0.000 NA
ATOM      7  C   UNL     1       3.216   6.396  18.775  0.00  0.00    +0.000 A 
ATOM      8  N   UNL     1       4.005   6.747  17.647  0.00  0.00    +0.000 N 
ATOM      9  C   UNL     1       2.284   7.312  19.287  0.00  0.00    +0.000 A 
ATOM     10  C   UNL     1       2.043   8.614  18.782  0.00  0.00    +0.000 A 
ATOM     11  C   UNL     1       1.143   9.490  19.413  0.00  0.00    +0.000 A 
ATOM     12  H   UNL     1       3.409   6.907  16.839  0.00  0.00    +0.000 HD
ENDROOT
BRANCH   8  13
ATOM     13  C   UNL     1       5.206   6.077  17.305  0.00  0.00    +0.000 A 
ATOM     14  C   UNL     1       6.048   5.568  18.305  0.00  0.00    +0.000 A 
ATOM     15  C   UNL     1       7.192   4.837  17.980  0.00  0.00    +0.000 A 
ATOM     16  C   UNL     1       7.522   4.626  16.644  0.00  0.00    +0.000 A 
ATOM     17  C   UNL     1       6.718   5.166  15.638  0.00  0.00    +0.000 A 
ATOM     18 CL   UNL     1       7.145   4.903  13.991  0.00  0.00    +0.000 Cl
ATOM     19  C   UNL     1       5.574   5.896  15.968  0.00  0.00    +0.000 A 
ATOM     20  F   UNL     1       4.791   6.409  15.003  0.00  0.00    +0.000 F 
ENDBRANCH   8  13
BRANCH   1  22
ATOM     21  C   UNL     1      -0.540   9.815  22.534  0.00  0.00    +0.000 C 
ATOM     22  O   UNL     1      -0.479   9.865  21.108  0.00  0.00    +0.000 OA
ENDBRANCH   1  22
BRANCH  11  23
ATOM     23  C   UNL     1       1.049  10.930  18.923  0.00  0.00    +0.000 C 
BRANCH  23  24
ATOM     24  N   UNL     1       0.585  11.881  19.959  0.00  0.00    +0.000 NA
ATOM     25  C   UNL     1       1.737  12.525  20.605  0.00  0.00    +0.000 C 
BRANCH  24  26
ATOM     26  C   UNL     1      -0.354  12.911  19.413  0.00  0.00    +0.000 C 
ATOM     27  C   UNL     1       0.276  14.038  18.584  0.00  0.00    +0.000 C 
BRANCH  26  28
ATOM     28  C   UNL     1      -1.480  12.235  18.592  0.00  0.00    +0.000 C 
ATOM     29  N   UNL     1      -1.410  12.416  17.240  0.00  0.00    +0.000 N 
ATOM     30  O   UNL     1      -2.385  11.562  19.078  0.00  0.00    +0.000 OA
ATOM     31  H   UNL     1      -0.736  13.045  16.826  0.00  0.00    +0.000 HD
ATOM     32  H   UNL     1      -2.144  12.019  16.670  0.00  0.00    +0.000 HD
ENDBRANCH  26  28
ENDBRANCH  24  26
ENDBRANCH  23  24
ENDBRANCH  11  23
TORSDOF 6
ENDMDL
MODEL 7
REMARK VINA RESULT:      -7.1      1.996      2.533
REMARK  Name = 
REMARK  9 active torsions:
REMARK  status: ('A' for Active; 'I' for Inactive)
REMARK    1  A    between atoms: C_1  and  O_2
REMARK    2  A    between atoms: O_2  and  C_3
REMARK    3  A    between atoms: N_10  and  C_11
REMARK    4  A    between atoms: C_21  and  C_22
REMARK    5  A    between atoms: C_22  and  N_23
REMARK    6  A    between atoms: N_23  and  C_24
REMARK    7  A    between atoms: N_23  and  C_25
REMARK    8  A    between atoms: C_25  and  C_26
REMARK    9  A    between atoms: C_25  and  C_27
REMARK                            x       y       z     vdW  Elec       q    Type
REMARK                         _______ _______ _______ _____ _____    ______ ____
ROOT
ATOM      1  C   UNL     1       2.412   5.185  19.780  0.00  0.00    +0.000 A 
ATOM      2  C   UNL     1       1.620   5.743  20.792  0.00  0.00    +0.000 A 
ATOM      3  C   UNL     1       1.270   7.082  20.808  0.00  0.00    +0.000 A 
ATOM      4  N   UNL     1       0.486   7.506  21.802  0.00  0.00    +0.000 NA
ATOM      5  C   UNL     1       0.136   8.792  21.778  0.00  0.00    +0.000 A 
ATOM      6  N   UNL     1       0.506   9.682  20.858  0.00  0.00    +0.000 NA
ATOM      7  C   UNL     1       1.299   9.242  19.860  0.00  0.00    +0.000 A 
ATOM      8  N   UNL     1       1.657  10.162  18.839  0.00  0.00    +0.000 N 
ATOM      9  C   UNL     1       1.732   7.910  19.783  0.00  0.00    +0.000 A 
ATOM     10  C   UNL     1       2.517   7.356  18.740  0.00  0.00    +0.000 A 
ATOM     11  C   UNL     1       2.836   5.987  18.711  0.00  0.00    +0.000 A 
ATOM     12  H   UNL     1       2.667  10.276  18.809  0.00  0.00    +0.000 HD
ENDROOT
BRANCH   8  13
ATOM     13  C   UNL     1       0.971  11.383  18.622  0.00  0.00    +0.000 A 
ATOM     14  C   UNL     1      -0.406  11.389  18.354  0.00  0.00    +0.000 A 
ATOM     15  C   UNL     1      -1.108  12.588  18.220  0.00  0.00    +0.000 A 
ATOM     16  C   UNL     1      -0.433  13.801  18.328  0.00  0.00    +0.000 A 
ATOM     17  C   UNL     1       0.946  13.810  18.548  0.00  0.00    +0.000 A 
ATOM     18 CL   UNL     1       1.767  15.318  18.671  0.00  0.00    +0.000 Cl
ATOM     19  C   UNL     1       1.644  12.608  18.684  0.00  0.00    +0.000 A 
ATOM     20  F   UNL     1       2.969  12.610  18.907  0.00  0.00    +0.000 F 
ENDBRANCH   8  13
BRANCH   1  22
ATOM     21  C   UNL     1       1.719   2.946  19.443  0.00  0.00    +0.000 C 
ATOM     22  O   UNL     1       2.768   3.860  19.767  0.00  0.00    +0.000 OA
ENDBRANCH   1  22
BRANCH  11  23
ATOM     23  C   UNL     1       3.539   5.420  17.483  0.00  0.00    +0.000 C 
BRANCH  23  24
ATOM     24  N   UNL     1       5.009   5.594  17.507  0.00  0.00    +0.000 NA
ATOM     25  C   UNL     1       5.501   5.539  18.890  0.00  0.00    +0.000 C 
BRANCH  24  26
ATOM     26  C   UNL     1       5.720   4.588  16.656  0.00  0.00    +0.000 C 
ATOM     27  C   UNL     1       5.181   4.396  15.233  0.00  0.00    +0.000 C 
BRANCH  26  28
ATOM     28  C   UNL     1       7.235   4.903  16.596  0.00  0.00    +0.000 C 
ATOM     29  N   UNL     1       7.570   6.045  15.924  0.00  0.00    +0.000 N 
ATOM     30  O   UNL     1       8.109   4.213  17.114  0.00  0.00    +0.000 OA
ATOM     31  H   UNL     1       6.882   6.574  15.407  0.00  0.00    +0.000 HD
ATOM     32  H   UNL     1       8.551   6.270  15.834  0.00  0.00    +0.000 HD
ENDBRANCH  26  28
ENDBRANCH  24  26
ENDBRANCH  23  24
ENDBRANCH  11  23
TORSDOF 6
ENDMDL
MODEL 8
REMARK VINA RESULT:      -7.0      3.964      8.078
REMARK  Name = 
REMARK  9 active torsions:
REMARK  status: ('A' for Active; 'I' for Inactive)
REMARK    1  A    between atoms: C_1  and  O_2
REMARK    2  A    between atoms: O_2  and  C_3
REMARK    3  A    between atoms: N_10  and  C_11
REMARK    4  A    between atoms: C_21  and  C_22
REMARK    5  A    between atoms: C_22  and  N_23
REMARK    6  A    between atoms: N_23  and  C_24
REMARK    7  A    between atoms: N_23  and  C_25
REMARK    8  A    between atoms: C_25  and  C_26
REMARK    9  A    between atoms: C_25  and  C_27
REMARK                            x       y       z     vdW  Elec       q    Type
REMARK                         _______ _______ _______ _____ _____    ______ ____
ROOT
ATOM      1  C   UNL     1       0.568   8.279  21.065  0.00  0.00    +0.000 A 
ATOM      2  C   UNL     1       0.829   6.931  21.345  0.00  0.00    +0.000 A 
ATOM      3  C   UNL     1       1.740   6.185  20.619  0.00  0.00    +0.000 A 
ATOM      4  N   UNL     1       1.937   4.917  20.988  0.00  0.00    +0.000 NA
ATOM      5  C   UNL     1       2.843   4.228  20.294  0.00  0.00    +0.000 A 
ATOM      6  N   UNL     1       3.556   4.692  19.269  0.00  0.00    +0.000 NA
ATOM      7  C   UNL     1       3.348   5.974  18.905  0.00  0.00    +0.000 A 
ATOM      8  N   UNL     1       4.139   6.505  17.852  0.00  0.00    +0.000 N 
ATOM      9  C   UNL     1       2.418   6.795  19.561  0.00  0.00    +0.000 A 
ATOM     10  C   UNL     1       2.181   8.163  19.278  0.00  0.00    +0.000 A 
ATOM     11  C   UNL     1       1.281   8.925  20.045  0.00  0.00    +0.000 A 
ATOM     12  H   UNL     1       3.544   6.799  17.081  0.00  0.00    +0.000 HD
ENDROOT
BRANCH   8  13
ATOM     13  C   UNL     1       5.339   5.899  17.405  0.00  0.00    +0.000 A 
ATOM     14  C   UNL     1       6.270   5.395  18.326  0.00  0.00    +0.000 A 
ATOM     15  C   UNL     1       7.416   4.723  17.898  0.00  0.00    +0.000 A 
ATOM     16  C   UNL     1       7.659   4.568  16.536  0.00  0.00    +0.000 A 
ATOM     17  C   UNL     1       6.766   5.105  15.607  0.00  0.00    +0.000 A 
ATOM     18 CL   UNL     1       7.085   4.911  13.926  0.00  0.00    +0.000 Cl
ATOM     19  C   UNL     1       5.619   5.775  16.040  0.00  0.00    +0.000 A 
ATOM     20  F   UNL     1       4.749   6.283  15.150  0.00  0.00    +0.000 F 
ENDBRANCH   8  13
BRANCH   1  22
ATOM     21  C   UNL     1       0.095   9.454  23.066  0.00  0.00    +0.000 C 
ATOM     22  O   UNL     1      -0.342   9.018  21.777  0.00  0.00    +0.000 OA
ENDBRANCH   1  22
BRANCH  11  23
ATOM     23  C   UNL     1       1.192  10.427  19.801  0.00  0.00    +0.000 C 
BRANCH  23  24
ATOM     24  N   UNL     1       0.237  10.799  18.731  0.00  0.00    +0.000 NA
ATOM     25  C   UNL     1       0.040   9.667  17.816  0.00  0.00    +0.000 C 
BRANCH  24  26
ATOM     26  C   UNL     1      -1.076  11.271  19.274  0.00  0.00    +0.000 C 
ATOM     27  C   UNL     1      -1.015  12.227  20.472  0.00  0.00    +0.000 C 
BRANCH  26  28
ATOM     28  C   UNL     1      -1.930  11.907  18.150  0.00  0.00    +0.000 C 
ATOM     29  N   UNL     1      -1.276  12.805  17.354  0.00  0.00    +0.000 N 
ATOM     30  O   UNL     1      -3.110  11.642  17.940  0.00  0.00    +0.000 OA
ATOM     31  H   UNL     1      -0.338  13.113  17.567  0.00  0.00    +0.000 HD
ATOM     32  H   UNL     1      -1.806  13.268  16.628  0.00  0.00    +0.000 HD
ENDBRANCH  26  28
ENDBRANCH  24  26
ENDBRANCH  23  24
ENDBRANCH  11  23
TORSDOF 6
ENDMDL
MODEL 9
REMARK VINA RESULT:      -6.9      4.134      8.041
REMARK  Name = 
REMARK  9 active torsions:
REMARK  status: ('A' for Active; 'I' for Inactive)
REMARK    1  A    between atoms: C_1  and  O_2
REMARK    2  A    between atoms: O_2  and  C_3
REMARK    3  A    between atoms: N_10  and  C_11
REMARK    4  A    between atoms: C_21  and  C_22
REMARK    5  A    between atoms: C_22  and  N_23
REMARK    6  A    between atoms: N_23  and  C_24
REMARK    7  A    between atoms: N_23  and  C_25
REMARK    8  A    between atoms: C_25  and  C_26
REMARK    9  A    between atoms: C_25  and  C_27
REMARK                            x       y       z     vdW  Elec       q    Type
REMARK                         _______ _______ _______ _____ _____    ______ ____
ROOT
ATOM      1  C   UNL     1       0.388   9.421  20.369  0.00  0.00    +0.000 A 
ATOM      2  C   UNL     1       0.632   8.166  20.942  0.00  0.00    +0.000 A 
ATOM      3  C   UNL     1       1.527   7.262  20.397  0.00  0.00    +0.000 A 
ATOM      4  N   UNL     1       1.708   6.105  21.039  0.00  0.00    +0.000 NA
ATOM      5  C   UNL     1       2.598   5.265  20.513  0.00  0.00    +0.000 A 
ATOM      6  N   UNL     1       3.309   5.477  19.407  0.00  0.00    +0.000 NA
ATOM      7  C   UNL     1       3.117   6.648  18.767  0.00  0.00    +0.000 A 
ATOM      8  N   UNL     1       3.908   6.917  17.618  0.00  0.00    +0.000 N 
ATOM      9  C   UNL     1       2.204   7.609  19.226  0.00  0.00    +0.000 A 
ATOM     10  C   UNL     1       1.985   8.884  18.646  0.00  0.00    +0.000 A 
ATOM     11  C   UNL     1       1.103   9.812  19.227  0.00  0.00    +0.000 A 
ATOM     12  H   UNL     1       3.311   7.041  16.803  0.00  0.00    +0.000 HD
ENDROOT
BRANCH   8  13
ATOM     13  C   UNL     1       5.096   6.207  17.312  0.00  0.00    +0.000 A 
ATOM     14  C   UNL     1       5.897   5.683  18.338  0.00  0.00    +0.000 A 
ATOM     15  C   UNL     1       7.024   4.913  18.049  0.00  0.00    +0.000 A 
ATOM     16  C   UNL     1       7.380   4.677  16.723  0.00  0.00    +0.000 A 
ATOM     17  C   UNL     1       6.618   5.231  15.693  0.00  0.00    +0.000 A 
ATOM     18 CL   UNL     1       7.076   4.936  14.059  0.00  0.00    +0.000 Cl
ATOM     19  C   UNL     1       5.490   5.999  15.987  0.00  0.00    +0.000 A 
ATOM     20  F   UNL     1       4.747   6.526  14.998  0.00  0.00    +0.000 F 
ENDBRANCH   8  13
BRANCH   1  22
ATOM     21  C   UNL     1      -0.516  10.396  22.328  0.00  0.00    +0.000 C 
ATOM     22  O   UNL     1      -0.505  10.315  20.902  0.00  0.00    +0.000 OA
ENDBRANCH   1  22
BRANCH  11  23
ATOM     23  C   UNL     1       1.034  11.222  18.654  0.00  0.00    +0.000 C 
BRANCH  23  24
ATOM     24  N   UNL     1       1.938  12.182  19.327  0.00  0.00    +0.000 NA
ATOM     25  C   UNL     1       2.731  12.913  18.330  0.00  0.00    +0.000 C 
BRANCH  24  26
ATOM     26  C   UNL     1       1.202  13.136  20.216  0.00  0.00    +0.000 C 
ATOM     27  C   UNL     1       1.999  14.340  20.734  0.00  0.00    +0.000 C 
BRANCH  26  28
ATOM     28  C   UNL     1      -0.090  13.633  19.523  0.00  0.00    +0.000 C 
ATOM     29  N   UNL     1      -1.255  13.109  20.010  0.00  0.00    +0.000 N 
ATOM     30  O   UNL     1      -0.117  14.451  18.607  0.00  0.00    +0.000 OA
ATOM     31  H   UNL     1      -1.254  12.365  20.692  0.00  0.00    +0.000 HD
ATOM     32  H   UNL     1      -2.120  13.383  19.563  0.00  0.00    +0.000 HD
ENDBRANCH  26  28
ENDBRANCH  24  26
ENDBRANCH  23  24
ENDBRANCH  11  23
TORSDOF 6
ENDMDL
