MODEL 1
REMARK VINA RESULT:      -7.6      0.000      0.000
REMARK  Name = 
REMARK  10 active torsions:
REMARK  status: ('A' for Active; 'I' for Inactive)
REMARK    1  A    between atoms: C_1  and  N_2
REMARK    2  A    between atoms: N_2  and  C_3
REMARK    3  A    between atoms: N_2  and  C_19
REMARK    4  A    between atoms: C_3  and  C_4
REMARK    5  A    between atoms: C_4  and  C_5
REMARK    6  A    between atoms: C_5  and  C_6
REMARK    7  A    between atoms: C_6  and  O_7
REMARK    8  A    between atoms: O_7  and  C_8
REMARK    9  A    between atoms: C_19  and  C_20
REMARK   10  A    between atoms: C_22  and  C_23
REMARK                            x       y       z     vdW  Elec       q    Type
REMARK                         _______ _______ _______ _____ _____    ______ ____
ROOT
ATOM      1  C   UNL     1       0.940   4.101  20.592  0.00  0.00    +0.000 C 
ENDROOT
BRANCH   1   2
ATOM      2  C   UNL     1       1.414   4.876  19.349  0.00  0.00    +0.000 C 
BRANCH   2   4
ATOM      3  C   UNL     1       1.704   6.822  20.773  0.00  0.00    +0.000 C 
ATOM      4  N   UNL     1       2.251   6.053  19.652  0.00  0.00    +0.000 NA
BRANCH   4   5
ATOM      5  C   UNL     1       2.378   6.883  18.435  0.00  0.00    +0.000 C 
BRANCH   5   6
ATOM      6  C   UNL     1       2.140   8.333  18.742  0.00  0.00    +0.000 C 
ATOM      7  C   UNL     1       2.351   9.372  17.676  0.00  0.00    +0.000 C 
ATOM      8  C   UNL     1       0.952   9.094  18.177  0.00  0.00    +0.000 C 
BRANCH   8   9
ATOM      9  C   UNL     1       0.220  10.064  19.093  0.00  0.00    +0.000 A 
ATOM     10  C   UNL     1       0.786  10.461  20.321  0.00  0.00    +0.000 A 
ATOM     11  C   UNL     1       0.144  11.356  21.178  0.00  0.00    +0.000 A 
ATOM     12  C   UNL     1      -1.085  11.897  20.819  0.00  0.00    +0.000 A 
ATOM     13  C   UNL     1      -1.676  11.537  19.607  0.00  0.00    +0.000 A 
ATOM     14 CL   UNL     1      -3.199  12.263  19.224  0.00  0.00    +0.000 Cl
ATOM     15  C   UNL     1      -1.035  10.625  18.751  0.00  0.00    +0.000 A 
ATOM     16 CL   UNL     1      -1.775  10.167  17.244  0.00  0.00    +0.000 Cl
ENDBRANCH   8   9
ENDBRANCH   5   6
ENDBRANCH   4   5
ENDBRANCH   2   4
ENDBRANCH   1   2
BRANCH   1  17
ATOM     17  C   UNL     1       1.788   2.859  20.885  0.00  0.00    +0.000 C 
BRANCH  17  18
ATOM     18  C   UNL     1       1.941   1.971  19.658  0.00  0.00    +0.000 C 
BRANCH  18  19
ATOM     19  O   UNL     1       3.324   1.674  19.438  0.00  0.00    +0.000 OA
BRANCH  19  20
ATOM     20  C   UNL     1       3.970   2.648  18.718  0.00  0.00    +0.000 A 
ATOM     21  C   UNL     1       3.514   2.870  17.417  0.00  0.00    +0.000 A 
ATOM     22  C   UNL     1       4.101   3.860  16.624  0.00  0.00    +0.000 A 
ATOM     23  C   UNL     1       5.142   4.642  17.135  0.00  0.00    +0.000 A 
ATOM     24  C   UNL     1       5.611   4.394  18.428  0.00  0.00    +0.000 A 
ATOM     25  C   UNL     1       5.048   3.389  19.208  0.00  0.00    +0.000 A 
ATOM     26  N   UNL     1       6.664   5.153  18.946  0.00  0.00    +0.000 N 
ATOM     27  C   UNL     1       7.153   6.287  18.352  0.00  0.00    +0.000 C 
ATOM     28  O   UNL     1       8.105   6.895  18.839  0.00  0.00    +0.000 OA
ATOM     29  C   UNL     1       6.371   6.805  17.169  0.00  0.00    +0.000 C 
ATOM     30  C   UNL     1       5.850   5.671  16.300  0.00  0.00    +0.000 C 
ATOM     31  H   UNL     1       7.102   4.892  19.821  0.00  0.00    +0.000 HD
ENDBRANCH  19  20
ENDBRANCH  18  19
ENDBRANCH  17  18
ENDBRANCH   1  17
TORSDOF 9
ENDMDL
MODEL 2
REMARK VINA RESULT:      -7.5      6.763      9.097
REMARK  Name = 
REMARK  10 active torsions:
REMARK  status: ('A' for Active; 'I' for Inactive)
REMARK    1  A    between atoms: C_1  and  N_2
REMARK    2  A    between atoms: N_2  and  C_3
REMARK    3  A    between atoms: N_2  and  C_19
REMARK    4  A    between atoms: C_3  and  C_4
REMARK    5  A    between atoms: C_4  and  C_5
REMARK    6  A    between atoms: C_5  and  C_6
REMARK    7  A    between atoms: C_6  and  O_7
REMARK    8  A    between atoms: O_7  and  C_8
REMARK    9  A    between atoms: C_19  and  C_20
REMARK   10  A    between atoms: C_22  and  C_23
REMARK                            x       y       z     vdW  Elec       q    Type
REMARK                         _______ _______ _______ _____ _____    ______ ____
ROOT
ATOM      1  C   UNL     1       9.078  10.351  17.964  0.00  0.00    +0.000 C 
ENDROOT
BRANCH   1   2
ATOM      2  C   UNL     1       9.383  11.196  19.214  0.00  0.00    +0.000 C 
BRANCH   2   4
ATOM      3  C   UNL     1      11.062  12.485  20.407  0.00  0.00    +0.000 C 
ATOM      4  N   UNL     1      10.822  11.362  19.497  0.00  0.00    +0.000 NA
BRANCH   4   5
ATOM      5  C   UNL     1      11.549  11.533  18.221  0.00  0.00    +0.000 C 
BRANCH   5   6
ATOM      6  C   UNL     1      11.777  12.984  17.917  0.00  0.00    +0.000 C 
ATOM      7  C   UNL     1      12.322  13.397  16.579  0.00  0.00    +0.000 C 
ATOM      8  C   UNL     1      10.899  13.754  16.945  0.00  0.00    +0.000 C 
BRANCH   8   9
ATOM      9  C   UNL     1      10.497  15.176  17.311  0.00  0.00    +0.000 A 
ATOM     10  C   UNL     1      11.402  16.244  17.146  0.00  0.00    +0.000 A 
ATOM     11  C   UNL     1      11.060  17.560  17.464  0.00  0.00    +0.000 A 
ATOM     12  C   UNL     1       9.787  17.848  17.942  0.00  0.00    +0.000 A 
ATOM     13  C   UNL     1       8.858  16.819  18.111  0.00  0.00    +0.000 A 
ATOM     14 CL   UNL     1       7.291  17.259  18.697  0.00  0.00    +0.000 Cl
ATOM     15  C   UNL     1       9.208  15.493  17.804  0.00  0.00    +0.000 A 
ATOM     16 CL   UNL     1       8.055  14.208  18.024  0.00  0.00    +0.000 Cl
ENDBRANCH   8   9
ENDBRANCH   5   6
ENDBRANCH   4   5
ENDBRANCH   2   4
ENDBRANCH   1   2
BRANCH   1  17
ATOM     17  C   UNL     1       8.577   8.942  18.299  0.00  0.00    +0.000 C 
BRANCH  17  18
ATOM     18  C   UNL     1       7.319   8.585  17.522  0.00  0.00    +0.000 C 
BRANCH  18  19
ATOM     19  O   UNL     1       7.454   7.283  16.941  0.00  0.00    +0.000 OA
BRANCH  19  20
ATOM     20  C   UNL     1       6.634   6.351  17.528  0.00  0.00    +0.000 A 
ATOM     21  C   UNL     1       7.164   5.647  18.612  0.00  0.00    +0.000 A 
ATOM     22  C   UNL     1       6.388   4.696  19.281  0.00  0.00    +0.000 A 
ATOM     23  C   UNL     1       5.071   4.455  18.876  0.00  0.00    +0.000 A 
ATOM     24  C   UNL     1       4.559   5.144  17.773  0.00  0.00    +0.000 A 
ATOM     25  C   UNL     1       5.339   6.069  17.087  0.00  0.00    +0.000 A 
ATOM     26  N   UNL     1       3.252   4.900  17.343  0.00  0.00    +0.000 N 
ATOM     27  C   UNL     1       2.336   4.170  18.057  0.00  0.00    +0.000 C 
ATOM     28  O   UNL     1       1.209   3.960  17.611  0.00  0.00    +0.000 OA
ATOM     29  C   UNL     1       2.749   3.774  19.454  0.00  0.00    +0.000 C 
ATOM     30  C   UNL     1       4.221   3.397  19.520  0.00  0.00    +0.000 C 
ATOM     31  H   UNL     1       2.919   5.285  16.469  0.00  0.00    +0.000 HD
ENDBRANCH  19  20
ENDBRANCH  18  19
ENDBRANCH  17  18
ENDBRANCH   1  17
TORSDOF 9
ENDMDL
MODEL 3
REMARK VINA RESULT:      -7.5      6.427      9.586
REMARK  Name = 
REMARK  10 active torsions:
REMARK  status: ('A' for Active; 'I' for Inactive)
REMARK    1  A    between atoms: C_1  and  N_2
REMARK    2  A    between atoms: N_2  and  C_3
REMARK    3  A    between atoms: N_2  and  C_19
REMARK    4  A    between atoms: C_3  and  C_4
REMARK    5  A    between atoms: C_4  and  C_5
REMARK    6  A    between atoms: C_5  and  C_6
REMARK    7  A    between atoms: C_6  and  O_7
REMARK    8  A    between atoms: O_7  and  C_8
REMARK    9  A    between atoms: C_19  and  C_20
REMARK   10  A    between atoms: C_22  and  C_23
REMARK                            x       y       z     vdW  Elec       q    Type
REMARK                         _______ _______ _______ _____ _____    ______ ____
ROOT
ATOM      1  C   UNL     1       8.465   8.605  18.572  0.00  0.00    +0.000 C 
ENDROOT
BRANCH   1   2
ATOM      2  C   UNL     1       7.605   8.001  17.447  0.00  0.00    +0.000 C 
BRANCH   2   4
ATOM      3  C   UNL     1       7.975   5.931  18.662  0.00  0.00    +0.000 C 
ATOM      4  N   UNL     1       7.095   6.647  17.735  0.00  0.00    +0.000 NA
BRANCH   4   5
ATOM      5  C   UNL     1       6.932   5.911  16.463  0.00  0.00    +0.000 C 
BRANCH   5   6
ATOM      6  C   UNL     1       5.552   5.333  16.344  0.00  0.00    +0.000 C 
ATOM      7  C   UNL     1       5.324   4.089  15.533  0.00  0.00    +0.000 C 
ATOM      8  C   UNL     1       5.155   4.039  17.034  0.00  0.00    +0.000 C 
BRANCH   8   9
ATOM      9  C   UNL     1       3.781   3.965  17.686  0.00  0.00    +0.000 A 
ATOM     10  C   UNL     1       2.759   3.177  17.119  0.00  0.00    +0.000 A 
ATOM     11  C   UNL     1       1.492   3.081  17.697  0.00  0.00    +0.000 A 
ATOM     12  C   UNL     1       1.217   3.761  18.878  0.00  0.00    +0.000 A 
ATOM     13  C   UNL     1       2.205   4.545  19.476  0.00  0.00    +0.000 A 
ATOM     14 CL   UNL     1       1.791   5.349  20.950  0.00  0.00    +0.000 Cl
ATOM     15  C   UNL     1       3.476   4.652  18.886  0.00  0.00    +0.000 A 
ATOM     16 CL   UNL     1       4.707   5.637  19.624  0.00  0.00    +0.000 Cl
ENDBRANCH   8   9
ENDBRANCH   5   6
ENDBRANCH   4   5
ENDBRANCH   2   4
ENDBRANCH   1   2
BRANCH   1  17
ATOM     17  C   UNL     1       8.768  10.093  18.365  0.00  0.00    +0.000 C 
BRANCH  17  18
ATOM     18  C   UNL     1       9.456  10.708  19.575  0.00  0.00    +0.000 C 
BRANCH  18  19
ATOM     19  O   UNL     1      10.795  11.086  19.238  0.00  0.00    +0.000 OA
BRANCH  19  20
ATOM     20  C   UNL     1      10.872  12.344  18.693  0.00  0.00    +0.000 A 
ATOM     21  C   UNL     1      11.376  12.432  17.393  0.00  0.00    +0.000 A 
ATOM     22  C   UNL     1      11.466  13.673  16.756  0.00  0.00    +0.000 A 
ATOM     23  C   UNL     1      11.039  14.832  17.413  0.00  0.00    +0.000 A 
ATOM     24  C   UNL     1      10.562  14.737  18.723  0.00  0.00    +0.000 A 
ATOM     25  C   UNL     1      10.500  13.508  19.370  0.00  0.00    +0.000 A 
ATOM     26  N   UNL     1      10.151  15.888  19.400  0.00  0.00    +0.000 N 
ATOM     27  C   UNL     1       9.979  17.108  18.800  0.00  0.00    +0.000 C 
ATOM     28  O   UNL     1       9.646  18.094  19.456  0.00  0.00    +0.000 OA
ATOM     29  C   UNL     1      10.084  17.126  17.294  0.00  0.00    +0.000 C 
ATOM     30  C   UNL     1      11.178  16.194  16.795  0.00  0.00    +0.000 C 
ATOM     31  H   UNL     1       9.937  15.853  20.389  0.00  0.00    +0.000 HD
ENDBRANCH  19  20
ENDBRANCH  18  19
ENDBRANCH  17  18
ENDBRANCH   1  17
TORSDOF 9
ENDMDL
MODEL 4
REMARK VINA RESULT:      -7.3      4.272      8.895
REMARK  Name = 
REMARK  10 active torsions:
REMARK  status: ('A' for Active; 'I' for Inactive)
REMARK    1  A    between atoms: C_1  and  N_2
REMARK    2  A    between atoms: N_2  and  C_3
REMARK    3  A    between atoms: N_2  and  C_19
REMARK    4  A    between atoms: C_3  and  C_4
REMARK    5  A    between atoms: C_4  and  C_5
REMARK    6  A    between atoms: C_5  and  C_6
REMARK    7  A    between atoms: C_6  and  O_7
REMARK    8  A    between atoms: O_7  and  C_8
REMARK    9  A    between atoms: C_19  and  C_20
REMARK   10  A    between atoms: C_22  and  C_23
REMARK                            x       y       z     vdW  Elec       q    Type
REMARK                         _______ _______ _______ _____ _____    ______ ____
ROOT
ATOM      1  C   UNL     1       1.358   4.763  20.657  0.00  0.00    +0.000 C 
ENDROOT
BRANCH   1   2
ATOM      2  C   UNL     1       2.188   3.701  21.402  0.00  0.00    +0.000 C 
BRANCH   2   4
ATOM      3  C   UNL     1       4.004   2.384  20.471  0.00  0.00    +0.000 C 
ATOM      4  N   UNL     1       2.550   2.530  20.581  0.00  0.00    +0.000 NA
BRANCH   4   5
ATOM      5  C   UNL     1       1.916   2.657  19.251  0.00  0.00    +0.000 C 
BRANCH   5   6
ATOM      6  C   UNL     1       2.947   2.723  18.163  0.00  0.00    +0.000 C 
ATOM      7  C   UNL     1       2.521   2.882  16.731  0.00  0.00    +0.000 C 
ATOM      8  C   UNL     1       3.254   4.011  17.418  0.00  0.00    +0.000 C 
BRANCH   8   9
ATOM      9  C   UNL     1       4.709   4.331  17.106  0.00  0.00    +0.000 A 
ATOM     10  C   UNL     1       5.292   3.918  15.891  0.00  0.00    +0.000 A 
ATOM     11  C   UNL     1       6.620   4.204  15.571  0.00  0.00    +0.000 A 
ATOM     12  C   UNL     1       7.404   4.934  16.459  0.00  0.00    +0.000 A 
ATOM     13  C   UNL     1       6.862   5.369  17.669  0.00  0.00    +0.000 A 
ATOM     14 CL   UNL     1       7.895   6.281  18.714  0.00  0.00    +0.000 Cl
ATOM     15  C   UNL     1       5.528   5.068  17.996  0.00  0.00    +0.000 A 
ATOM     16 CL   UNL     1       4.854   5.601  19.509  0.00  0.00    +0.000 Cl
ENDBRANCH   8   9
ENDBRANCH   5   6
ENDBRANCH   4   5
ENDBRANCH   2   4
ENDBRANCH   1   2
BRANCH   1  17
ATOM     17  C   UNL     1       1.960   6.170  20.751  0.00  0.00    +0.000 C 
BRANCH  17  18
ATOM     18  C   UNL     1       0.887   7.238  20.909  0.00  0.00    +0.000 C 
BRANCH  18  19
ATOM     19  O   UNL     1       1.430   8.383  21.575  0.00  0.00    +0.000 OA
BRANCH  19  20
ATOM     20  C   UNL     1       0.617   9.486  21.486  0.00  0.00    +0.000 A 
ATOM     21  C   UNL     1       0.662  10.200  20.286  0.00  0.00    +0.000 A 
ATOM     22  C   UNL     1      -0.152  11.322  20.104  0.00  0.00    +0.000 A 
ATOM     23  C   UNL     1      -1.024  11.728  21.120  0.00  0.00    +0.000 A 
ATOM     24  C   UNL     1      -1.041  11.024  22.327  0.00  0.00    +0.000 A 
ATOM     25  C   UNL     1      -0.211   9.925  22.521  0.00  0.00    +0.000 A 
ATOM     26  N   UNL     1      -1.892  11.429  23.358  0.00  0.00    +0.000 N 
ATOM     27  C   UNL     1      -2.886  12.361  23.208  0.00  0.00    +0.000 C 
ATOM     28  O   UNL     1      -3.583  12.702  24.163  0.00  0.00    +0.000 OA
ATOM     29  C   UNL     1      -3.154  12.821  21.795  0.00  0.00    +0.000 C 
ATOM     30  C   UNL     1      -1.868  12.965  20.997  0.00  0.00    +0.000 C 
ATOM     31  H   UNL     1      -1.814  11.018  24.280  0.00  0.00    +0.000 HD
ENDBRANCH  19  20
ENDBRANCH  18  19
ENDBRANCH  17  18
ENDBRANCH   1  17
TORSDOF 9
ENDMDL
MODEL 5
REMARK VINA RESULT:      -7.1      6.515      8.420
REMARK  Name = 
REMARK  10 active torsions:
REMARK  status: ('A' for Active; 'I' for Inactive)
REMARK    1  A    between atoms: C_1  and  N_2
REMARK    2  A    between atoms: N_2  and  C_3
REMARK    3  A    between atoms: N_2  and  C_19
REMARK    4  A    between atoms: C_3  and  C_4
REMARK    5  A    between atoms: C_4  and  C_5
REMARK    6  A    between atoms: C_5  and  C_6
REMARK    7  A    between atoms: C_6  and  O_7
REMARK    8  A    between atoms: O_7  and  C_8
REMARK    9  A    between atoms: C_19  and  C_20
REMARK   10  A    between atoms: C_22  and  C_23
REMARK                            x       y       z     vdW  Elec       q    Type
REMARK                         _______ _______ _______ _____ _____    ______ ____
ROOT
ATOM      1  C   UNL     1       8.525   9.583  18.239  0.00  0.00    +0.000 C 
ENDROOT
BRANCH   1   2
ATOM      2  C   UNL     1       9.297  10.227  19.405  0.00  0.00    +0.000 C 
BRANCH   2   4
ATOM      3  C   UNL     1      10.534  11.522  17.763  0.00  0.00    +0.000 C 
ATOM      4  N   UNL     1       9.897  11.536  19.083  0.00  0.00    +0.000 NA
BRANCH   4   5
ATOM      5  C   UNL     1      10.859  11.902  20.144  0.00  0.00    +0.000 C 
BRANCH   5   6
ATOM      6  C   UNL     1      10.398  13.113  20.900  0.00  0.00    +0.000 C 
ATOM      7  C   UNL     1       9.361  14.023  20.303  0.00  0.00    +0.000 C 
ATOM      8  C   UNL     1       9.014  13.198  21.522  0.00  0.00    +0.000 C 
BRANCH   8   9
ATOM      9  C   UNL     1       8.885  13.824  22.904  0.00  0.00    +0.000 A 
ATOM     10  C   UNL     1       9.212  15.178  23.114  0.00  0.00    +0.000 A 
ATOM     11  C   UNL     1       9.095  15.783  24.366  0.00  0.00    +0.000 A 
ATOM     12  C   UNL     1       8.627  15.048  25.449  0.00  0.00    +0.000 A 
ATOM     13  C   UNL     1       8.284  13.705  25.281  0.00  0.00    +0.000 A 
ATOM     14 CL   UNL     1       7.696  12.860  26.672  0.00  0.00    +0.000 Cl
ATOM     15  C   UNL     1       8.415  13.093  24.022  0.00  0.00    +0.000 A 
ATOM     16 CL   UNL     1       7.997  11.417  23.814  0.00  0.00    +0.000 Cl
ENDBRANCH   8   9
ENDBRANCH   5   6
ENDBRANCH   4   5
ENDBRANCH   2   4
ENDBRANCH   1   2
BRANCH   1  17
ATOM     17  C   UNL     1       8.361   8.067  18.392  0.00  0.00    +0.000 C 
BRANCH  17  18
ATOM     18  C   UNL     1       7.363   7.498  17.394  0.00  0.00    +0.000 C 
BRANCH  18  19
ATOM     19  O   UNL     1       7.598   6.097  17.210  0.00  0.00    +0.000 OA
BRANCH  19  20
ATOM     20  C   UNL     1       6.448   5.350  17.291  0.00  0.00    +0.000 A 
ATOM     21  C   UNL     1       5.845   5.000  16.082  0.00  0.00    +0.000 A 
ATOM     22  C   UNL     1       4.684   4.220  16.074  0.00  0.00    +0.000 A 
ATOM     23  C   UNL     1       4.130   3.776  17.280  0.00  0.00    +0.000 A 
ATOM     24  C   UNL     1       4.725   4.156  18.486  0.00  0.00    +0.000 A 
ATOM     25  C   UNL     1       5.862   4.956  18.496  0.00  0.00    +0.000 A 
ATOM     26  N   UNL     1       4.171   3.738  19.699  0.00  0.00    +0.000 N 
ATOM     27  C   UNL     1       3.184   2.793  19.803  0.00  0.00    +0.000 C 
ATOM     28  O   UNL     1       2.713   2.490  20.898  0.00  0.00    +0.000 OA
ATOM     29  C   UNL     1       2.827   2.065  18.530  0.00  0.00    +0.000 C 
ATOM     30  C   UNL     1       2.848   2.994  17.326  0.00  0.00    +0.000 C 
ATOM     31  H   UNL     1       4.508   4.119  20.575  0.00  0.00    +0.000 HD
ENDBRANCH  19  20
ENDBRANCH  18  19
ENDBRANCH  17  18
ENDBRANCH   1  17
TORSDOF 9
ENDMDL
MODEL 6
REMARK VINA RESULT:      -7.1      5.296      7.882
REMARK  Name = 
REMARK  10 active torsions:
REMARK  status: ('A' for Active; 'I' for Inactive)
REMARK    1  A    between atoms: C_1  and  N_2
REMARK    2  A    between atoms: N_2  and  C_3
REMARK    3  A    between atoms: N_2  and  C_19
REMARK    4  A    between atoms: C_3  and  C_4
REMARK    5  A    between atoms: C_4  and  C_5
REMARK    6  A    between atoms: C_5  and  C_6
REMARK    7  A    between atoms: C_6  and  O_7
REMARK    8  A    between atoms: O_7  and  C_8
REMARK    9  A    between atoms: C_19  and  C_20
REMARK   10  A    between atoms: C_22  and  C_23
REMARK                            x       y       z     vdW  Elec       q    Type
REMARK                         _______ _______ _______ _____ _____    ______ ____
ROOT
ATOM      1  C   UNL     1       7.816   6.301  18.429  0.00  0.00    +0.000 C 
ENDROOT
BRANCH   1   2
ATOM      2  C   UNL     1       6.664   5.289  18.284  0.00  0.00    +0.000 C 
BRANCH   2   4
ATOM      3  C   UNL     1       6.506   5.682  15.892  0.00  0.00    +0.000 C 
ATOM      4  N   UNL     1       6.568   4.669  16.948  0.00  0.00    +0.000 NA
BRANCH   4   5
ATOM      5  C   UNL     1       5.390   3.776  16.913  0.00  0.00    +0.000 C 
BRANCH   5   6
ATOM      6  C   UNL     1       4.116   4.555  17.059  0.00  0.00    +0.000 C 
ATOM      7  C   UNL     1       2.864   3.870  17.531  0.00  0.00    +0.000 C 
ATOM      8  C   UNL     1       3.529   4.897  18.419  0.00  0.00    +0.000 C 
BRANCH   8   9
ATOM      9  C   UNL     1       2.941   6.287  18.618  0.00  0.00    +0.000 A 
ATOM     10  C   UNL     1       3.144   7.298  17.658  0.00  0.00    +0.000 A 
ATOM     11  C   UNL     1       2.610   8.579  17.807  0.00  0.00    +0.000 A 
ATOM     12  C   UNL     1       1.836   8.881  18.922  0.00  0.00    +0.000 A 
ATOM     13  C   UNL     1       1.604   7.905  19.892  0.00  0.00    +0.000 A 
ATOM     14 CL   UNL     1       0.621   8.352  21.243  0.00  0.00    +0.000 Cl
ATOM     15  C   UNL     1       2.154   6.619  19.748  0.00  0.00    +0.000 A 
ATOM     16 CL   UNL     1       1.873   5.403  20.961  0.00  0.00    +0.000 Cl
ENDBRANCH   8   9
ENDBRANCH   5   6
ENDBRANCH   4   5
ENDBRANCH   2   4
ENDBRANCH   1   2
BRANCH   1  17
ATOM     17  C   UNL     1       7.466   7.691  17.887  0.00  0.00    +0.000 C 
BRANCH  17  18
ATOM     18  C   UNL     1       8.357   8.774  18.479  0.00  0.00    +0.000 C 
BRANCH  18  19
ATOM     19  O   UNL     1       8.159  10.008  17.781  0.00  0.00    +0.000 OA
BRANCH  19  20
ATOM     20  C   UNL     1       9.004  11.003  18.209  0.00  0.00    +0.000 A 
ATOM     21  C   UNL     1       9.699  10.765  19.397  0.00  0.00    +0.000 A 
ATOM     22  C   UNL     1      10.597  11.717  19.890  0.00  0.00    +0.000 A 
ATOM     23  C   UNL     1      10.812  12.907  19.187  0.00  0.00    +0.000 A 
ATOM     24  C   UNL     1      10.091  13.148  18.015  0.00  0.00    +0.000 A 
ATOM     25  C   UNL     1       9.176  12.216  17.539  0.00  0.00    +0.000 A 
ATOM     26  N   UNL     1      10.280  14.341  17.313  0.00  0.00    +0.000 N 
ATOM     27  C   UNL     1      11.290  15.231  17.574  0.00  0.00    +0.000 C 
ATOM     28  O   UNL     1      11.386  16.282  16.943  0.00  0.00    +0.000 OA
ATOM     29  C   UNL     1      12.333  14.775  18.566  0.00  0.00    +0.000 C 
ATOM     30  C   UNL     1      11.715  13.988  19.711  0.00  0.00    +0.000 C 
ATOM     31  H   UNL     1       9.668  14.588  16.545  0.00  0.00    +0.000 HD
ENDBRANCH  19  20
ENDBRANCH  18  19
ENDBRANCH  17  18
ENDBRANCH   1  17
TORSDOF 9
ENDMDL
MODEL 7
REMARK VINA RESULT:      -7.0      5.856      7.855
REMARK  Name = 
REMARK  10 active torsions:
REMARK  status: ('A' for Active; 'I' for Inactive)
REMARK    1  A    between atoms: C_1  and  N_2
REMARK    2  A    between atoms: N_2  and  C_3
REMARK    3  A    between atoms: N_2  and  C_19
REMARK    4  A    between atoms: C_3  and  C_4
REMARK    5  A    between atoms: C_4  and  C_5
REMARK    6  A    between atoms: C_5  and  C_6
REMARK    7  A    between atoms: C_6  and  O_7
REMARK    8  A    between atoms: O_7  and  C_8
REMARK    9  A    between atoms: C_19  and  C_20
REMARK   10  A    between atoms: C_22  and  C_23
REMARK                            x       y       z     vdW  Elec       q    Type
REMARK                         _______ _______ _______ _____ _____    ______ ____
ROOT
ATOM      1  C   UNL     1       8.193   8.545  17.795  0.00  0.00    +0.000 C 
ENDROOT
BRANCH   1   2
ATOM      2  C   UNL     1       8.630   9.246  19.094  0.00  0.00    +0.000 C 
BRANCH   2   4
ATOM      3  C   UNL     1       9.955  10.977  20.166  0.00  0.00    +0.000 C 
ATOM      4  N   UNL     1       9.593  10.346  18.894  0.00  0.00    +0.000 NA
BRANCH   4   5
ATOM      5  C   UNL     1       9.019  11.326  17.947  0.00  0.00    +0.000 C 
BRANCH   5   6
ATOM      6  C   UNL     1       9.449  12.723  18.286  0.00  0.00    +0.000 C 
ATOM      7  C   UNL     1      10.509  13.405  17.468  0.00  0.00    +0.000 C 
ATOM      8  C   UNL     1       9.087  13.914  17.415  0.00  0.00    +0.000 C 
BRANCH   8   9
ATOM      9  C   UNL     1       8.671  15.207  18.103  0.00  0.00    +0.000 A 
ATOM     10  C   UNL     1       9.639  16.133  18.539  0.00  0.00    +0.000 A 
ATOM     11  C   UNL     1       9.290  17.331  19.164  0.00  0.00    +0.000 A 
ATOM     12  C   UNL     1       7.950  17.647  19.355  0.00  0.00    +0.000 A 
ATOM     13  C   UNL     1       6.959  16.760  18.930  0.00  0.00    +0.000 A 
ATOM     14 CL   UNL     1       5.314  17.229  19.191  0.00  0.00    +0.000 Cl
ATOM     15  C   UNL     1       7.312  15.547  18.313  0.00  0.00    +0.000 A 
ATOM     16 CL   UNL     1       6.079  14.436  17.791  0.00  0.00    +0.000 Cl
ENDBRANCH   8   9
ENDBRANCH   5   6
ENDBRANCH   4   5
ENDBRANCH   2   4
ENDBRANCH   1   2
BRANCH   1  17
ATOM     17  C   UNL     1       7.790   7.082  18.008  0.00  0.00    +0.000 C 
BRANCH  17  18
ATOM     18  C   UNL     1       6.759   6.620  16.988  0.00  0.00    +0.000 C 
BRANCH  18  19
ATOM     19  O   UNL     1       6.318   5.295  17.302  0.00  0.00    +0.000 OA
BRANCH  19  20
ATOM     20  C   UNL     1       5.171   5.281  18.057  0.00  0.00    +0.000 A 
ATOM     21  C   UNL     1       4.280   6.338  17.860  0.00  0.00    +0.000 A 
ATOM     22  C   UNL     1       3.078   6.387  18.573  0.00  0.00    +0.000 A 
ATOM     23  C   UNL     1       2.757   5.369  19.477  0.00  0.00    +0.000 A 
ATOM     24  C   UNL     1       3.667   4.330  19.688  0.00  0.00    +0.000 A 
ATOM     25  C   UNL     1       4.877   4.296  19.003  0.00  0.00    +0.000 A 
ATOM     26  N   UNL     1       3.370   3.317  20.603  0.00  0.00    +0.000 N 
ATOM     27  C   UNL     1       2.137   3.143  21.177  0.00  0.00    +0.000 C 
ATOM     28  O   UNL     1       1.945   2.251  22.002  0.00  0.00    +0.000 OA
ATOM     29  C   UNL     1       1.025   4.006  20.632  0.00  0.00    +0.000 C 
ATOM     30  C   UNL     1       1.509   5.412  20.314  0.00  0.00    +0.000 C 
ATOM     31  H   UNL     1       4.076   2.641  20.867  0.00  0.00    +0.000 HD
ENDBRANCH  19  20
ENDBRANCH  18  19
ENDBRANCH  17  18
ENDBRANCH   1  17
TORSDOF 9
ENDMDL
MODEL 8
REMARK VINA RESULT:      -7.0      1.979      2.918
REMARK  Name = 
REMARK  10 active torsions:
REMARK  status: ('A' for Active; 'I' for Inactive)
REMARK    1  A    between atoms: C_1  and  N_2
REMARK    2  A    between atoms: N_2  and  C_3
REMARK    3  A    between atoms: N_2  and  C_19
REMARK    4  A    between atoms: C_3  and  C_4
REMARK    5  A    between atoms: C_4  and  C_5
REMARK    6  A    between atoms: C_5  and  C_6
REMARK    7  A    between atoms: C_6  and  O_7
REMARK    8  A    between atoms: O_7  and  C_8
REMARK    9  A    between atoms: C_19  and  C_20
REMARK   10  A    between atoms: C_22  and  C_23
REMARK                            x       y       z     vdW  Elec       q    Type
REMARK                         _______ _______ _______ _____ _____    ______ ____
ROOT
ATOM      1  C   UNL     1       1.676   5.059  20.752  0.00  0.00    +0.000 C 
ENDROOT
BRANCH   1   2
ATOM      2  C   UNL     1       2.331   6.135  19.867  0.00  0.00    +0.000 C 
BRANCH   2   4
ATOM      3  C   UNL     1       2.152   8.311  18.803  0.00  0.00    +0.000 C 
ATOM      4  N   UNL     1       1.578   7.403  19.799  0.00  0.00    +0.000 NA
BRANCH   4   5
ATOM      5  C   UNL     1       1.548   8.020  21.142  0.00  0.00    +0.000 C 
BRANCH   5   6
ATOM      6  C   UNL     1       0.276   8.786  21.357  0.00  0.00    +0.000 C 
ATOM      7  C   UNL     1      -0.007   9.415  22.693  0.00  0.00    +0.000 C 
ATOM      8  C   UNL     1       0.257  10.299  21.495  0.00  0.00    +0.000 C 
BRANCH   8   9
ATOM      9  C   UNL     1      -0.859  11.069  20.804  0.00  0.00    +0.000 A 
ATOM     10  C   UNL     1      -1.178  10.817  19.455  0.00  0.00    +0.000 A 
ATOM     11  C   UNL     1      -2.202  11.500  18.796  0.00  0.00    +0.000 A 
ATOM     12  C   UNL     1      -2.954  12.448  19.480  0.00  0.00    +0.000 A 
ATOM     13  C   UNL     1      -2.676  12.720  20.821  0.00  0.00    +0.000 A 
ATOM     14 CL   UNL     1      -3.663  13.903  21.607  0.00  0.00    +0.000 Cl
ATOM     15  C   UNL     1      -1.635  12.043  21.479  0.00  0.00    +0.000 A 
ATOM     16 CL   UNL     1      -1.281  12.388  23.148  0.00  0.00    +0.000 Cl
ENDBRANCH   8   9
ENDBRANCH   5   6
ENDBRANCH   4   5
ENDBRANCH   2   4
ENDBRANCH   1   2
BRANCH   1  17
ATOM     17  C   UNL     1       0.898   4.011  19.948  0.00  0.00    +0.000 C 
BRANCH  17  18
ATOM     18  C   UNL     1       1.479   2.615  20.120  0.00  0.00    +0.000 C 
BRANCH  18  19
ATOM     19  O   UNL     1       2.076   2.177  18.895  0.00  0.00    +0.000 OA
BRANCH  19  20
ATOM     20  C   UNL     1       3.237   2.848  18.600  0.00  0.00    +0.000 A 
ATOM     21  C   UNL     1       4.159   2.990  19.640  0.00  0.00    +0.000 A 
ATOM     22  C   UNL     1       5.377   3.639  19.417  0.00  0.00    +0.000 A 
ATOM     23  C   UNL     1       5.683   4.138  18.146  0.00  0.00    +0.000 A 
ATOM     24  C   UNL     1       4.743   4.016  17.120  0.00  0.00    +0.000 A 
ATOM     25  C   UNL     1       3.519   3.397  17.347  0.00  0.00    +0.000 A 
ATOM     26  N   UNL     1       5.026   4.528  15.851  0.00  0.00    +0.000 N 
ATOM     27  C   UNL     1       6.265   4.971  15.463  0.00  0.00    +0.000 C 
ATOM     28  O   UNL     1       6.445   5.442  14.341  0.00  0.00    +0.000 OA
ATOM     29  C   UNL     1       7.393   4.713  16.433  0.00  0.00    +0.000 C 
ATOM     30  C   UNL     1       6.949   4.901  17.875  0.00  0.00    +0.000 C 
ATOM     31  H   UNL     1       4.305   4.570  15.142  0.00  0.00    +0.000 HD
ENDBRANCH  19  20
ENDBRANCH  18  19
ENDBRANCH  17  18
ENDBRANCH   1  17
TORSDOF 9
ENDMDL
MODEL 9
REMARK VINA RESULT:      -7.0      6.769      8.712
REMARK  Name = 
REMARK  10 active torsions:
REMARK  status: ('A' for Active; 'I' for Inactive)
REMARK    1  A    between atoms: C_1  and  N_2
REMARK    2  A    between atoms: N_2  and  C_3
REMARK    3  A    between atoms: N_2  and  C_19
REMARK    4  A    between atoms: C_3  and  C_4
REMARK    5  A    between atoms: C_4  and  C_5
REMARK    6  A    between atoms: C_5  and  C_6
REMARK    7  A    between atoms: C_6  and  O_7
REMARK    8  A    between atoms: O_7  and  C_8
REMARK    9  A    between atoms: C_19  and  C_20
REMARK   10  A    between atoms: C_22  and  C_23
REMARK                            x       y       z     vdW  Elec       q    Type
REMARK                         _______ _______ _______ _____ _____    ______ ____
ROOT
ATOM      1  C   UNL     1       8.920  11.001  18.157  0.00  0.00    +0.000 C 
ENDROOT
BRANCH   1   2
ATOM      2  C   UNL     1      10.342  11.545  17.933  0.00  0.00    +0.000 C 
BRANCH   2   4
ATOM      3  C   UNL     1      11.488  11.976  20.031  0.00  0.00    +0.000 C 
ATOM      4  N   UNL     1      10.758  12.571  18.909  0.00  0.00    +0.000 NA
BRANCH   4   5
ATOM      5  C   UNL     1       9.565  13.312  19.370  0.00  0.00    +0.000 C 
BRANCH   5   6
ATOM      6  C   UNL     1       9.647  13.613  20.838  0.00  0.00    +0.000 C 
ATOM      7  C   UNL     1       9.555  15.032  21.322  0.00  0.00    +0.000 C 
ATOM      8  C   UNL     1       8.438  14.065  21.639  0.00  0.00    +0.000 C 
BRANCH   8   9
ATOM      9  C   UNL     1       8.247  13.490  23.036  0.00  0.00    +0.000 A 
ATOM     10  C   UNL     1       7.626  12.238  23.220  0.00  0.00    +0.000 A 
ATOM     11  C   UNL     1       7.445  11.680  24.486  0.00  0.00    +0.000 A 
ATOM     12  C   UNL     1       7.899  12.357  25.612  0.00  0.00    +0.000 A 
ATOM     13  C   UNL     1       8.527  13.596  25.473  0.00  0.00    +0.000 A 
ATOM     14 CL   UNL     1       9.077  14.370  26.919  0.00  0.00    +0.000 Cl
ATOM     15  C   UNL     1       8.697  14.163  24.198  0.00  0.00    +0.000 A 
ATOM     16 CL   UNL     1       9.471  15.712  24.023  0.00  0.00    +0.000 Cl
ENDBRANCH   8   9
ENDBRANCH   5   6
ENDBRANCH   4   5
ENDBRANCH   2   4
ENDBRANCH   1   2
BRANCH   1  17
ATOM     17  C   UNL     1       8.903   9.568  18.701  0.00  0.00    +0.000 C 
BRANCH  17  18
ATOM     18  C   UNL     1       7.981   8.663  17.895  0.00  0.00    +0.000 C 
BRANCH  18  19
ATOM     19  O   UNL     1       8.137   7.304  18.316  0.00  0.00    +0.000 OA
BRANCH  19  20
ATOM     20  C   UNL     1       7.006   6.551  18.115  0.00  0.00    +0.000 A 
ATOM     21  C   UNL     1       6.130   6.993  17.121  0.00  0.00    +0.000 A 
ATOM     22  C   UNL     1       4.967   6.271  16.837  0.00  0.00    +0.000 A 
ATOM     23  C   UNL     1       4.683   5.095  17.538  0.00  0.00    +0.000 A 
ATOM     24  C   UNL     1       5.551   4.676  18.550  0.00  0.00    +0.000 A 
ATOM     25  C   UNL     1       6.693   5.409  18.855  0.00  0.00    +0.000 A 
ATOM     26  N   UNL     1       5.271   3.514  19.273  0.00  0.00    +0.000 N 
ATOM     27  C   UNL     1       4.295   2.615  18.927  0.00  0.00    +0.000 C 
ATOM     28  O   UNL     1       4.072   1.625  19.623  0.00  0.00    +0.000 OA
ATOM     29  C   UNL     1       3.629   2.842  17.591  0.00  0.00    +0.000 C 
ATOM     30  C   UNL     1       3.414   4.322  17.314  0.00  0.00    +0.000 C 
ATOM     31  H   UNL     1       5.812   3.278  20.095  0.00  0.00    +0.000 HD
ENDBRANCH  19  20
ENDBRANCH  18  19
ENDBRANCH  17  18
ENDBRANCH   1  17
TORSDOF 9
ENDMDL
