MODEL 1
REMARK VINA RESULT:      -8.2      0.000      0.000
REMARK  Name = 
REMARK  5 active torsions:
REMARK  status: ('A' for Active; 'I' for Inactive)
REMARK    1  A    between atoms: C_2  and  O_3
REMARK    2  A    between atoms: C_2  and  C_4
REMARK    3  A    between atoms: C_9  and  N_10
REMARK    4  A    between atoms: N_10  and  S_11
REMARK    5  A    between atoms: S_11  and  C_14
REMARK                            x       y       z     vdW  Elec       q    Type
REMARK                         _______ _______ _______ _____ _____    ______ ____
ROOT
ATOM      1  N   UNL     1       2.536   3.777  18.170  0.00  0.00    +0.000 N 
ATOM      2  H   UNL     1       1.932   3.509  17.392  0.00  0.00    +0.000 HD
ENDROOT
BRANCH   1   8
ATOM      3  C   UNL     1       1.806   5.021  20.217  0.00  0.00    +0.000 A 
ATOM      4  C   UNL     1       1.603   6.270  20.831  0.00  0.00    +0.000 A 
ATOM      5  C   UNL     1       1.875   7.458  20.150  0.00  0.00    +0.000 A 
ATOM      6  C   UNL     1       2.398   7.412  18.863  0.00  0.00    +0.000 A 
ATOM      7  C   UNL     1       2.628   6.177  18.263  0.00  0.00    +0.000 A 
ATOM      8  C   UNL     1       2.310   4.975  18.909  0.00  0.00    +0.000 A 
BRANCH   3  10
ATOM      9  O   UNL     1       2.204   3.639  22.094  0.00  0.00    +0.000 OA
ATOM     10  C   UNL     1       1.562   3.835  21.074  0.00  0.00    +0.000 C 
BRANCH  10  11
ATOM     11  O   UNL     1       0.563   3.029  20.676  0.00  0.00    +0.000 OA
ATOM     12  H   UNL     1      -0.261   3.481  20.385  0.00  0.00    +0.000 HD
ENDBRANCH  10  11
ENDBRANCH   3  10
ENDBRANCH   1   8
BRANCH   1  13
ATOM     13  S   UNL     1       3.987   2.953  18.324  0.00  0.00    +0.000 S 
ATOM     14  O   UNL     1       4.073   2.447  19.673  0.00  0.00    +0.000 OA
ATOM     15  O   UNL     1       4.015   2.041  17.194  0.00  0.00    +0.000 OA
BRANCH  13  16
ATOM     16  C   UNL     1       5.245   4.155  18.104  0.00  0.00    +0.000 A 
ATOM     17  C   UNL     1       5.834   4.794  19.219  0.00  0.00    +0.000 A 
ATOM     18  C   UNL     1       6.941   5.669  19.107  0.00  0.00    +0.000 A 
ATOM     19  C   UNL     1       7.554   5.974  17.881  0.00  0.00    +0.000 A 
ATOM     20  C   UNL     1       6.991   5.372  16.731  0.00  0.00    +0.000 A 
ATOM     21  N   UNL     1       7.445   5.513  15.477  0.00  0.00    +0.000 NA
ATOM     22  S   UNL     1       6.454   4.599  14.509  0.00  0.00    +0.000 S 
ATOM     23  N   UNL     1       5.430   3.953  15.642  0.00  0.00    +0.000 NA
ATOM     24  C   UNL     1       5.798   4.449  16.837  0.00  0.00    +0.000 A 
ENDBRANCH  13  16
ENDBRANCH   1  13
TORSDOF 5
ENDMDL
MODEL 2
REMARK VINA RESULT:      -8.1      1.537      1.965
REMARK  Name = 
REMARK  5 active torsions:
REMARK  status: ('A' for Active; 'I' for Inactive)
REMARK    1  A    between atoms: C_2  and  O_3
REMARK    2  A    between atoms: C_2  and  C_4
REMARK    3  A    between atoms: C_9  and  N_10
REMARK    4  A    between atoms: N_10  and  S_11
REMARK    5  A    between atoms: S_11  and  C_14
REMARK                            x       y       z     vdW  Elec       q    Type
REMARK                         _______ _______ _______ _____ _____    ______ ____
ROOT
ATOM      1  N   UNL     1       2.471   3.635  18.200  0.00  0.00    +0.000 N 
ATOM      2  H   UNL     1       1.810   3.338  17.482  0.00  0.00    +0.000 HD
ENDROOT
BRANCH   1   8
ATOM      3  C   UNL     1       1.810   4.922  20.244  0.00  0.00    +0.000 A 
ATOM      4  C   UNL     1       1.646   6.183  20.845  0.00  0.00    +0.000 A 
ATOM      5  C   UNL     1       1.930   7.356  20.142  0.00  0.00    +0.000 A 
ATOM      6  C   UNL     1       2.425   7.282  18.845  0.00  0.00    +0.000 A 
ATOM      7  C   UNL     1       2.617   6.034  18.258  0.00  0.00    +0.000 A 
ATOM      8  C   UNL     1       2.285   4.848  18.927  0.00  0.00    +0.000 A 
BRANCH   3  10
ATOM      9  O   UNL     1       2.207   3.563  22.137  0.00  0.00    +0.000 OA
ATOM     10  C   UNL     1       1.558   3.753  21.122  0.00  0.00    +0.000 C 
BRANCH  10  11
ATOM     11  O   UNL     1       0.543   2.956  20.747  0.00  0.00    +0.000 OA
ATOM     12  H   UNL     1      -0.352   3.364  20.768  0.00  0.00    +0.000 HD
ENDBRANCH  10  11
ENDBRANCH   3  10
ENDBRANCH   1   8
BRANCH   1  13
ATOM     13  S   UNL     1       3.944   2.838  18.252  0.00  0.00    +0.000 S 
ATOM     14  O   UNL     1       4.437   2.898  19.606  0.00  0.00    +0.000 OA
ATOM     15  O   UNL     1       3.692   1.555  17.618  0.00  0.00    +0.000 OA
BRANCH  13  16
ATOM     16  C   UNL     1       5.025   3.765  17.229  0.00  0.00    +0.000 A 
ATOM     17  C   UNL     1       4.820   3.825  15.832  0.00  0.00    +0.000 A 
ATOM     18  C   UNL     1       5.577   4.662  14.978  0.00  0.00    +0.000 A 
ATOM     19  C   UNL     1       6.595   5.510  15.446  0.00  0.00    +0.000 A 
ATOM     20  C   UNL     1       6.851   5.476  16.837  0.00  0.00    +0.000 A 
ATOM     21  N   UNL     1       7.757   6.226  17.480  0.00  0.00    +0.000 NA
ATOM     22  S   UNL     1       7.655   5.820  19.086  0.00  0.00    +0.000 S 
ATOM     23  N   UNL     1       6.428   4.703  19.041  0.00  0.00    +0.000 NA
ATOM     24  C   UNL     1       6.060   4.572  17.754  0.00  0.00    +0.000 A 
ENDBRANCH  13  16
ENDBRANCH   1  13
TORSDOF 5
ENDMDL
MODEL 3
REMARK VINA RESULT:      -7.5      1.599      2.192
REMARK  Name = 
REMARK  5 active torsions:
REMARK  status: ('A' for Active; 'I' for Inactive)
REMARK    1  A    between atoms: C_2  and  O_3
REMARK    2  A    between atoms: C_2  and  C_4
REMARK    3  A    between atoms: C_9  and  N_10
REMARK    4  A    between atoms: N_10  and  S_11
REMARK    5  A    between atoms: S_11  and  C_14
REMARK                            x       y       z     vdW  Elec       q    Type
REMARK                         _______ _______ _______ _____ _____    ______ ____
ROOT
ATOM      1  N   UNL     1       2.719   4.248  17.703  0.00  0.00    +0.000 N 
ATOM      2  H   UNL     1       2.353   4.351  16.755  0.00  0.00    +0.000 HD
ENDROOT
BRANCH   1   8
ATOM      3  C   UNL     1       1.471   4.721  19.822  0.00  0.00    +0.000 A 
ATOM      4  C   UNL     1       1.108   5.672  20.792  0.00  0.00    +0.000 A 
ATOM      5  C   UNL     1       1.543   6.996  20.698  0.00  0.00    +0.000 A 
ATOM      6  C   UNL     1       2.385   7.375  19.659  0.00  0.00    +0.000 A 
ATOM      7  C   UNL     1       2.772   6.428  18.714  0.00  0.00    +0.000 A 
ATOM      8  C   UNL     1       2.301   5.109  18.759  0.00  0.00    +0.000 A 
BRANCH   3  10
ATOM      9  O   UNL     1       0.724   2.575  19.170  0.00  0.00    +0.000 OA
ATOM     10  C   UNL     1       1.018   3.333  20.080  0.00  0.00    +0.000 C 
BRANCH  10  11
ATOM     11  O   UNL     1       1.000   2.961  21.372  0.00  0.00    +0.000 OA
ATOM     12  H   UNL     1       1.211   3.667  22.023  0.00  0.00    +0.000 HD
ENDBRANCH  10  11
ENDBRANCH   3  10
ENDBRANCH   1   8
BRANCH   1  13
ATOM     13  S   UNL     1       4.067   3.271  17.895  0.00  0.00    +0.000 S 
ATOM     14  O   UNL     1       4.579   3.473  19.228  0.00  0.00    +0.000 OA
ATOM     15  O   UNL     1       3.631   1.953  17.466  0.00  0.00    +0.000 OA
BRANCH  13  16
ATOM     16  C   UNL     1       5.255   3.867  16.750  0.00  0.00    +0.000 A 
ATOM     17  C   UNL     1       5.318   3.343  15.439  0.00  0.00    +0.000 A 
ATOM     18  C   UNL     1       6.163   3.878  14.437  0.00  0.00    +0.000 A 
ATOM     19  C   UNL     1       7.007   4.978  14.656  0.00  0.00    +0.000 A 
ATOM     20  C   UNL     1       6.994   5.530  15.959  0.00  0.00    +0.000 A 
ATOM     21  N   UNL     1       7.703   6.594  16.361  0.00  0.00    +0.000 NA
ATOM     22  S   UNL     1       7.324   6.842  17.958  0.00  0.00    +0.000 S 
ATOM     23  N   UNL     1       6.212   5.633  18.198  0.00  0.00    +0.000 NA
ATOM     24  C   UNL     1       6.108   4.955  17.041  0.00  0.00    +0.000 A 
ENDBRANCH  13  16
ENDBRANCH   1  13
TORSDOF 5
ENDMDL
MODEL 4
REMARK VINA RESULT:      -7.5      2.763      4.010
REMARK  Name = 
REMARK  5 active torsions:
REMARK  status: ('A' for Active; 'I' for Inactive)
REMARK    1  A    between atoms: C_2  and  O_3
REMARK    2  A    between atoms: C_2  and  C_4
REMARK    3  A    between atoms: C_9  and  N_10
REMARK    4  A    between atoms: N_10  and  S_11
REMARK    5  A    between atoms: S_11  and  C_14
REMARK                            x       y       z     vdW  Elec       q    Type
REMARK                         _______ _______ _______ _____ _____    ______ ____
ROOT
ATOM      1  N   UNL     1       2.563   6.643  20.730  0.00  0.00    +0.000 N 
ATOM      2  H   UNL     1       3.144   6.842  21.546  0.00  0.00    +0.000 HD
ENDROOT
BRANCH   1   8
ATOM      3  C   UNL     1       1.167   8.699  20.430  0.00  0.00    +0.000 A 
ATOM      4  C   UNL     1       0.662   9.666  19.541  0.00  0.00    +0.000 A 
ATOM      5  C   UNL     1       0.970   9.620  18.180  0.00  0.00    +0.000 A 
ATOM      6  C   UNL     1       1.824   8.635  17.697  0.00  0.00    +0.000 A 
ATOM      7  C   UNL     1       2.350   7.695  18.579  0.00  0.00    +0.000 A 
ATOM      8  C   UNL     1       2.008   7.691  19.939  0.00  0.00    +0.000 A 
BRANCH   3  10
ATOM      9  O   UNL     1      -0.308   8.826  22.273  0.00  0.00    +0.000 OA
ATOM     10  C   UNL     1       0.837   8.908  21.861  0.00  0.00    +0.000 C 
BRANCH  10  11
ATOM     11  O   UNL     1       1.886   9.142  22.668  0.00  0.00    +0.000 OA
ATOM     12  H   UNL     1       2.237   8.361  23.152  0.00  0.00    +0.000 HD
ENDBRANCH  10  11
ENDBRANCH   3  10
ENDBRANCH   1   8
BRANCH   1  13
ATOM     13  S   UNL     1       2.005   5.072  20.560  0.00  0.00    +0.000 S 
ATOM     14  O   UNL     1       2.402   4.327  21.730  0.00  0.00    +0.000 OA
ATOM     15  O   UNL     1       0.600   5.215  20.221  0.00  0.00    +0.000 OA
BRANCH  13  16
ATOM     16  C   UNL     1       2.851   4.412  19.173  0.00  0.00    +0.000 A 
ATOM     17  C   UNL     1       2.151   3.695  18.176  0.00  0.00    +0.000 A 
ATOM     18  C   UNL     1       2.757   3.259  16.974  0.00  0.00    +0.000 A 
ATOM     19  C   UNL     1       4.105   3.505  16.664  0.00  0.00    +0.000 A 
ATOM     20  C   UNL     1       4.855   4.207  17.637  0.00  0.00    +0.000 A 
ATOM     21  N   UNL     1       6.142   4.562  17.521  0.00  0.00    +0.000 NA
ATOM     22  S   UNL     1       6.540   5.369  18.916  0.00  0.00    +0.000 S 
ATOM     23  N   UNL     1       5.085   5.336  19.713  0.00  0.00    +0.000 NA
ATOM     24  C   UNL     1       4.221   4.662  18.933  0.00  0.00    +0.000 A 
ENDBRANCH  13  16
ENDBRANCH   1  13
TORSDOF 5
ENDMDL
MODEL 5
REMARK VINA RESULT:      -7.5      2.555      3.357
REMARK  Name = 
REMARK  5 active torsions:
REMARK  status: ('A' for Active; 'I' for Inactive)
REMARK    1  A    between atoms: C_2  and  O_3
REMARK    2  A    between atoms: C_2  and  C_4
REMARK    3  A    between atoms: C_9  and  N_10
REMARK    4  A    between atoms: N_10  and  S_11
REMARK    5  A    between atoms: S_11  and  C_14
REMARK                            x       y       z     vdW  Elec       q    Type
REMARK                         _______ _______ _______ _____ _____    ______ ____
ROOT
ATOM      1  N   UNL     1       3.055   6.191  20.176  0.00  0.00    +0.000 N 
ATOM      2  H   UNL     1       3.368   6.290  21.142  0.00  0.00    +0.000 HD
ENDROOT
BRANCH   1   8
ATOM      3  C   UNL     1       1.578   8.199  19.939  0.00  0.00    +0.000 A 
ATOM      4  C   UNL     1       1.123   9.240  19.110  0.00  0.00    +0.000 A 
ATOM      5  C   UNL     1       1.592   9.373  17.801  0.00  0.00    +0.000 A 
ATOM      6  C   UNL     1       2.557   8.495  17.320  0.00  0.00    +0.000 A 
ATOM      7  C   UNL     1       3.032   7.482  18.149  0.00  0.00    +0.000 A 
ATOM      8  C   UNL     1       2.533   7.298  19.446  0.00  0.00    +0.000 A 
BRANCH   3  10
ATOM      9  O   UNL     1      -0.081   7.911  21.598  0.00  0.00    +0.000 OA
ATOM     10  C   UNL     1       1.070   8.217  21.332  0.00  0.00    +0.000 C 
BRANCH  10  11
ATOM     11  O   UNL     1       1.972   8.545  22.273  0.00  0.00    +0.000 OA
ATOM     12  H   UNL     1       1.669   9.193  22.949  0.00  0.00    +0.000 HD
ENDBRANCH  10  11
ENDBRANCH   3  10
ENDBRANCH   1   8
BRANCH   1  13
ATOM     13  S   UNL     1       2.853   4.630  19.600  0.00  0.00    +0.000 S 
ATOM     14  O   UNL     1       3.113   3.716  20.684  0.00  0.00    +0.000 OA
ATOM     15  O   UNL     1       1.556   4.644  18.944  0.00  0.00    +0.000 OA
BRANCH  13  16
ATOM     16  C   UNL     1       4.093   4.407  18.380  0.00  0.00    +0.000 A 
ATOM     17  C   UNL     1       3.756   3.958  17.083  0.00  0.00    +0.000 A 
ATOM     18  C   UNL     1       4.694   3.890  16.025  0.00  0.00    +0.000 A 
ATOM     19  C   UNL     1       6.038   4.268  16.169  0.00  0.00    +0.000 A 
ATOM     20  C   UNL     1       6.431   4.711  17.454  0.00  0.00    +0.000 A 
ATOM     21  N   UNL     1       7.657   5.140  17.789  0.00  0.00    +0.000 NA
ATOM     22  S   UNL     1       7.592   5.555  19.394  0.00  0.00    +0.000 S 
ATOM     23  N   UNL     1       5.996   5.246  19.726  0.00  0.00    +0.000 NA
ATOM     24  C   UNL     1       5.442   4.771  18.596  0.00  0.00    +0.000 A 
ENDBRANCH  13  16
ENDBRANCH   1  13
TORSDOF 5
ENDMDL
MODEL 6
REMARK VINA RESULT:      -7.4      1.659      2.200
REMARK  Name = 
REMARK  5 active torsions:
REMARK  status: ('A' for Active; 'I' for Inactive)
REMARK    1  A    between atoms: C_2  and  O_3
REMARK    2  A    between atoms: C_2  and  C_4
REMARK    3  A    between atoms: C_9  and  N_10
REMARK    4  A    between atoms: N_10  and  S_11
REMARK    5  A    between atoms: S_11  and  C_14
REMARK                            x       y       z     vdW  Elec       q    Type
REMARK                         _______ _______ _______ _____ _____    ______ ____
ROOT
ATOM      1  N   UNL     1       4.016   3.955  19.192  0.00  0.00    +0.000 N 
ATOM      2  H   UNL     1       4.712   3.521  19.800  0.00  0.00    +0.000 HD
ENDROOT
BRANCH   1   8
ATOM      3  C   UNL     1       2.083   4.702  20.597  0.00  0.00    +0.000 A 
ATOM      4  C   UNL     1       1.244   5.762  20.986  0.00  0.00    +0.000 A 
ATOM      5  C   UNL     1       1.413   7.043  20.456  0.00  0.00    +0.000 A 
ATOM      6  C   UNL     1       2.453   7.291  19.567  0.00  0.00    +0.000 A 
ATOM      7  C   UNL     1       3.304   6.251  19.204  0.00  0.00    +0.000 A 
ATOM      8  C   UNL     1       3.116   4.947  19.682  0.00  0.00    +0.000 A 
BRANCH   3  10
ATOM      9  O   UNL     1       2.685   2.942  22.057  0.00  0.00    +0.000 OA
ATOM     10  C   UNL     1       1.856   3.413  21.295  0.00  0.00    +0.000 C 
BRANCH  10  11
ATOM     11  O   UNL     1       0.664   2.834  21.069  0.00  0.00    +0.000 OA
ATOM     12  H   UNL     1       0.694   1.905  20.747  0.00  0.00    +0.000 HD
ENDBRANCH  10  11
ENDBRANCH   3  10
ENDBRANCH   1   8
BRANCH   1  13
ATOM     13  S   UNL     1       3.739   3.222  17.710  0.00  0.00    +0.000 S 
ATOM     14  O   UNL     1       3.960   1.806  17.864  0.00  0.00    +0.000 OA
ATOM     15  O   UNL     1       2.442   3.724  17.288  0.00  0.00    +0.000 OA
BRANCH  13  16
ATOM     16  C   UNL     1       4.963   3.859  16.627  0.00  0.00    +0.000 A 
ATOM     17  C   UNL     1       4.901   3.600  15.239  0.00  0.00    +0.000 A 
ATOM     18  C   UNL     1       5.782   4.198  14.306  0.00  0.00    +0.000 A 
ATOM     19  C   UNL     1       6.790   5.102  14.677  0.00  0.00    +0.000 A 
ATOM     20  C   UNL     1       6.904   5.382  16.059  0.00  0.00    +0.000 A 
ATOM     21  N   UNL     1       7.780   6.235  16.611  0.00  0.00    +0.000 NA
ATOM     22  S   UNL     1       7.497   6.213  18.246  0.00  0.00    +0.000 S 
ATOM     23  N   UNL     1       6.225   5.151  18.322  0.00  0.00    +0.000 NA
ATOM     24  C   UNL     1       5.980   4.736  17.066  0.00  0.00    +0.000 A 
ENDBRANCH  13  16
ENDBRANCH   1  13
TORSDOF 5
ENDMDL
MODEL 7
REMARK VINA RESULT:      -7.3      2.736      5.955
REMARK  Name = 
REMARK  5 active torsions:
REMARK  status: ('A' for Active; 'I' for Inactive)
REMARK    1  A    between atoms: C_2  and  O_3
REMARK    2  A    between atoms: C_2  and  C_4
REMARK    3  A    between atoms: C_9  and  N_10
REMARK    4  A    between atoms: N_10  and  S_11
REMARK    5  A    between atoms: S_11  and  C_14
REMARK                            x       y       z     vdW  Elec       q    Type
REMARK                         _______ _______ _______ _____ _____    ______ ____
ROOT
ATOM      1  N   UNL     1       4.709   3.466  17.145  0.00  0.00    +0.000 N 
ATOM      2  H   UNL     1       5.035   2.829  17.873  0.00  0.00    +0.000 HD
ENDROOT
BRANCH   1   8
ATOM      3  C   UNL     1       6.685   4.767  16.327  0.00  0.00    +0.000 A 
ATOM      4  C   UNL     1       7.455   5.178  15.224  0.00  0.00    +0.000 A 
ATOM      5  C   UNL     1       7.121   4.782  13.928  0.00  0.00    +0.000 A 
ATOM      6  C   UNL     1       6.041   3.933  13.722  0.00  0.00    +0.000 A 
ATOM      7  C   UNL     1       5.294   3.499  14.814  0.00  0.00    +0.000 A 
ATOM      8  C   UNL     1       5.580   3.930  16.117  0.00  0.00    +0.000 A 
BRANCH   3  10
ATOM      9  O   UNL     1       7.620   6.309  17.856  0.00  0.00    +0.000 OA
ATOM     10  C   UNL     1       7.192   5.184  17.657  0.00  0.00    +0.000 C 
BRANCH  10  11
ATOM     11  O   UNL     1       7.103   4.257  18.627  0.00  0.00    +0.000 OA
ATOM     12  H   UNL     1       6.259   3.753  18.661  0.00  0.00    +0.000 HD
ENDBRANCH  10  11
ENDBRANCH   3  10
ENDBRANCH   1   8
BRANCH   1  13
ATOM     13  S   UNL     1       3.227   4.210  17.396  0.00  0.00    +0.000 S 
ATOM     14  O   UNL     1       3.427   5.637  17.326  0.00  0.00    +0.000 OA
ATOM     15  O   UNL     1       2.321   3.547  16.474  0.00  0.00    +0.000 OA
BRANCH  13  16
ATOM     16  C   UNL     1       2.758   3.798  19.035  0.00  0.00    +0.000 A 
ATOM     17  C   UNL     1       1.510   4.213  19.552  0.00  0.00    +0.000 A 
ATOM     18  C   UNL     1       1.024   3.796  20.815  0.00  0.00    +0.000 A 
ATOM     19  C   UNL     1       1.737   2.931  21.661  0.00  0.00    +0.000 A 
ATOM     20  C   UNL     1       3.001   2.499  21.195  0.00  0.00    +0.000 A 
ATOM     21  N   UNL     1       3.820   1.654  21.838  0.00  0.00    +0.000 NA
ATOM     22  S   UNL     1       5.156   1.462  20.872  0.00  0.00    +0.000 S 
ATOM     23  N   UNL     1       4.737   2.412  19.578  0.00  0.00    +0.000 NA
ATOM     24  C   UNL     1       3.537   2.952  19.856  0.00  0.00    +0.000 A 
ENDBRANCH  13  16
ENDBRANCH   1  13
TORSDOF 5
ENDMDL
MODEL 8
REMARK VINA RESULT:      -7.3      3.314      6.133
REMARK  Name = 
REMARK  5 active torsions:
REMARK  status: ('A' for Active; 'I' for Inactive)
REMARK    1  A    between atoms: C_2  and  O_3
REMARK    2  A    between atoms: C_2  and  C_4
REMARK    3  A    between atoms: C_9  and  N_10
REMARK    4  A    between atoms: N_10  and  S_11
REMARK    5  A    between atoms: S_11  and  C_14
REMARK                            x       y       z     vdW  Elec       q    Type
REMARK                         _______ _______ _______ _____ _____    ______ ____
ROOT
ATOM      1  N   UNL     1       4.115   5.900  18.976  0.00  0.00    +0.000 N 
ATOM      2  H   UNL     1       4.738   6.360  19.641  0.00  0.00    +0.000 HD
ENDROOT
BRANCH   1   8
ATOM      3  C   UNL     1       4.785   4.097  17.374  0.00  0.00    +0.000 A 
ATOM      4  C   UNL     1       5.277   3.773  16.096  0.00  0.00    +0.000 A 
ATOM      5  C   UNL     1       5.586   4.773  15.172  0.00  0.00    +0.000 A 
ATOM      6  C   UNL     1       5.364   6.106  15.496  0.00  0.00    +0.000 A 
ATOM      7  C   UNL     1       4.848   6.428  16.748  0.00  0.00    +0.000 A 
ATOM      8  C   UNL     1       4.584   5.443  17.710  0.00  0.00    +0.000 A 
BRANCH   3  10
ATOM      9  O   UNL     1       3.575   2.130  17.881  0.00  0.00    +0.000 OA
ATOM     10  C   UNL     1       4.414   2.944  18.231  0.00  0.00    +0.000 C 
BRANCH  10  11
ATOM     11  O   UNL     1       5.096   2.837  19.384  0.00  0.00    +0.000 OA
ATOM     12  H   UNL     1       5.104   3.640  19.952  0.00  0.00    +0.000 HD
ENDBRANCH  10  11
ENDBRANCH   3  10
ENDBRANCH   1   8
BRANCH   1  13
ATOM     13  S   UNL     1       2.469   6.012  19.275  0.00  0.00    +0.000 S 
ATOM     14  O   UNL     1       1.775   5.319  18.218  0.00  0.00    +0.000 OA
ATOM     15  O   UNL     1       2.316   5.591  20.657  0.00  0.00    +0.000 OA
BRANCH  13  16
ATOM     16  C   UNL     1       2.079   7.719  19.164  0.00  0.00    +0.000 A 
ATOM     17  C   UNL     1       2.280   8.427  17.958  0.00  0.00    +0.000 A 
ATOM     18  C   UNL     1       1.859   9.766  17.773  0.00  0.00    +0.000 A 
ATOM     19  C   UNL     1       1.201  10.505  18.769  0.00  0.00    +0.000 A 
ATOM     20  C   UNL     1       0.990   9.846  20.003  0.00  0.00    +0.000 A 
ATOM     21  N   UNL     1       0.359  10.366  21.066  0.00  0.00    +0.000 NA
ATOM     22  S   UNL     1       0.365   9.195  22.242  0.00  0.00    +0.000 S 
ATOM     23  N   UNL     1       1.133   7.962  21.441  0.00  0.00    +0.000 NA
ATOM     24  C   UNL     1       1.451   8.422  20.217  0.00  0.00    +0.000 A 
ENDBRANCH  13  16
ENDBRANCH   1  13
TORSDOF 5
ENDMDL
MODEL 9
REMARK VINA RESULT:      -7.2      3.623      6.163
REMARK  Name = 
REMARK  5 active torsions:
REMARK  status: ('A' for Active; 'I' for Inactive)
REMARK    1  A    between atoms: C_2  and  O_3
REMARK    2  A    between atoms: C_2  and  C_4
REMARK    3  A    between atoms: C_9  and  N_10
REMARK    4  A    between atoms: N_10  and  S_11
REMARK    5  A    between atoms: S_11  and  C_14
REMARK                            x       y       z     vdW  Elec       q    Type
REMARK                         _______ _______ _______ _____ _____    ______ ____
ROOT
ATOM      1  N   UNL     1       3.178   6.231  19.884  0.00  0.00    +0.000 N 
ATOM      2  H   UNL     1       3.789   6.780  20.489  0.00  0.00    +0.000 HD
ENDROOT
BRANCH   1   8
ATOM      3  C   UNL     1       3.711   3.796  19.646  0.00  0.00    +0.000 A 
ATOM      4  C   UNL     1       3.345   2.471  19.944  0.00  0.00    +0.000 A 
ATOM      5  C   UNL     1       2.205   2.194  20.700  0.00  0.00    +0.000 A 
ATOM      6  C   UNL     1       1.441   3.239  21.207  0.00  0.00    +0.000 A 
ATOM      7  C   UNL     1       1.818   4.553  20.939  0.00  0.00    +0.000 A 
ATOM      8  C   UNL     1       2.927   4.850  20.136  0.00  0.00    +0.000 A 
BRANCH   3  10
ATOM      9  O   UNL     1       5.920   4.595  19.377  0.00  0.00    +0.000 OA
ATOM     10  C   UNL     1       4.988   3.960  18.910  0.00  0.00    +0.000 C 
BRANCH  10  11
ATOM     11  O   UNL     1       5.061   3.326  17.727  0.00  0.00    +0.000 OA
ATOM     12  H   UNL     1       4.202   3.037  17.343  0.00  0.00    +0.000 HD
ENDBRANCH  10  11
ENDBRANCH   3  10
ENDBRANCH   1   8
BRANCH   1  13
ATOM     13  S   UNL     1       2.763   6.907  18.408  0.00  0.00    +0.000 S 
ATOM     14  O   UNL     1       3.972   7.086  17.643  0.00  0.00    +0.000 OA
ATOM     15  O   UNL     1       1.692   6.065  17.904  0.00  0.00    +0.000 OA
BRANCH  13  16
ATOM     16  C   UNL     1       2.103   8.490  18.776  0.00  0.00    +0.000 A 
ATOM     17  C   UNL     1       2.232   9.556  17.857  0.00  0.00    +0.000 A 
ATOM     18  C   UNL     1       1.604  10.811  18.043  0.00  0.00    +0.000 A 
ATOM     19  C   UNL     1       0.796  11.105  19.153  0.00  0.00    +0.000 A 
ATOM     20  C   UNL     1       0.648  10.075  20.112  0.00  0.00    +0.000 A 
ATOM     21  N   UNL     1      -0.099  10.147  21.223  0.00  0.00    +0.000 NA
ATOM     22  S   UNL     1       0.052   8.685  21.992  0.00  0.00    +0.000 S 
ATOM     23  N   UNL     1       1.043   7.882  20.931  0.00  0.00    +0.000 NA
ATOM     24  C   UNL     1       1.328   8.737  19.932  0.00  0.00    +0.000 A 
ENDBRANCH  13  16
ENDBRANCH   1  13
TORSDOF 5
ENDMDL
