MODEL 1
REMARK VINA RESULT:      -8.1      0.000      0.000
REMARK  Name = 
REMARK  3 active torsions:
REMARK  status: ('A' for Active; 'I' for Inactive)
REMARK    1  A    between atoms: C_1  and  C_2
REMARK    2  A    between atoms: C_6  and  C_7
REMARK    3  A    between atoms: C_7  and  N_8
REMARK                            x       y       z     vdW  Elec       q    Type
REMARK                         _______ _______ _______ _____ _____    ______ ____
ROOT
ATOM      1  N   UNL     1       3.151   5.834  18.439  0.00  0.00    +0.000 N 
ATOM      2  C   UNL     1       2.579   4.770  19.186  0.00  0.00    +0.000 A 
ATOM      3  C   UNL     1       1.207   4.676  19.491  0.00  0.00    +0.000 A 
ATOM      4  C   UNL     1       0.686   3.607  20.232  0.00  0.00    +0.000 A 
ATOM      5  C   UNL     1       1.522   2.607  20.708  0.00  0.00    +0.000 A 
ATOM      6  C   UNL     1       2.885   2.678  20.441  0.00  0.00    +0.000 A 
ATOM      7  C   UNL     1       3.400   3.746  19.690  0.00  0.00    +0.000 A 
ATOM      8  C   UNL     1       4.851   3.780  19.418  0.00  0.00    +0.000 A 
ATOM      9  O   UNL     1       5.587   2.896  19.847  0.00  0.00    +0.000 OA
ATOM     10  C   UNL     1       5.401   4.897  18.625  0.00  0.00    +0.000 A 
ATOM     11  C   UNL     1       6.776   4.900  18.340  0.00  0.00    +0.000 A 
ATOM     12  C   UNL     1       7.330   5.937  17.601  0.00  0.00    +0.000 A 
ATOM     13  C   UNL     1       6.517   6.981  17.179  0.00  0.00    +0.000 A 
ATOM     14  C   UNL     1       5.146   6.978  17.477  0.00  0.00    +0.000 A 
ATOM     15  C   UNL     1       4.541   5.917  18.176  0.00  0.00    +0.000 A 
ENDROOT
BRANCH   1  16
ATOM     16  C   UNL     1       2.243   6.791  17.769  0.00  0.00    +0.000 C 
BRANCH  16  22
ATOM     17  C   UNL     1       1.073   9.026  22.180  0.00  0.00    +0.000 C 
ATOM     18  C   UNL     1       1.285   9.119  20.699  0.00  0.00    +0.000 A 
ATOM     19  C   UNL     1       0.981  10.288  19.999  0.00  0.00    +0.000 A 
ATOM     20  C   UNL     1       1.137  10.340  18.615  0.00  0.00    +0.000 A 
ATOM     21  C   UNL     1       1.573   9.211  17.919  0.00  0.00    +0.000 A 
ATOM     22  C   UNL     1       1.875   8.016  18.594  0.00  0.00    +0.000 A 
ATOM     23  C   UNL     1       1.749   7.998  19.993  0.00  0.00    +0.000 A 
ENDBRANCH  16  22
ENDBRANCH   1  16
TORSDOF 2
ENDMDL
MODEL 2
REMARK VINA RESULT:      -8.0      0.921      3.840
REMARK  Name = 
REMARK  3 active torsions:
REMARK  status: ('A' for Active; 'I' for Inactive)
REMARK    1  A    between atoms: C_1  and  C_2
REMARK    2  A    between atoms: C_6  and  C_7
REMARK    3  A    between atoms: C_7  and  N_8
REMARK                            x       y       z     vdW  Elec       q    Type
REMARK                         _______ _______ _______ _____ _____    ______ ____
ROOT
ATOM      1  N   UNL     1       3.614   5.770  17.755  0.00  0.00    +0.000 N 
ATOM      2  C   UNL     1       4.997   5.882  18.057  0.00  0.00    +0.000 A 
ATOM      3  C   UNL     1       5.810   6.948  17.625  0.00  0.00    +0.000 A 
ATOM      4  C   UNL     1       7.172   7.017  17.947  0.00  0.00    +0.000 A 
ATOM      5  C   UNL     1       7.770   6.013  18.697  0.00  0.00    +0.000 A 
ATOM      6  C   UNL     1       7.001   4.937  19.125  0.00  0.00    +0.000 A 
ATOM      7  C   UNL     1       5.635   4.877  18.808  0.00  0.00    +0.000 A 
ATOM      8  C   UNL     1       4.849   3.724  19.290  0.00  0.00    +0.000 A 
ATOM      9  O   UNL     1       5.384   2.835  19.947  0.00  0.00    +0.000 OA
ATOM     10  C   UNL     1       3.410   3.656  18.965  0.00  0.00    +0.000 A 
ATOM     11  C   UNL     1       2.665   2.574  19.460  0.00  0.00    +0.000 A 
ATOM     12  C   UNL     1       1.310   2.473  19.171  0.00  0.00    +0.000 A 
ATOM     13  C   UNL     1       0.715   3.433  18.362  0.00  0.00    +0.000 A 
ATOM     14  C   UNL     1       1.468   4.505  17.861  0.00  0.00    +0.000 A 
ATOM     15  C   UNL     1       2.830   4.669  18.178  0.00  0.00    +0.000 A 
ENDROOT
BRANCH   1  16
ATOM     16  C   UNL     1       2.935   6.926  17.128  0.00  0.00    +0.000 C 
BRANCH  16  22
ATOM     17  C   UNL     1       1.145   8.171  21.718  0.00  0.00    +0.000 C 
ATOM     18  C   UNL     1       1.437   8.550  20.296  0.00  0.00    +0.000 A 
ATOM     19  C   UNL     1       1.002   9.767  19.770  0.00  0.00    +0.000 A 
ATOM     20  C   UNL     1       1.238  10.080  18.433  0.00  0.00    +0.000 A 
ATOM     21  C   UNL     1       1.889   9.162  17.605  0.00  0.00    +0.000 A 
ATOM     22  C   UNL     1       2.328   7.924  18.103  0.00  0.00    +0.000 A 
ATOM     23  C   UNL     1       2.115   7.645  19.463  0.00  0.00    +0.000 A 
ENDBRANCH  16  22
ENDBRANCH   1  16
TORSDOF 2
ENDMDL
MODEL 3
REMARK VINA RESULT:      -7.8      1.746      4.920
REMARK  Name = 
REMARK  3 active torsions:
REMARK  status: ('A' for Active; 'I' for Inactive)
REMARK    1  A    between atoms: C_1  and  C_2
REMARK    2  A    between atoms: C_6  and  C_7
REMARK    3  A    between atoms: C_7  and  N_8
REMARK                            x       y       z     vdW  Elec       q    Type
REMARK                         _______ _______ _______ _____ _____    ______ ____
ROOT
ATOM      1  N   UNL     1       3.261   5.914  18.340  0.00  0.00    +0.000 N 
ATOM      2  C   UNL     1       3.040   4.887  19.295  0.00  0.00    +0.000 A 
ATOM      3  C   UNL     1       3.595   3.596  19.199  0.00  0.00    +0.000 A 
ATOM      4  C   UNL     1       3.350   2.612  20.166  0.00  0.00    +0.000 A 
ATOM      5  C   UNL     1       2.528   2.881  21.252  0.00  0.00    +0.000 A 
ATOM      6  C   UNL     1       1.949   4.139  21.368  0.00  0.00    +0.000 A 
ATOM      7  C   UNL     1       2.206   5.124  20.402  0.00  0.00    +0.000 A 
ATOM      8  C   UNL     1       1.581   6.452  20.567  0.00  0.00    +0.000 A 
ATOM      9  O   UNL     1       0.849   6.683  21.525  0.00  0.00    +0.000 OA
ATOM     10  C   UNL     1       1.849   7.496  19.557  0.00  0.00    +0.000 A 
ATOM     11  C   UNL     1       1.281   8.766  19.744  0.00  0.00    +0.000 A 
ATOM     12  C   UNL     1       1.507   9.772  18.813  0.00  0.00    +0.000 A 
ATOM     13  C   UNL     1       2.269   9.495  17.686  0.00  0.00    +0.000 A 
ATOM     14  C   UNL     1       2.824   8.221  17.499  0.00  0.00    +0.000 A 
ATOM     15  C   UNL     1       2.662   7.194  18.448  0.00  0.00    +0.000 A 
ENDROOT
BRANCH   1  16
ATOM     16  C   UNL     1       4.284   5.695  17.294  0.00  0.00    +0.000 C 
BRANCH  16  22
ATOM     17  C   UNL     1       8.427   5.353  20.217  0.00  0.00    +0.000 C 
ATOM     18  C   UNL     1       7.697   5.999  19.077  0.00  0.00    +0.000 A 
ATOM     19  C   UNL     1       8.211   7.129  18.440  0.00  0.00    +0.000 A 
ATOM     20  C   UNL     1       7.495   7.746  17.416  0.00  0.00    +0.000 A 
ATOM     21  C   UNL     1       6.244   7.250  17.042  0.00  0.00    +0.000 A 
ATOM     22  C   UNL     1       5.695   6.122  17.673  0.00  0.00    +0.000 A 
ATOM     23  C   UNL     1       6.451   5.492  18.676  0.00  0.00    +0.000 A 
ENDBRANCH  16  22
ENDBRANCH   1  16
TORSDOF 2
ENDMDL
MODEL 4
REMARK VINA RESULT:      -7.8      0.982      4.061
REMARK  Name = 
REMARK  3 active torsions:
REMARK  status: ('A' for Active; 'I' for Inactive)
REMARK    1  A    between atoms: C_1  and  C_2
REMARK    2  A    between atoms: C_6  and  C_7
REMARK    3  A    between atoms: C_7  and  N_8
REMARK                            x       y       z     vdW  Elec       q    Type
REMARK                         _______ _______ _______ _____ _____    ______ ____
ROOT
ATOM      1  N   UNL     1       3.608   5.829  17.769  0.00  0.00    +0.000 N 
ATOM      2  C   UNL     1       4.999   5.935  18.029  0.00  0.00    +0.000 A 
ATOM      3  C   UNL     1       5.789   7.033  17.633  0.00  0.00    +0.000 A 
ATOM      4  C   UNL     1       7.161   7.096  17.911  0.00  0.00    +0.000 A 
ATOM      5  C   UNL     1       7.792   6.055  18.579  0.00  0.00    +0.000 A 
ATOM      6  C   UNL     1       7.047   4.949  18.969  0.00  0.00    +0.000 A 
ATOM      7  C   UNL     1       5.671   4.895  18.696  0.00  0.00    +0.000 A 
ATOM      8  C   UNL     1       4.911   3.707  19.135  0.00  0.00    +0.000 A 
ATOM      9  O   UNL     1       5.476   2.787  19.720  0.00  0.00    +0.000 OA
ATOM     10  C   UNL     1       3.463   3.645  18.857  0.00  0.00    +0.000 A 
ATOM     11  C   UNL     1       2.743   2.528  19.312  0.00  0.00    +0.000 A 
ATOM     12  C   UNL     1       1.380   2.432  19.065  0.00  0.00    +0.000 A 
ATOM     13  C   UNL     1       0.750   3.432  18.336  0.00  0.00    +0.000 A 
ATOM     14  C   UNL     1       1.476   4.539  17.873  0.00  0.00    +0.000 A 
ATOM     15  C   UNL     1       2.847   4.697  18.152  0.00  0.00    +0.000 A 
ENDROOT
BRANCH   1  16
ATOM     16  C   UNL     1       2.899   7.013  17.235  0.00  0.00    +0.000 C 
BRANCH  16  22
ATOM     17  C   UNL     1       0.457  11.233  18.666  0.00  0.00    +0.000 C 
ATOM     18  C   UNL     1       1.011   9.881  19.004  0.00  0.00    +0.000 A 
ATOM     19  C   UNL     1       1.037   9.421  20.321  0.00  0.00    +0.000 A 
ATOM     20  C   UNL     1       1.602   8.184  20.623  0.00  0.00    +0.000 A 
ATOM     21  C   UNL     1       2.170   7.410  19.609  0.00  0.00    +0.000 A 
ATOM     22  C   UNL     1       2.171   7.852  18.275  0.00  0.00    +0.000 A 
ATOM     23  C   UNL     1       1.561   9.084  17.987  0.00  0.00    +0.000 A 
ENDBRANCH  16  22
ENDBRANCH   1  16
TORSDOF 2
ENDMDL
MODEL 5
REMARK VINA RESULT:      -7.6      1.672      4.119
REMARK  Name = 
REMARK  3 active torsions:
REMARK  status: ('A' for Active; 'I' for Inactive)
REMARK    1  A    between atoms: C_1  and  C_2
REMARK    2  A    between atoms: C_6  and  C_7
REMARK    3  A    between atoms: C_7  and  N_8
REMARK                            x       y       z     vdW  Elec       q    Type
REMARK                         _______ _______ _______ _____ _____    ______ ____
ROOT
ATOM      1  N   UNL     1       3.357   5.671  18.757  0.00  0.00    +0.000 N 
ATOM      2  C   UNL     1       4.103   5.463  17.567  0.00  0.00    +0.000 A 
ATOM      3  C   UNL     1       4.832   6.476  16.913  0.00  0.00    +0.000 A 
ATOM      4  C   UNL     1       5.555   6.227  15.739  0.00  0.00    +0.000 A 
ATOM      5  C   UNL     1       5.559   4.960  15.171  0.00  0.00    +0.000 A 
ATOM      6  C   UNL     1       4.837   3.941  15.781  0.00  0.00    +0.000 A 
ATOM      7  C   UNL     1       4.122   4.194  16.962  0.00  0.00    +0.000 A 
ATOM      8  C   UNL     1       3.375   3.083  17.585  0.00  0.00    +0.000 A 
ATOM      9  O   UNL     1       3.377   1.966  17.074  0.00  0.00    +0.000 OA
ATOM     10  C   UNL     1       2.624   3.339  18.830  0.00  0.00    +0.000 A 
ATOM     11  C   UNL     1       1.949   2.267  19.435  0.00  0.00    +0.000 A 
ATOM     12  C   UNL     1       1.228   2.471  20.604  0.00  0.00    +0.000 A 
ATOM     13  C   UNL     1       1.156   3.748  21.144  0.00  0.00    +0.000 A 
ATOM     14  C   UNL     1       1.823   4.818  20.529  0.00  0.00    +0.000 A 
ATOM     15  C   UNL     1       2.608   4.638  19.374  0.00  0.00    +0.000 A 
ENDROOT
BRANCH   1  16
ATOM     16  C   UNL     1       3.507   6.960  19.467  0.00  0.00    +0.000 C 
BRANCH  16  22
ATOM     17  C   UNL     1      -0.406   9.776  21.074  0.00  0.00    +0.000 C 
ATOM     18  C   UNL     1       0.486   9.316  19.959  0.00  0.00    +0.000 A 
ATOM     19  C   UNL     1       0.214   9.653  18.633  0.00  0.00    +0.000 A 
ATOM     20  C   UNL     1       1.025   9.174  17.605  0.00  0.00    +0.000 A 
ATOM     21  C   UNL     1       2.099   8.331  17.898  0.00  0.00    +0.000 A 
ATOM     22  C   UNL     1       2.390   7.965  19.223  0.00  0.00    +0.000 A 
ATOM     23  C   UNL     1       1.584   8.490  20.246  0.00  0.00    +0.000 A 
ENDBRANCH  16  22
ENDBRANCH   1  16
TORSDOF 2
ENDMDL
MODEL 6
REMARK VINA RESULT:      -7.6      1.735      4.830
REMARK  Name = 
REMARK  3 active torsions:
REMARK  status: ('A' for Active; 'I' for Inactive)
REMARK    1  A    between atoms: C_1  and  C_2
REMARK    2  A    between atoms: C_6  and  C_7
REMARK    3  A    between atoms: C_7  and  N_8
REMARK                            x       y       z     vdW  Elec       q    Type
REMARK                         _______ _______ _______ _____ _____    ______ ____
ROOT
ATOM      1  N   UNL     1       3.466   5.489  17.836  0.00  0.00    +0.000 N 
ATOM      2  C   UNL     1       3.359   4.115  18.179  0.00  0.00    +0.000 A 
ATOM      3  C   UNL     1       4.008   3.080  17.478  0.00  0.00    +0.000 A 
ATOM      4  C   UNL     1       3.873   1.736  17.852  0.00  0.00    +0.000 A 
ATOM      5  C   UNL     1       3.071   1.382  18.928  0.00  0.00    +0.000 A 
ATOM      6  C   UNL     1       2.402   2.377  19.631  0.00  0.00    +0.000 A 
ATOM      7  C   UNL     1       2.548   3.722  19.259  0.00  0.00    +0.000 A 
ATOM      8  C   UNL     1       1.829   4.751  20.037  0.00  0.00    +0.000 A 
ATOM      9  O   UNL     1       1.116   4.431  20.984  0.00  0.00    +0.000 OA
ATOM     10  C   UNL     1       1.980   6.169  19.655  0.00  0.00    +0.000 A 
ATOM     11  C   UNL     1       1.323   7.141  20.425  0.00  0.00    +0.000 A 
ATOM     12  C   UNL     1       1.438   8.485  20.093  0.00  0.00    +0.000 A 
ATOM     13  C   UNL     1       2.179   8.848  18.976  0.00  0.00    +0.000 A 
ATOM     14  C   UNL     1       2.824   7.870  18.203  0.00  0.00    +0.000 A 
ATOM     15  C   UNL     1       2.775   6.505  18.542  0.00  0.00    +0.000 A 
ENDROOT
BRANCH   1  16
ATOM     16  C   UNL     1       4.466   5.885  16.819  0.00  0.00    +0.000 C 
BRANCH  16  22
ATOM     17  C   UNL     1       8.332   5.338  20.072  0.00  0.00    +0.000 C 
ATOM     18  C   UNL     1       7.685   6.086  18.944  0.00  0.00    +0.000 A 
ATOM     19  C   UNL     1       8.212   7.294  18.484  0.00  0.00    +0.000 A 
ATOM     20  C   UNL     1       7.569   8.000  17.469  0.00  0.00    +0.000 A 
ATOM     21  C   UNL     1       6.379   7.514  16.925  0.00  0.00    +0.000 A 
ATOM     22  C   UNL     1       5.818   6.307  17.376  0.00  0.00    +0.000 A 
ATOM     23  C   UNL     1       6.502   5.592  18.372  0.00  0.00    +0.000 A 
ENDBRANCH  16  22
ENDBRANCH   1  16
TORSDOF 2
ENDMDL
MODEL 7
REMARK VINA RESULT:      -7.6      1.785      4.982
REMARK  Name = 
REMARK  3 active torsions:
REMARK  status: ('A' for Active; 'I' for Inactive)
REMARK    1  A    between atoms: C_1  and  C_2
REMARK    2  A    between atoms: C_6  and  C_7
REMARK    3  A    between atoms: C_7  and  N_8
REMARK                            x       y       z     vdW  Elec       q    Type
REMARK                         _______ _______ _______ _____ _____    ______ ____
ROOT
ATOM      1  N   UNL     1       3.378   5.460  18.003  0.00  0.00    +0.000 N 
ATOM      2  C   UNL     1       3.309   4.059  18.222  0.00  0.00    +0.000 A 
ATOM      3  C   UNL     1       3.990   3.109  17.436  0.00  0.00    +0.000 A 
ATOM      4  C   UNL     1       3.893   1.734  17.688  0.00  0.00    +0.000 A 
ATOM      5  C   UNL     1       3.098   1.263  18.724  0.00  0.00    +0.000 A 
ATOM      6  C   UNL     1       2.398   2.172  19.509  0.00  0.00    +0.000 A 
ATOM      7  C   UNL     1       2.506   3.549  19.258  0.00  0.00    +0.000 A 
ATOM      8  C   UNL     1       1.755   4.483  20.120  0.00  0.00    +0.000 A 
ATOM      9  O   UNL     1       1.048   4.060  21.030  0.00  0.00    +0.000 OA
ATOM     10  C   UNL     1       1.867   5.933  19.866  0.00  0.00    +0.000 A 
ATOM     11  C   UNL     1       1.179   6.815  20.715  0.00  0.00    +0.000 A 
ATOM     12  C   UNL     1       1.257   8.185  20.505  0.00  0.00    +0.000 A 
ATOM     13  C   UNL     1       1.991   8.666  19.429  0.00  0.00    +0.000 A 
ATOM     14  C   UNL     1       2.666   7.780  18.577  0.00  0.00    +0.000 A 
ATOM     15  C   UNL     1       2.655   6.389  18.792  0.00  0.00    +0.000 A 
ENDROOT
BRANCH   1  16
ATOM     16  C   UNL     1       4.370   5.973  17.032  0.00  0.00    +0.000 C 
BRANCH  16  22
ATOM     17  C   UNL     1       8.246   9.223  17.516  0.00  0.00    +0.000 C 
ATOM     18  C   UNL     1       7.601   7.917  17.870  0.00  0.00    +0.000 A 
ATOM     19  C   UNL     1       8.281   6.956  18.620  0.00  0.00    +0.000 A 
ATOM     20  C   UNL     1       7.685   5.727  18.896  0.00  0.00    +0.000 A 
ATOM     21  C   UNL     1       6.411   5.442  18.400  0.00  0.00    +0.000 A 
ATOM     22  C   UNL     1       5.707   6.384  17.632  0.00  0.00    +0.000 A 
ATOM     23  C   UNL     1       6.310   7.630  17.398  0.00  0.00    +0.000 A 
ENDBRANCH  16  22
ENDBRANCH   1  16
TORSDOF 2
ENDMDL
MODEL 8
REMARK VINA RESULT:      -7.6      4.116      7.214
REMARK  Name = 
REMARK  3 active torsions:
REMARK  status: ('A' for Active; 'I' for Inactive)
REMARK    1  A    between atoms: C_1  and  C_2
REMARK    2  A    between atoms: C_6  and  C_7
REMARK    3  A    between atoms: C_7  and  N_8
REMARK                            x       y       z     vdW  Elec       q    Type
REMARK                         _______ _______ _______ _____ _____    ______ ____
ROOT
ATOM      1  N   UNL     1      -0.342  11.271  19.528  0.00  0.00    +0.000 N 
ATOM      2  C   UNL     1      -0.911  11.487  20.811  0.00  0.00    +0.000 A 
ATOM      3  C   UNL     1      -1.768  12.563  21.116  0.00  0.00    +0.000 A 
ATOM      4  C   UNL     1      -2.307  12.738  22.398  0.00  0.00    +0.000 A 
ATOM      5  C   UNL     1      -1.993  11.854  23.420  0.00  0.00    +0.000 A 
ATOM      6  C   UNL     1      -1.137  10.791  23.159  0.00  0.00    +0.000 A 
ATOM      7  C   UNL     1      -0.607  10.614  21.871  0.00  0.00    +0.000 A 
ATOM      8  C   UNL     1       0.291   9.467  21.629  0.00  0.00    +0.000 A 
ATOM      9  O   UNL     1       0.571   8.692  22.540  0.00  0.00    +0.000 OA
ATOM     10  C   UNL     1       0.849   9.271  20.277  0.00  0.00    +0.000 A 
ATOM     11  C   UNL     1       1.672   8.156  20.049  0.00  0.00    +0.000 A 
ATOM     12  C   UNL     1       2.218   7.941  18.791  0.00  0.00    +0.000 A 
ATOM     13  C   UNL     1       1.970   8.857  17.777  0.00  0.00    +0.000 A 
ATOM     14  C   UNL     1       1.157   9.976  18.014  0.00  0.00    +0.000 A 
ATOM     15  C   UNL     1       0.542  10.196  19.261  0.00  0.00    +0.000 A 
ENDROOT
BRANCH   1  16
ATOM     16  C   UNL     1      -0.825  12.091  18.396  0.00  0.00    +0.000 C 
BRANCH  16  22
ATOM     17  C   UNL     1      -3.246  10.061  14.415  0.00  0.00    +0.000 C 
ATOM     18  C   UNL     1      -3.285  10.618  15.807  0.00  0.00    +0.000 A 
ATOM     19  C   UNL     1      -4.498  10.846  16.458  0.00  0.00    +0.000 A 
ATOM     20  C   UNL     1      -4.517  11.412  17.732  0.00  0.00    +0.000 A 
ATOM     21  C   UNL     1      -3.320  11.779  18.351  0.00  0.00    +0.000 A 
ATOM     22  C   UNL     1      -2.084  11.574  17.715  0.00  0.00    +0.000 A 
ATOM     23  C   UNL     1      -2.085  10.966  16.449  0.00  0.00    +0.000 A 
ENDBRANCH  16  22
ENDBRANCH   1  16
TORSDOF 2
ENDMDL
MODEL 9
REMARK VINA RESULT:      -7.5      4.098      7.662
REMARK  Name = 
REMARK  3 active torsions:
REMARK  status: ('A' for Active; 'I' for Inactive)
REMARK    1  A    between atoms: C_1  and  C_2
REMARK    2  A    between atoms: C_6  and  C_7
REMARK    3  A    between atoms: C_7  and  N_8
REMARK                            x       y       z     vdW  Elec       q    Type
REMARK                         _______ _______ _______ _____ _____    ______ ____
ROOT
ATOM      1  N   UNL     1      -0.555  10.974  19.459  0.00  0.00    +0.000 N 
ATOM      2  C   UNL     1       0.398   9.948  19.227  0.00  0.00    +0.000 A 
ATOM      3  C   UNL     1       0.879   9.600  17.950  0.00  0.00    +0.000 A 
ATOM      4  C   UNL     1       1.821   8.578  17.767  0.00  0.00    +0.000 A 
ATOM      5  C   UNL     1       2.299   7.859  18.854  0.00  0.00    +0.000 A 
ATOM      6  C   UNL     1       1.832   8.165  20.127  0.00  0.00    +0.000 A 
ATOM      7  C   UNL     1       0.896   9.195  20.306  0.00  0.00    +0.000 A 
ATOM      8  C   UNL     1       0.433   9.497  21.675  0.00  0.00    +0.000 A 
ATOM      9  O   UNL     1       0.855   8.854  22.632  0.00  0.00    +0.000 OA
ATOM     10  C   UNL     1      -0.548  10.583  21.872  0.00  0.00    +0.000 A 
ATOM     11  C   UNL     1      -0.953  10.886  23.182  0.00  0.00    +0.000 A 
ATOM     12  C   UNL     1      -1.877  11.898  23.406  0.00  0.00    +0.000 A 
ATOM     13  C   UNL     1      -2.418  12.577  22.322  0.00  0.00    +0.000 A 
ATOM     14  C   UNL     1      -2.018  12.261  21.015  0.00  0.00    +0.000 A 
ATOM     15  C   UNL     1      -1.043  11.280  20.754  0.00  0.00    +0.000 A 
ENDROOT
BRANCH   1  16
ATOM     16  C   UNL     1      -0.918  11.866  18.335  0.00  0.00    +0.000 C 
BRANCH  16  22
ATOM     17  C   UNL     1      -3.285  10.071  14.212  0.00  0.00    +0.000 C 
ATOM     18  C   UNL     1      -3.352  10.632  15.601  0.00  0.00    +0.000 A 
ATOM     19  C   UNL     1      -4.573  10.977  16.181  0.00  0.00    +0.000 A 
ATOM     20  C   UNL     1      -4.612  11.545  17.454  0.00  0.00    +0.000 A 
ATOM     21  C   UNL     1      -3.424  11.796  18.143  0.00  0.00    +0.000 A 
ATOM     22  C   UNL     1      -2.179  11.471  17.580  0.00  0.00    +0.000 A 
ATOM     23  C   UNL     1      -2.164  10.864  16.314  0.00  0.00    +0.000 A 
ENDBRANCH  16  22
ENDBRANCH   1  16
TORSDOF 2
ENDMDL
