MODEL 1
REMARK VINA RESULT:      -7.7      0.000      0.000
REMARK  Name = 
REMARK  7 active torsions:
REMARK  status: ('A' for Active; 'I' for Inactive)
REMARK    1  A    between atoms: C_1  and  O_2
REMARK    2  A    between atoms: O_2  and  C_3
REMARK    3  A    between atoms: C_8  and  C_9
REMARK    4  A    between atoms: C_19  and  N_20
REMARK    5  A    between atoms: C_21  and  C_23
REMARK    6  A    between atoms: C_26  and  S_27
REMARK    7  A    between atoms: S_27  and  C_28
REMARK                            x       y       z     vdW  Elec       q    Type
REMARK                         _______ _______ _______ _____ _____    ______ ____
ROOT
ATOM      1  C   UNL     1      -0.758  11.617  22.462  0.00  0.00    +0.000 A 
ATOM      2  C   UNL     1      -1.321  12.747  23.077  0.00  0.00    +0.000 A 
ATOM      3  C   UNL     1      -0.932  14.028  22.701  0.00  0.00    +0.000 A 
ATOM      4 CL   UNL     1      -1.630  15.396  23.476  0.00  0.00    +0.000 Cl
ATOM      5  C   UNL     1       0.047  14.205  21.738  0.00  0.00    +0.000 A 
ATOM      6  C   UNL     1       0.655  13.087  21.145  0.00  0.00    +0.000 A 
ATOM      7  C   UNL     1       0.241  11.779  21.474  0.00  0.00    +0.000 A 
ENDROOT
BRANCH   6   8
ATOM      8  C   UNL     1       1.774  13.398  20.214  0.00  0.00    +0.000 C 
ATOM      9  O   UNL     1       1.912  12.669  19.232  0.00  0.00    +0.000 OA
ATOM     10  N   UNL     1       2.619  14.432  20.558  0.00  0.00    +0.000 N 
ATOM     11  C   UNL     1       3.809  14.674  19.851  0.00  0.00    +0.000 A 
ATOM     12  C   UNL     1       3.865  14.642  18.458  0.00  0.00    +0.000 A 
ATOM     13  C   UNL     1       5.096  14.818  17.822  0.00  0.00    +0.000 A 
ATOM     14  C   UNL     1       6.233  14.988  18.598  0.00  0.00    +0.000 A 
ATOM     15 CL   UNL     1       7.779  15.133  17.867  0.00  0.00    +0.000 Cl
ATOM     16  C   UNL     1       6.083  15.034  19.973  0.00  0.00    +0.000 A 
ATOM     17  N   UNL     1       4.888  14.931  20.615  0.00  0.00    +0.000 NA
ATOM     18  H   UNL     1       2.675  14.683  21.541  0.00  0.00    +0.000 HD
ENDBRANCH   6   8
BRANCH   7  19
ATOM     19  N   UNL     1       0.934  10.676  20.899  0.00  0.00    +0.000 N 
ATOM     20  C   UNL     1       0.437   9.910  19.854  0.00  0.00    +0.000 C 
ATOM     21  O   UNL     1      -0.660  10.056  19.329  0.00  0.00    +0.000 OA
ATOM     22  H   UNL     1       1.924  10.651  21.068  0.00  0.00    +0.000 HD
BRANCH  20  23
ATOM     23  C   UNL     1       1.384   8.898  19.275  0.00  0.00    +0.000 A 
ATOM     24  C   UNL     1       1.714   7.775  20.052  0.00  0.00    +0.000 A 
ATOM     25  C   UNL     1       2.577   6.793  19.559  0.00  0.00    +0.000 A 
ATOM     26  C   UNL     1       3.102   6.919  18.271  0.00  0.00    +0.000 A 
ATOM     27  C   UNL     1       2.771   8.021  17.476  0.00  0.00    +0.000 A 
ATOM     28  C   UNL     1       1.912   9.000  17.977  0.00  0.00    +0.000 A 
BRANCH  26  29
ATOM     29  S   UNL     1       4.207   5.672  17.628  0.00  0.00    +0.000 S 
ATOM     30  C   UNL     1       5.328   5.374  18.972  0.00  0.00    +0.000 C 
ATOM     31  N   UNL     1       3.331   4.422  17.426  0.00  0.00    +0.000 NA
ATOM     32  O   UNL     1       4.997   6.308  16.587  0.00  0.00    +0.000 OA
ATOM     33  H   UNL     1       3.166   3.891  18.279  0.00  0.00    +0.000 HD
ENDBRANCH  26  29
ENDBRANCH  20  23
ENDBRANCH   7  19
BRANCH   1  35
ATOM     34  C   UNL     1       0.014   9.622  23.522  0.00  0.00    +0.000 C 
ATOM     35  O   UNL     1      -1.046  10.337  22.888  0.00  0.00    +0.000 OA
ENDBRANCH   1  35
TORSDOF 5
ENDMDL
MODEL 2
REMARK VINA RESULT:      -7.5      1.076      1.427
REMARK  Name = 
REMARK  7 active torsions:
REMARK  status: ('A' for Active; 'I' for Inactive)
REMARK    1  A    between atoms: C_1  and  O_2
REMARK    2  A    between atoms: O_2  and  C_3
REMARK    3  A    between atoms: C_8  and  C_9
REMARK    4  A    between atoms: C_19  and  N_20
REMARK    5  A    between atoms: C_21  and  C_23
REMARK    6  A    between atoms: C_26  and  S_27
REMARK    7  A    between atoms: S_27  and  C_28
REMARK                            x       y       z     vdW  Elec       q    Type
REMARK                         _______ _______ _______ _____ _____    ______ ____
ROOT
ATOM      1  C   UNL     1      -0.642  12.914  22.247  0.00  0.00    +0.000 A 
ATOM      2  C   UNL     1      -1.019  14.180  22.726  0.00  0.00    +0.000 A 
ATOM      3  C   UNL     1      -0.379  15.329  22.274  0.00  0.00    +0.000 A 
ATOM      4 CL   UNL     1      -0.853  16.867  22.882  0.00  0.00    +0.000 Cl
ATOM      5  C   UNL     1       0.668  15.236  21.373  0.00  0.00    +0.000 A 
ATOM      6  C   UNL     1       1.091  13.976  20.919  0.00  0.00    +0.000 A 
ATOM      7  C   UNL     1       0.423  12.801  21.324  0.00  0.00    +0.000 A 
ENDROOT
BRANCH   6   8
ATOM      8  C   UNL     1       2.297  13.993  20.048  0.00  0.00    +0.000 C 
ATOM      9  O   UNL     1       2.377  13.129  19.176  0.00  0.00    +0.000 OA
ATOM     10  N   UNL     1       3.272  14.926  20.330  0.00  0.00    +0.000 N 
ATOM     11  C   UNL     1       4.526  14.894  19.695  0.00  0.00    +0.000 A 
ATOM     12  C   UNL     1       4.659  14.670  18.326  0.00  0.00    +0.000 A 
ATOM     13  C   UNL     1       5.938  14.577  17.772  0.00  0.00    +0.000 A 
ATOM     14  C   UNL     1       7.039  14.677  18.608  0.00  0.00    +0.000 A 
ATOM     15 CL   UNL     1       8.630  14.494  17.990  0.00  0.00    +0.000 Cl
ATOM     16  C   UNL     1       6.817  14.925  19.953  0.00  0.00    +0.000 A 
ATOM     17  N   UNL     1       5.585  15.086  20.506  0.00  0.00    +0.000 NA
ATOM     18  H   UNL     1       3.309  15.293  21.277  0.00  0.00    +0.000 HD
ENDBRANCH   6   8
BRANCH   7  19
ATOM     19  N   UNL     1       0.931  11.543  20.892  0.00  0.00    +0.000 N 
ATOM     20  C   UNL     1       0.294  10.728  19.967  0.00  0.00    +0.000 C 
ATOM     21  O   UNL     1      -0.787  10.964  19.441  0.00  0.00    +0.000 OA
ATOM     22  H   UNL     1       1.913  11.395  21.049  0.00  0.00    +0.000 HD
BRANCH  20  23
ATOM     23  C   UNL     1       1.067   9.520  19.516  0.00  0.00    +0.000 A 
ATOM     24  C   UNL     1       1.529   9.484  18.189  0.00  0.00    +0.000 A 
ATOM     25  C   UNL     1       2.266   8.394  17.719  0.00  0.00    +0.000 A 
ATOM     26  C   UNL     1       2.564   7.338  18.583  0.00  0.00    +0.000 A 
ATOM     27  C   UNL     1       2.128   7.365  19.912  0.00  0.00    +0.000 A 
ATOM     28  C   UNL     1       1.388   8.454  20.373  0.00  0.00    +0.000 A 
BRANCH  26  29
ATOM     29  S   UNL     1       3.505   5.938  17.995  0.00  0.00    +0.000 S 
ATOM     30  C   UNL     1       4.461   5.452  19.410  0.00  0.00    +0.000 C 
ATOM     31  N   UNL     1       2.460   4.846  17.702  0.00  0.00    +0.000 NA
ATOM     32  O   UNL     1       4.461   6.451  17.028  0.00  0.00    +0.000 OA
ATOM     33  H   UNL     1       2.150   4.339  18.529  0.00  0.00    +0.000 HD
ENDBRANCH  26  29
ENDBRANCH  20  23
ENDBRANCH   7  19
BRANCH   1  35
ATOM     34  C   UNL     1      -2.455  11.870  23.396  0.00  0.00    +0.000 C 
ATOM     35  O   UNL     1      -1.185  11.753  22.754  0.00  0.00    +0.000 OA
ENDBRANCH   1  35
TORSDOF 5
ENDMDL
MODEL 3
REMARK VINA RESULT:      -7.5      0.806      1.192
REMARK  Name = 
REMARK  7 active torsions:
REMARK  status: ('A' for Active; 'I' for Inactive)
REMARK    1  A    between atoms: C_1  and  O_2
REMARK    2  A    between atoms: O_2  and  C_3
REMARK    3  A    between atoms: C_8  and  C_9
REMARK    4  A    between atoms: C_19  and  N_20
REMARK    5  A    between atoms: C_21  and  C_23
REMARK    6  A    between atoms: C_26  and  S_27
REMARK    7  A    between atoms: S_27  and  C_28
REMARK                            x       y       z     vdW  Elec       q    Type
REMARK                         _______ _______ _______ _____ _____    ______ ____
ROOT
ATOM      1  C   UNL     1      -0.838  11.638  22.510  0.00  0.00    +0.000 A 
ATOM      2  C   UNL     1      -1.402  12.791  23.079  0.00  0.00    +0.000 A 
ATOM      3  C   UNL     1      -1.006  14.057  22.660  0.00  0.00    +0.000 A 
ATOM      4 CL   UNL     1      -1.706  15.454  23.379  0.00  0.00    +0.000 Cl
ATOM      5  C   UNL     1      -0.017  14.195  21.701  0.00  0.00    +0.000 A 
ATOM      6  C   UNL     1       0.594  13.055  21.155  0.00  0.00    +0.000 A 
ATOM      7  C   UNL     1       0.172  11.761  21.527  0.00  0.00    +0.000 A 
ENDROOT
BRANCH   6   8
ATOM      8  C   UNL     1       1.723  13.329  20.225  0.00  0.00    +0.000 C 
ATOM      9  O   UNL     1       1.893  12.542  19.295  0.00  0.00    +0.000 OA
ATOM     10  N   UNL     1       2.540  14.400  20.515  0.00  0.00    +0.000 N 
ATOM     11  C   UNL     1       3.738  14.621  19.814  0.00  0.00    +0.000 A 
ATOM     12  C   UNL     1       3.820  14.500  18.427  0.00  0.00    +0.000 A 
ATOM     13  C   UNL     1       5.059  14.661  17.802  0.00  0.00    +0.000 A 
ATOM     14  C   UNL     1       6.178  14.905  18.583  0.00  0.00    +0.000 A 
ATOM     15 CL   UNL     1       7.734  15.035  17.870  0.00  0.00    +0.000 Cl
ATOM     16  C   UNL     1       6.002  15.035  19.951  0.00  0.00    +0.000 A 
ATOM     17  N   UNL     1       4.798  14.950  20.578  0.00  0.00    +0.000 NA
ATOM     18  H   UNL     1       2.574  14.715  21.480  0.00  0.00    +0.000 HD
ENDBRANCH   6   8
BRANCH   7  19
ATOM     19  N   UNL     1       0.867  10.636  20.999  0.00  0.00    +0.000 N 
ATOM     20  C   UNL     1       0.383   9.843  19.968  0.00  0.00    +0.000 C 
ATOM     21  O   UNL     1      -0.702   9.981  19.417  0.00  0.00    +0.000 OA
ATOM     22  H   UNL     1       1.853  10.609  21.187  0.00  0.00    +0.000 HD
BRANCH  20  23
ATOM     23  C   UNL     1       1.333   8.806  19.438  0.00  0.00    +0.000 A 
ATOM     24  C   UNL     1       1.865   8.988  18.150  0.00  0.00    +0.000 A 
ATOM     25  C   UNL     1       2.765   8.065  17.612  0.00  0.00    +0.000 A 
ATOM     26  C   UNL     1       3.157   6.960  18.371  0.00  0.00    +0.000 A 
ATOM     27  C   UNL     1       2.653   6.772  19.662  0.00  0.00    +0.000 A 
ATOM     28  C   UNL     1       1.750   7.695  20.192  0.00  0.00    +0.000 A 
BRANCH  26  29
ATOM     29  S   UNL     1       4.307   5.771  17.695  0.00  0.00    +0.000 S 
ATOM     30  C   UNL     1       4.990   6.606  16.286  0.00  0.00    +0.000 C 
ATOM     31  N   UNL     1       5.405   5.620  18.764  0.00  0.00    +0.000 NA
ATOM     32  O   UNL     1       3.513   4.677  17.161  0.00  0.00    +0.000 OA
ATOM     33  H   UNL     1       6.102   6.361  18.747  0.00  0.00    +0.000 HD
ENDBRANCH  26  29
ENDBRANCH  20  23
ENDBRANCH   7  19
BRANCH   1  35
ATOM     34  C   UNL     1      -0.052   9.633  23.540  0.00  0.00    +0.000 C 
ATOM     35  O   UNL     1      -1.135  10.376  22.979  0.00  0.00    +0.000 OA
ENDBRANCH   1  35
TORSDOF 5
ENDMDL
MODEL 4
REMARK VINA RESULT:      -7.4      1.581      1.786
REMARK  Name = 
REMARK  7 active torsions:
REMARK  status: ('A' for Active; 'I' for Inactive)
REMARK    1  A    between atoms: C_1  and  O_2
REMARK    2  A    between atoms: O_2  and  C_3
REMARK    3  A    between atoms: C_8  and  C_9
REMARK    4  A    between atoms: C_19  and  N_20
REMARK    5  A    between atoms: C_21  and  C_23
REMARK    6  A    between atoms: C_26  and  S_27
REMARK    7  A    between atoms: S_27  and  C_28
REMARK                            x       y       z     vdW  Elec       q    Type
REMARK                         _______ _______ _______ _____ _____    ______ ____
ROOT
ATOM      1  C   UNL     1      -1.207  13.167  22.602  0.00  0.00    +0.000 A 
ATOM      2  C   UNL     1      -1.575  14.405  23.153  0.00  0.00    +0.000 A 
ATOM      3  C   UNL     1      -0.828  15.549  22.893  0.00  0.00    +0.000 A 
ATOM      4 CL   UNL     1      -1.295  17.052  23.587  0.00  0.00    +0.000 Cl
ATOM      5  C   UNL     1       0.316  15.472  22.117  0.00  0.00    +0.000 A 
ATOM      6  C   UNL     1       0.728  14.234  21.597  0.00  0.00    +0.000 A 
ATOM      7  C   UNL     1      -0.043  13.071  21.805  0.00  0.00    +0.000 A 
ENDROOT
BRANCH   6   8
ATOM      8  C   UNL     1       2.032  14.254  20.881  0.00  0.00    +0.000 C 
ATOM      9  O   UNL     1       2.812  13.328  21.100  0.00  0.00    +0.000 OA
ATOM     10  N   UNL     1       2.304  15.346  20.085  0.00  0.00    +0.000 N 
ATOM     11  C   UNL     1       3.578  15.550  19.527  0.00  0.00    +0.000 A 
ATOM     12  C   UNL     1       4.307  14.516  18.942  0.00  0.00    +0.000 A 
ATOM     13  C   UNL     1       5.598  14.773  18.475  0.00  0.00    +0.000 A 
ATOM     14  C   UNL     1       6.129  16.044  18.635  0.00  0.00    +0.000 A 
ATOM     15 CL   UNL     1       7.737  16.391  18.146  0.00  0.00    +0.000 Cl
ATOM     16  C   UNL     1       5.326  17.019  19.204  0.00  0.00    +0.000 A 
ATOM     17  N   UNL     1       4.043  16.812  19.607  0.00  0.00    +0.000 NA
ATOM     18  H   UNL     1       1.810  16.210  20.290  0.00  0.00    +0.000 HD
ENDBRANCH   6   8
BRANCH   7  19
ATOM     19  N   UNL     1       0.451  11.828  21.317  0.00  0.00    +0.000 N 
ATOM     20  C   UNL     1       0.069  11.265  20.107  0.00  0.00    +0.000 C 
ATOM     21  O   UNL     1      -0.758  11.738  19.336  0.00  0.00    +0.000 OA
ATOM     22  H   UNL     1       1.310  11.510  21.730  0.00  0.00    +0.000 HD
BRANCH  20  23
ATOM     23  C   UNL     1       0.822  10.034  19.690  0.00  0.00    +0.000 A 
ATOM     24  C   UNL     1       1.039   9.030  20.649  0.00  0.00    +0.000 A 
ATOM     25  C   UNL     1       1.719   7.857  20.314  0.00  0.00    +0.000 A 
ATOM     26  C   UNL     1       2.170   7.670  19.005  0.00  0.00    +0.000 A 
ATOM     27  C   UNL     1       1.947   8.650  18.032  0.00  0.00    +0.000 A 
ATOM     28  C   UNL     1       1.272   9.822  18.375  0.00  0.00    +0.000 A 
BRANCH  26  29
ATOM     29  S   UNL     1       3.041   6.175  18.563  0.00  0.00    +0.000 S 
ATOM     30  C   UNL     1       4.248   6.728  17.384  0.00  0.00    +0.000 C 
ATOM     31  N   UNL     1       3.766   5.736  19.848  0.00  0.00    +0.000 NA
ATOM     32  O   UNL     1       2.107   5.350  17.815  0.00  0.00    +0.000 OA
ATOM     33  H   UNL     1       4.635   6.237  20.024  0.00  0.00    +0.000 HD
ENDBRANCH  26  29
ENDBRANCH  20  23
ENDBRANCH   7  19
BRANCH   1  35
ATOM     34  C   UNL     1      -3.097  12.141  23.638  0.00  0.00    +0.000 C 
ATOM     35  O   UNL     1      -1.867  12.000  22.927  0.00  0.00    +0.000 OA
ENDBRANCH   1  35
TORSDOF 5
ENDMDL
MODEL 5
REMARK VINA RESULT:      -7.4      1.397      1.503
REMARK  Name = 
REMARK  7 active torsions:
REMARK  status: ('A' for Active; 'I' for Inactive)
REMARK    1  A    between atoms: C_1  and  O_2
REMARK    2  A    between atoms: O_2  and  C_3
REMARK    3  A    between atoms: C_8  and  C_9
REMARK    4  A    between atoms: C_19  and  N_20
REMARK    5  A    between atoms: C_21  and  C_23
REMARK    6  A    between atoms: C_26  and  S_27
REMARK    7  A    between atoms: S_27  and  C_28
REMARK                            x       y       z     vdW  Elec       q    Type
REMARK                         _______ _______ _______ _____ _____    ______ ____
ROOT
ATOM      1  C   UNL     1      -0.999  12.868  21.198  0.00  0.00    +0.000 A 
ATOM      2  C   UNL     1      -1.507  14.133  21.534  0.00  0.00    +0.000 A 
ATOM      3  C   UNL     1      -0.862  15.292  21.115  0.00  0.00    +0.000 A 
ATOM      4 CL   UNL     1      -1.500  16.830  21.547  0.00  0.00    +0.000 Cl
ATOM      5  C   UNL     1       0.317  15.211  20.393  0.00  0.00    +0.000 A 
ATOM      6  C   UNL     1       0.866  13.955  20.089  0.00  0.00    +0.000 A 
ATOM      7  C   UNL     1       0.202  12.767  20.458  0.00  0.00    +0.000 A 
ENDROOT
BRANCH   6   8
ATOM      8  C   UNL     1       2.192  13.995  19.414  0.00  0.00    +0.000 C 
ATOM      9  O   UNL     1       2.413  13.147  18.550  0.00  0.00    +0.000 OA
ATOM     10  N   UNL     1       3.104  14.929  19.858  0.00  0.00    +0.000 N 
ATOM     11  C   UNL     1       4.440  14.916  19.423  0.00  0.00    +0.000 A 
ATOM     12  C   UNL     1       4.784  14.717  18.086  0.00  0.00    +0.000 A 
ATOM     13  C   UNL     1       6.134  14.642  17.735  0.00  0.00    +0.000 A 
ATOM     14  C   UNL     1       7.093  14.735  18.732  0.00  0.00    +0.000 A 
ATOM     15 CL   UNL     1       8.761  14.572  18.362  0.00  0.00    +0.000 Cl
ATOM     16  C   UNL     1       6.664  14.957  20.030  0.00  0.00    +0.000 A 
ATOM     17  N   UNL     1       5.360  15.101  20.389  0.00  0.00    +0.000 NA
ATOM     18  H   UNL     1       2.992  15.280  20.805  0.00  0.00    +0.000 HD
ENDBRANCH   6   8
BRANCH   7  19
ATOM     19  N   UNL     1       0.832  11.519  20.189  0.00  0.00    +0.000 N 
ATOM     20  C   UNL     1       0.358  10.596  19.268  0.00  0.00    +0.000 C 
ATOM     21  O   UNL     1      -0.668  10.716  18.608  0.00  0.00    +0.000 OA
ATOM     22  H   UNL     1       1.796  11.451  20.465  0.00  0.00    +0.000 HD
BRANCH  20  23
ATOM     23  C   UNL     1       1.249   9.415  19.004  0.00  0.00    +0.000 A 
ATOM     24  C   UNL     1       1.365   8.434  20.003  0.00  0.00    +0.000 A 
ATOM     25  C   UNL     1       2.167   7.306  19.807  0.00  0.00    +0.000 A 
ATOM     26  C   UNL     1       2.843   7.142  18.596  0.00  0.00    +0.000 A 
ATOM     27  C   UNL     1       2.726   8.100  17.583  0.00  0.00    +0.000 A 
ATOM     28  C   UNL     1       1.927   9.226  17.788  0.00  0.00    +0.000 A 
BRANCH  26  29
ATOM     29  S   UNL     1       3.872   5.706  18.333  0.00  0.00    +0.000 S 
ATOM     30  C   UNL     1       2.703   4.389  18.113  0.00  0.00    +0.000 C 
ATOM     31  N   UNL     1       4.588   5.964  16.994  0.00  0.00    +0.000 NA
ATOM     32  O   UNL     1       4.544   5.434  19.593  0.00  0.00    +0.000 OA
ATOM     33  H   UNL     1       4.020   5.755  16.176  0.00  0.00    +0.000 HD
ENDBRANCH  26  29
ENDBRANCH  20  23
ENDBRANCH   7  19
BRANCH   1  35
ATOM     34  C   UNL     1      -1.772  11.646  23.098  0.00  0.00    +0.000 C 
ATOM     35  O   UNL     1      -1.558  11.706  21.687  0.00  0.00    +0.000 OA
ENDBRANCH   1  35
TORSDOF 5
ENDMDL
MODEL 6
REMARK VINA RESULT:      -7.3      3.715      6.719
REMARK  Name = 
REMARK  7 active torsions:
REMARK  status: ('A' for Active; 'I' for Inactive)
REMARK    1  A    between atoms: C_1  and  O_2
REMARK    2  A    between atoms: O_2  and  C_3
REMARK    3  A    between atoms: C_8  and  C_9
REMARK    4  A    between atoms: C_19  and  N_20
REMARK    5  A    between atoms: C_21  and  C_23
REMARK    6  A    between atoms: C_26  and  S_27
REMARK    7  A    between atoms: S_27  and  C_28
REMARK                            x       y       z     vdW  Elec       q    Type
REMARK                         _______ _______ _______ _____ _____    ______ ____
ROOT
ATOM      1  C   UNL     1      -2.071  14.585  23.062  0.00  0.00    +0.000 A 
ATOM      2  C   UNL     1      -3.329  14.259  23.594  0.00  0.00    +0.000 A 
ATOM      3  C   UNL     1      -3.677  12.935  23.837  0.00  0.00    +0.000 A 
ATOM      4 CL   UNL     1      -5.228  12.562  24.481  0.00  0.00    +0.000 Cl
ATOM      5  C   UNL     1      -2.797  11.914  23.520  0.00  0.00    +0.000 A 
ATOM      6  C   UNL     1      -1.553  12.216  22.943  0.00  0.00    +0.000 A 
ATOM      7  C   UNL     1      -1.159  13.555  22.735  0.00  0.00    +0.000 A 
ENDROOT
BRANCH   6   8
ATOM      8  C   UNL     1      -0.743  11.035  22.537  0.00  0.00    +0.000 C 
ATOM      9  O   UNL     1      -0.003  10.538  23.384  0.00  0.00    +0.000 OA
ATOM     10  N   UNL     1      -0.824  10.631  21.221  0.00  0.00    +0.000 N 
ATOM     11  C   UNL     1       0.043   9.658  20.697  0.00  0.00    +0.000 A 
ATOM     12  C   UNL     1       0.353   8.488  21.390  0.00  0.00    +0.000 A 
ATOM     13  C   UNL     1       1.280   7.598  20.844  0.00  0.00    +0.000 A 
ATOM     14  C   UNL     1       1.890   7.920  19.641  0.00  0.00    +0.000 A 
ATOM     15 CL   UNL     1       3.091   6.897  18.965  0.00  0.00    +0.000 Cl
ATOM     16  C   UNL     1       1.505   9.089  19.007  0.00  0.00    +0.000 A 
ATOM     17  N   UNL     1       0.556   9.940  19.484  0.00  0.00    +0.000 NA
ATOM     18  H   UNL     1      -1.115  11.323  20.536  0.00  0.00    +0.000 HD
ENDBRANCH   6   8
BRANCH   7  19
ATOM     19  N   UNL     1       0.082  13.809  22.084  0.00  0.00    +0.000 N 
ATOM     20  C   UNL     1       0.238  13.849  20.706  0.00  0.00    +0.000 C 
ATOM     21  O   UNL     1      -0.648  13.636  19.886  0.00  0.00    +0.000 OA
ATOM     22  H   UNL     1       0.784  14.256  22.648  0.00  0.00    +0.000 HD
BRANCH  20  23
ATOM     23  C   UNL     1       1.585  14.295  20.211  0.00  0.00    +0.000 A 
ATOM     24  C   UNL     1       2.667  14.259  21.107  0.00  0.00    +0.000 A 
ATOM     25  C   UNL     1       3.946  14.647  20.698  0.00  0.00    +0.000 A 
ATOM     26  C   UNL     1       4.154  15.055  19.379  0.00  0.00    +0.000 A 
ATOM     27  C   UNL     1       3.093  15.081  18.468  0.00  0.00    +0.000 A 
ATOM     28  C   UNL     1       1.817  14.697  18.885  0.00  0.00    +0.000 A 
BRANCH  26  29
ATOM     29  S   UNL     1       5.784  15.555  18.843  0.00  0.00    +0.000 S 
ATOM     30  C   UNL     1       6.816  15.180  20.238  0.00  0.00    +0.000 C 
ATOM     31  N   UNL     1       6.140  14.599  17.690  0.00  0.00    +0.000 NA
ATOM     32  O   UNL     1       5.766  17.005  18.742  0.00  0.00    +0.000 OA
ATOM     33  H   UNL     1       6.477  13.689  17.997  0.00  0.00    +0.000 HD
ENDBRANCH  26  29
ENDBRANCH  20  23
ENDBRANCH   7  19
BRANCH   1  35
ATOM     34  C   UNL     1      -2.304  16.918  23.512  0.00  0.00    +0.000 C 
ATOM     35  O   UNL     1      -1.741  15.877  22.713  0.00  0.00    +0.000 OA
ENDBRANCH   1  35
TORSDOF 5
ENDMDL
MODEL 7
REMARK VINA RESULT:      -7.2      4.603      8.504
REMARK  Name = 
REMARK  7 active torsions:
REMARK  status: ('A' for Active; 'I' for Inactive)
REMARK    1  A    between atoms: C_1  and  O_2
REMARK    2  A    between atoms: O_2  and  C_3
REMARK    3  A    between atoms: C_8  and  C_9
REMARK    4  A    between atoms: C_19  and  N_20
REMARK    5  A    between atoms: C_21  and  C_23
REMARK    6  A    between atoms: C_26  and  S_27
REMARK    7  A    between atoms: S_27  and  C_28
REMARK                            x       y       z     vdW  Elec       q    Type
REMARK                         _______ _______ _______ _____ _____    ______ ____
ROOT
ATOM      1  C   UNL     1       0.395  15.385  18.845  0.00  0.00    +0.000 A 
ATOM      2  C   UNL     1       1.657  15.772  18.365  0.00  0.00    +0.000 A 
ATOM      3  C   UNL     1       2.713  14.868  18.331  0.00  0.00    +0.000 A 
ATOM      4 CL   UNL     1       4.250  15.369  17.746  0.00  0.00    +0.000 Cl
ATOM      5  C   UNL     1       2.542  13.580  18.810  0.00  0.00    +0.000 A 
ATOM      6  C   UNL     1       1.302  13.188  19.339  0.00  0.00    +0.000 A 
ATOM      7  C   UNL     1       0.203  14.073  19.336  0.00  0.00    +0.000 A 
ENDROOT
BRANCH   6   8
ATOM      8  C   UNL     1       1.272  11.823  19.932  0.00  0.00    +0.000 C 
ATOM      9  O   UNL     1       1.442  11.730  21.147  0.00  0.00    +0.000 OA
ATOM     10  N   UNL     1       1.132  10.758  19.068  0.00  0.00    +0.000 N 
ATOM     11  C   UNL     1       1.289   9.432  19.506  0.00  0.00    +0.000 A 
ATOM     12  C   UNL     1       0.734   8.973  20.699  0.00  0.00    +0.000 A 
ATOM     13  C   UNL     1       0.991   7.664  21.111  0.00  0.00    +0.000 A 
ATOM     14  C   UNL     1       1.819   6.867  20.334  0.00  0.00    +0.000 A 
ATOM     15 CL   UNL     1       2.227   5.277  20.835  0.00  0.00    +0.000 Cl
ATOM     16  C   UNL     1       2.307   7.394  19.150  0.00  0.00    +0.000 A 
ATOM     17  N   UNL     1       2.018   8.642  18.694  0.00  0.00    +0.000 NA
ATOM     18  H   UNL     1       1.412  10.899  18.101  0.00  0.00    +0.000 HD
ENDBRANCH   6   8
BRANCH   7  19
ATOM     19  N   UNL     1      -1.014  13.655  19.946  0.00  0.00    +0.000 N 
ATOM     20  C   UNL     1      -1.337  13.898  21.273  0.00  0.00    +0.000 C 
ATOM     21  O   UNL     1      -0.613  14.458  22.087  0.00  0.00    +0.000 OA
ATOM     22  H   UNL     1      -1.765  13.440  19.313  0.00  0.00    +0.000 HD
BRANCH  20  23
ATOM     23  C   UNL     1      -2.733  13.525  21.687  0.00  0.00    +0.000 A 
ATOM     24  C   UNL     1      -3.716  13.416  20.688  0.00  0.00    +0.000 A 
ATOM     25  C   UNL     1      -5.027  13.057  21.012  0.00  0.00    +0.000 A 
ATOM     26  C   UNL     1      -5.359  12.784  22.341  0.00  0.00    +0.000 A 
ATOM     27  C   UNL     1      -4.390  12.870  23.346  0.00  0.00    +0.000 A 
ATOM     28  C   UNL     1      -3.084  13.234  23.016  0.00  0.00    +0.000 A 
BRANCH  26  29
ATOM     29  S   UNL     1      -7.031  12.325  22.769  0.00  0.00    +0.000 S 
ATOM     30  C   UNL     1      -7.916  13.862  22.702  0.00  0.00    +0.000 C 
ATOM     31  N   UNL     1      -7.510  11.425  21.616  0.00  0.00    +0.000 NA
ATOM     32  O   UNL     1      -7.015  11.939  24.170  0.00  0.00    +0.000 OA
ATOM     33  H   UNL     1      -7.820  11.938  20.793  0.00  0.00    +0.000 HD
ENDBRANCH  26  29
ENDBRANCH  20  23
ENDBRANCH   7  19
BRANCH   1  35
ATOM     34  C   UNL     1      -0.309  17.666  18.807  0.00  0.00    +0.000 C 
ATOM     35  O   UNL     1      -0.637  16.288  18.988  0.00  0.00    +0.000 OA
ENDBRANCH   1  35
TORSDOF 5
ENDMDL
MODEL 8
REMARK VINA RESULT:      -7.2      1.840      2.258
REMARK  Name = 
REMARK  7 active torsions:
REMARK  status: ('A' for Active; 'I' for Inactive)
REMARK    1  A    between atoms: C_1  and  O_2
REMARK    2  A    between atoms: O_2  and  C_3
REMARK    3  A    between atoms: C_8  and  C_9
REMARK    4  A    between atoms: C_19  and  N_20
REMARK    5  A    between atoms: C_21  and  C_23
REMARK    6  A    between atoms: C_26  and  S_27
REMARK    7  A    between atoms: S_27  and  C_28
REMARK                            x       y       z     vdW  Elec       q    Type
REMARK                         _______ _______ _______ _____ _____    ______ ____
ROOT
ATOM      1  C   UNL     1      -0.335  14.060  21.266  0.00  0.00    +0.000 A 
ATOM      2  C   UNL     1      -0.588  15.411  21.556  0.00  0.00    +0.000 A 
ATOM      3  C   UNL     1       0.249  16.410  21.071  0.00  0.00    +0.000 A 
ATOM      4 CL   UNL     1      -0.077  18.056  21.447  0.00  0.00    +0.000 Cl
ATOM      5  C   UNL     1       1.369  16.080  20.326  0.00  0.00    +0.000 A 
ATOM      6  C   UNL     1       1.665  14.733  20.067  0.00  0.00    +0.000 A 
ATOM      7  C   UNL     1       0.803  13.705  20.505  0.00  0.00    +0.000 A 
ENDROOT
BRANCH   6   8
ATOM      8  C   UNL     1       2.954  14.496  19.361  0.00  0.00    +0.000 C 
ATOM      9  O   UNL     1       2.984  13.592  18.526  0.00  0.00    +0.000 OA
ATOM     10  N   UNL     1       4.039  15.253  19.747  0.00  0.00    +0.000 N 
ATOM     11  C   UNL     1       5.335  14.971  19.282  0.00  0.00    +0.000 A 
ATOM     12  C   UNL     1       5.595  14.665  17.947  0.00  0.00    +0.000 A 
ATOM     13  C   UNL     1       6.894  14.322  17.568  0.00  0.00    +0.000 A 
ATOM     14  C   UNL     1       7.883  14.264  18.538  0.00  0.00    +0.000 A 
ATOM     15 CL   UNL     1       9.478  13.774  18.137  0.00  0.00    +0.000 Cl
ATOM     16  C   UNL     1       7.543  14.608  19.836  0.00  0.00    +0.000 A 
ATOM     17  N   UNL     1       6.302  15.010  20.219  0.00  0.00    +0.000 NA
ATOM     18  H   UNL     1       4.024  15.651  20.682  0.00  0.00    +0.000 HD
ENDBRANCH   6   8
BRANCH   7  19
ATOM     19  N   UNL     1       1.181  12.352  20.278  0.00  0.00    +0.000 N 
ATOM     20  C   UNL     1       0.528  11.505  19.393  0.00  0.00    +0.000 C 
ATOM     21  O   UNL     1      -0.463  11.796  18.734  0.00  0.00    +0.000 OA
ATOM     22  H   UNL     1       2.117  12.111  20.552  0.00  0.00    +0.000 HD
BRANCH  20  23
ATOM     23  C   UNL     1       1.175  10.168  19.168  0.00  0.00    +0.000 A 
ATOM     24  C   UNL     1       1.156   9.234  20.218  0.00  0.00    +0.000 A 
ATOM     25  C   UNL     1       1.728   7.969  20.061  0.00  0.00    +0.000 A 
ATOM     26  C   UNL     1       2.306   7.621  18.838  0.00  0.00    +0.000 A 
ATOM     27  C   UNL     1       2.319   8.530  17.776  0.00  0.00    +0.000 A 
ATOM     28  C   UNL     1       1.751   9.793  17.941  0.00  0.00    +0.000 A 
BRANCH  26  29
ATOM     29  S   UNL     1       3.042   6.007  18.624  0.00  0.00    +0.000 S 
ATOM     30  C   UNL     1       4.452   6.324  17.593  0.00  0.00    +0.000 C 
ATOM     31  N   UNL     1       3.532   5.598  20.025  0.00  0.00    +0.000 NA
ATOM     32  O   UNL     1       2.122   5.232  17.808  0.00  0.00    +0.000 OA
ATOM     33  H   UNL     1       4.424   6.012  20.287  0.00  0.00    +0.000 HD
ENDBRANCH  26  29
ENDBRANCH  20  23
ENDBRANCH   7  19
BRANCH   1  35
ATOM     34  C   UNL     1      -2.460  12.986  21.440  0.00  0.00    +0.000 C 
ATOM     35  O   UNL     1      -1.085  13.044  21.821  0.00  0.00    +0.000 OA
ENDBRANCH   1  35
TORSDOF 5
ENDMDL
MODEL 9
REMARK VINA RESULT:      -7.2      3.445      6.660
REMARK  Name = 
REMARK  7 active torsions:
REMARK  status: ('A' for Active; 'I' for Inactive)
REMARK    1  A    between atoms: C_1  and  O_2
REMARK    2  A    between atoms: O_2  and  C_3
REMARK    3  A    between atoms: C_8  and  C_9
REMARK    4  A    between atoms: C_19  and  N_20
REMARK    5  A    between atoms: C_21  and  C_23
REMARK    6  A    between atoms: C_26  and  S_27
REMARK    7  A    between atoms: S_27  and  C_28
REMARK                            x       y       z     vdW  Elec       q    Type
REMARK                         _______ _______ _______ _____ _____    ______ ____
ROOT
ATOM      1  C   UNL     1      -0.897  14.483  22.272  0.00  0.00    +0.000 A 
ATOM      2  C   UNL     1      -2.209  14.185  22.674  0.00  0.00    +0.000 A 
ATOM      3  C   UNL     1      -2.647  12.868  22.750  0.00  0.00    +0.000 A 
ATOM      4 CL   UNL     1      -4.262  12.530  23.237  0.00  0.00    +0.000 Cl
ATOM      5  C   UNL     1      -1.803  11.831  22.390  0.00  0.00    +0.000 A 
ATOM      6  C   UNL     1      -0.503  12.111  21.940  0.00  0.00    +0.000 A 
ATOM      7  C   UNL     1      -0.020  13.437  21.903  0.00  0.00    +0.000 A 
ENDROOT
BRANCH   6   8
ATOM      8  C   UNL     1       0.270  10.929  21.470  0.00  0.00    +0.000 C 
ATOM      9  O   UNL     1       1.105  10.456  22.239  0.00  0.00    +0.000 OA
ATOM     10  N   UNL     1       0.047  10.496  20.180  0.00  0.00    +0.000 N 
ATOM     11  C   UNL     1       0.862   9.519  19.582  0.00  0.00    +0.000 A 
ATOM     12  C   UNL     1       1.260   8.368  20.260  0.00  0.00    +0.000 A 
ATOM     13  C   UNL     1       2.130   7.475  19.632  0.00  0.00    +0.000 A 
ATOM     14  C   UNL     1       2.599   7.776  18.362  0.00  0.00    +0.000 A 
ATOM     15 CL   UNL     1       3.729   6.749  17.578  0.00  0.00    +0.000 Cl
ATOM     16  C   UNL     1       2.133   8.928  17.751  0.00  0.00    +0.000 A 
ATOM     17  N   UNL     1       1.234   9.780  18.314  0.00  0.00    +0.000 NA
ATOM     18  H   UNL     1      -0.325  11.171  19.517  0.00  0.00    +0.000 HD
ENDBRANCH   6   8
BRANCH   7  19
ATOM     19  N   UNL     1       1.280  13.677  21.374  0.00  0.00    +0.000 N 
ATOM     20  C   UNL     1       1.529  13.977  20.042  0.00  0.00    +0.000 C 
ATOM     21  O   UNL     1       0.682  14.033  19.158  0.00  0.00    +0.000 OA
ATOM     22  H   UNL     1       1.984  13.920  22.048  0.00  0.00    +0.000 HD
BRANCH  20  23
ATOM     23  C   UNL     1       2.943  14.361  19.710  0.00  0.00    +0.000 A 
ATOM     24  C   UNL     1       3.357  14.280  18.370  0.00  0.00    +0.000 A 
ATOM     25  C   UNL     1       4.655  14.640  18.000  0.00  0.00    +0.000 A 
ATOM     26  C   UNL     1       5.546  15.104  18.971  0.00  0.00    +0.000 A 
ATOM     27  C   UNL     1       5.146  15.207  20.307  0.00  0.00    +0.000 A 
ATOM     28  C   UNL     1       3.850  14.842  20.670  0.00  0.00    +0.000 A 
BRANCH  26  29
ATOM     29  S   UNL     1       7.209  15.566  18.512  0.00  0.00    +0.000 S 
ATOM     30  C   UNL     1       8.190  15.012  19.884  0.00  0.00    +0.000 C 
ATOM     31  N   UNL     1       7.543  14.702  17.282  0.00  0.00    +0.000 NA
ATOM     32  O   UNL     1       7.266  17.018  18.545  0.00  0.00    +0.000 OA
ATOM     33  H   UNL     1       7.828  13.752  17.510  0.00  0.00    +0.000 HD
ENDBRANCH  26  29
ENDBRANCH  20  23
ENDBRANCH   7  19
BRANCH   1  35
ATOM     34  C   UNL     1      -1.448  16.716  21.631  0.00  0.00    +0.000 C 
ATOM     35  O   UNL     1      -0.470  15.781  22.086  0.00  0.00    +0.000 OA
ENDBRANCH   1  35
TORSDOF 5
ENDMDL
