MODEL 1
REMARK VINA RESULT:      -9.3      0.000      0.000
REMARK  Name = 
REMARK  7 active torsions:
REMARK  status: ('A' for Active; 'I' for Inactive)
REMARK    1  A    between atoms: C_1  and  C_2
REMARK    2  A    between atoms: C_2  and  O_3
REMARK    3  A    between atoms: O_3  and  C_4
REMARK    4  A    between atoms: C_4  and  C_6
REMARK    5  A    between atoms: N_9  and  C_10
REMARK    6  A    between atoms: C_16  and  N_17
REMARK    7  A    between atoms: C_18  and  C_20
REMARK                            x       y       z     vdW  Elec       q    Type
REMARK                         _______ _______ _______ _____ _____    ______ ____
ROOT
ATOM      1  C   UNL     1       3.486   3.353  20.472  0.00  0.00    +0.000 A 
ATOM      2  C   UNL     1       4.448   2.484  19.919  0.00  0.00    +0.000 A 
ATOM      3  N   UNL     1       5.330   3.106  19.143  0.00  0.00    +0.000 NA
ATOM      4  N   UNL     1       5.031   4.425  19.281  0.00  0.00    +0.000 N 
ATOM      5  C   UNL     1       3.899   4.617  20.075  0.00  0.00    +0.000 A 
ENDROOT
BRANCH   4   6
ATOM      6  C   UNL     1       5.901   5.389  18.704  0.00  0.00    +0.000 A 
ATOM      7  C   UNL     1       5.507   6.024  17.514  0.00  0.00    +0.000 A 
ATOM      8  C   UNL     1       6.334   6.975  16.926  0.00  0.00    +0.000 A 
ATOM      9  C   UNL     1       7.570   7.278  17.496  0.00  0.00    +0.000 A 
ATOM     10  C   UNL     1       7.983   6.624  18.655  0.00  0.00    +0.000 A 
ATOM     11  C   UNL     1       7.151   5.682  19.263  0.00  0.00    +0.000 A 
ENDBRANCH   4   6
BRANCH   5  12
ATOM     12  N   UNL     1       3.294   5.852  20.284  0.00  0.00    +0.000 N 
ATOM     13  C   UNL     1       2.470   6.392  19.312  0.00  0.00    +0.000 C 
ATOM     14  O   UNL     1       2.208   5.834  18.247  0.00  0.00    +0.000 OA
ATOM     15  H   UNL     1       3.185   6.187  21.245  0.00  0.00    +0.000 HD
BRANCH  13  16
ATOM     16  C   UNL     1       1.773   7.660  19.701  0.00  0.00    +0.000 A 
ATOM     17  C   UNL     1       1.192   7.696  20.914  0.00  0.00    +0.000 A 
ATOM     18  C   UNL     1       0.538   8.904  21.384  0.00  0.00    +0.000 A 
ATOM     19  C   UNL     1       0.109   9.054  22.703  0.00  0.00    +0.000 A 
ATOM     20  C   UNL     1      -0.526  10.235  23.101  0.00  0.00    +0.000 A 
ATOM     21  C   UNL     1      -0.762  11.254  22.175  0.00  0.00    +0.000 A 
ATOM     22  C   UNL     1      -0.334  11.111  20.857  0.00  0.00    +0.000 A 
ATOM     23  C   UNL     1       0.335   9.947  20.486  0.00  0.00    +0.000 A 
ATOM     24  O   UNL     1       0.863   9.881  19.185  0.00  0.00    +0.000 OA
ATOM     25  C   UNL     1       1.744   8.867  18.842  0.00  0.00    +0.000 A 
ATOM     26  O   UNL     1       2.480   8.966  17.862  0.00  0.00    +0.000 OA
ENDBRANCH  13  16
ENDBRANCH   5  12
BRANCH   1  27
ATOM     27  C   UNL     1       2.297   2.971  21.203  0.00  0.00    +0.000 C 
ATOM     28  O   UNL     1       2.043   3.306  22.354  0.00  0.00    +0.000 OA
BRANCH  27  29
ATOM     29  O   UNL     1       1.473   2.201  20.431  0.00  0.00    +0.000 OA
BRANCH  29  31
ATOM     30  C   UNL     1       1.236   2.541  18.096  0.00  0.00    +0.000 C 
ATOM     31  C   UNL     1       0.692   2.908  19.463  0.00  0.00    +0.000 C 
ENDBRANCH  29  31
ENDBRANCH  27  29
ENDBRANCH   1  27
TORSDOF 6
ENDMDL
MODEL 2
REMARK VINA RESULT:      -9.2      0.490      1.010
REMARK  Name = 
REMARK  7 active torsions:
REMARK  status: ('A' for Active; 'I' for Inactive)
REMARK    1  A    between atoms: C_1  and  C_2
REMARK    2  A    between atoms: C_2  and  O_3
REMARK    3  A    between atoms: O_3  and  C_4
REMARK    4  A    between atoms: C_4  and  C_6
REMARK    5  A    between atoms: N_9  and  C_10
REMARK    6  A    between atoms: C_16  and  N_17
REMARK    7  A    between atoms: C_18  and  C_20
REMARK                            x       y       z     vdW  Elec       q    Type
REMARK                         _______ _______ _______ _____ _____    ______ ____
ROOT
ATOM      1  C   UNL     1       3.343   3.514  20.280  0.00  0.00    +0.000 A 
ATOM      2  C   UNL     1       4.306   2.632  19.750  0.00  0.00    +0.000 A 
ATOM      3  N   UNL     1       5.231   3.247  19.021  0.00  0.00    +0.000 NA
ATOM      4  N   UNL     1       4.957   4.570  19.170  0.00  0.00    +0.000 N 
ATOM      5  C   UNL     1       3.800   4.775  19.922  0.00  0.00    +0.000 A 
ENDROOT
BRANCH   4   6
ATOM      6  C   UNL     1       5.871   5.523  18.644  0.00  0.00    +0.000 A 
ATOM      7  C   UNL     1       7.111   5.689  19.284  0.00  0.00    +0.000 A 
ATOM      8  C   UNL     1       8.030   6.610  18.793  0.00  0.00    +0.000 A 
ATOM      9  C   UNL     1       7.712   7.394  17.685  0.00  0.00    +0.000 A 
ATOM     10  C   UNL     1       6.470   7.260  17.068  0.00  0.00    +0.000 A 
ATOM     11  C   UNL     1       5.548   6.325  17.543  0.00  0.00    +0.000 A 
ENDBRANCH   4   6
BRANCH   5  12
ATOM     12  N   UNL     1       3.215   6.020  20.129  0.00  0.00    +0.000 N 
ATOM     13  C   UNL     1       2.440   6.594  19.134  0.00  0.00    +0.000 C 
ATOM     14  O   UNL     1       2.207   6.060  18.052  0.00  0.00    +0.000 OA
ATOM     15  H   UNL     1       3.076   6.342  21.090  0.00  0.00    +0.000 HD
BRANCH  13  16
ATOM     16  C   UNL     1       1.757   7.872  19.519  0.00  0.00    +0.000 A 
ATOM     17  C   UNL     1       1.208   7.931  20.745  0.00  0.00    +0.000 A 
ATOM     18  C   UNL     1       0.569   9.150  21.210  0.00  0.00    +0.000 A 
ATOM     19  C   UNL     1       0.174   9.325  22.536  0.00  0.00    +0.000 A 
ATOM     20  C   UNL     1      -0.447  10.515  22.928  0.00  0.00    +0.000 A 
ATOM     21  C   UNL     1      -0.703  11.519  21.991  0.00  0.00    +0.000 A 
ATOM     22  C   UNL     1      -0.308  11.350  20.664  0.00  0.00    +0.000 A 
ATOM     23  C   UNL     1       0.347  10.177  20.298  0.00  0.00    +0.000 A 
ATOM     24  O   UNL     1       0.842  10.087  18.986  0.00  0.00    +0.000 OA
ATOM     25  C   UNL     1       1.711   9.063  18.639  0.00  0.00    +0.000 A 
ATOM     26  O   UNL     1       2.423   9.142  17.639  0.00  0.00    +0.000 OA
ENDBRANCH  13  16
ENDBRANCH   5  12
BRANCH   1  27
ATOM     27  C   UNL     1       2.117   3.148  20.958  0.00  0.00    +0.000 C 
ATOM     28  O   UNL     1       2.053   2.458  21.967  0.00  0.00    +0.000 OA
BRANCH  27  29
ATOM     29  O   UNL     1       1.031   3.696  20.335  0.00  0.00    +0.000 OA
BRANCH  29  31
ATOM     30  C   UNL     1       0.683   1.786  18.972  0.00  0.00    +0.000 C 
ATOM     31  C   UNL     1       0.830   3.296  18.976  0.00  0.00    +0.000 C 
ENDBRANCH  29  31
ENDBRANCH  27  29
ENDBRANCH   1  27
TORSDOF 6
ENDMDL
MODEL 3
REMARK VINA RESULT:      -9.1      2.928      6.973
REMARK  Name = 
REMARK  7 active torsions:
REMARK  status: ('A' for Active; 'I' for Inactive)
REMARK    1  A    between atoms: C_1  and  C_2
REMARK    2  A    between atoms: C_2  and  O_3
REMARK    3  A    between atoms: O_3  and  C_4
REMARK    4  A    between atoms: C_4  and  C_6
REMARK    5  A    between atoms: N_9  and  C_10
REMARK    6  A    between atoms: C_16  and  N_17
REMARK    7  A    between atoms: C_18  and  C_20
REMARK                            x       y       z     vdW  Elec       q    Type
REMARK                         _______ _______ _______ _____ _____    ______ ____
ROOT
ATOM      1  C   UNL     1       2.916   4.010  20.170  0.00  0.00    +0.000 A 
ATOM      2  C   UNL     1       2.132   4.518  21.225  0.00  0.00    +0.000 A 
ATOM      3  N   UNL     1       1.870   5.815  21.102  0.00  0.00    +0.000 NA
ATOM      4  N   UNL     1       2.376   6.150  19.886  0.00  0.00    +0.000 N 
ATOM      5  C   UNL     1       3.037   5.076  19.289  0.00  0.00    +0.000 A 
ENDROOT
BRANCH   4   6
ATOM      6  C   UNL     1       2.114   7.447  19.368  0.00  0.00    +0.000 A 
ATOM      7  C   UNL     1       1.422   8.366  20.176  0.00  0.00    +0.000 A 
ATOM      8  C   UNL     1       1.153   9.646  19.701  0.00  0.00    +0.000 A 
ATOM      9  C   UNL     1       1.539  10.010  18.412  0.00  0.00    +0.000 A 
ATOM     10  C   UNL     1       2.192   9.091  17.592  0.00  0.00    +0.000 A 
ATOM     11  C   UNL     1       2.483   7.810  18.067  0.00  0.00    +0.000 A 
ENDBRANCH   4   6
BRANCH   5  12
ATOM     12  N   UNL     1       3.755   5.165  18.102  0.00  0.00    +0.000 N 
ATOM     13  C   UNL     1       5.135   5.281  18.134  0.00  0.00    +0.000 C 
ATOM     14  O   UNL     1       5.798   5.293  19.170  0.00  0.00    +0.000 OA
ATOM     15  H   UNL     1       3.324   4.817  17.242  0.00  0.00    +0.000 HD
BRANCH  13  16
ATOM     16  C   UNL     1       5.808   5.237  16.796  0.00  0.00    +0.000 A 
ATOM     17  C   UNL     1       5.332   4.358  15.896  0.00  0.00    +0.000 A 
ATOM     18  C   UNL     1       5.900   4.288  14.561  0.00  0.00    +0.000 A 
ATOM     19  C   UNL     1       5.309   3.547  13.538  0.00  0.00    +0.000 A 
ATOM     20  C   UNL     1       5.904   3.504  12.273  0.00  0.00    +0.000 A 
ATOM     21  C   UNL     1       7.106   4.176  12.036  0.00  0.00    +0.000 A 
ATOM     22  C   UNL     1       7.700   4.920  13.054  0.00  0.00    +0.000 A 
ATOM     23  C   UNL     1       7.073   4.988  14.296  0.00  0.00    +0.000 A 
ATOM     24  O   UNL     1       7.628   5.843  15.263  0.00  0.00    +0.000 OA
ATOM     25  C   UNL     1       6.919   6.142  16.418  0.00  0.00    +0.000 A 
ATOM     26  O   UNL     1       7.199   7.125  17.100  0.00  0.00    +0.000 OA
ENDBRANCH  13  16
ENDBRANCH   5  12
BRANCH   1  27
ATOM     27  C   UNL     1       3.520   2.696  20.099  0.00  0.00    +0.000 C 
ATOM     28  O   UNL     1       4.696   2.451  20.341  0.00  0.00    +0.000 OA
BRANCH  27  29
ATOM     29  O   UNL     1       2.598   1.752  19.745  0.00  0.00    +0.000 OA
BRANCH  29  31
ATOM     30  C   UNL     1       2.757   1.974  17.389  0.00  0.00    +0.000 C 
ATOM     31  C   UNL     1       1.822   2.050  18.581  0.00  0.00    +0.000 C 
ENDBRANCH  29  31
ENDBRANCH  27  29
ENDBRANCH   1  27
TORSDOF 6
ENDMDL
MODEL 4
REMARK VINA RESULT:      -9.0      3.000      7.000
REMARK  Name = 
REMARK  7 active torsions:
REMARK  status: ('A' for Active; 'I' for Inactive)
REMARK    1  A    between atoms: C_1  and  C_2
REMARK    2  A    between atoms: C_2  and  O_3
REMARK    3  A    between atoms: O_3  and  C_4
REMARK    4  A    between atoms: C_4  and  C_6
REMARK    5  A    between atoms: N_9  and  C_10
REMARK    6  A    between atoms: C_16  and  N_17
REMARK    7  A    between atoms: C_18  and  C_20
REMARK                            x       y       z     vdW  Elec       q    Type
REMARK                         _______ _______ _______ _____ _____    ______ ____
ROOT
ATOM      1  C   UNL     1       3.402   3.679  20.289  0.00  0.00    +0.000 A 
ATOM      2  C   UNL     1       2.606   4.095  21.375  0.00  0.00    +0.000 A 
ATOM      3  N   UNL     1       2.208   5.359  21.276  0.00  0.00    +0.000 NA
ATOM      4  N   UNL     1       2.636   5.755  20.048  0.00  0.00    +0.000 N 
ATOM      5  C   UNL     1       3.384   4.760  19.418  0.00  0.00    +0.000 A 
ENDROOT
BRANCH   4   6
ATOM      6  C   UNL     1       2.225   7.023  19.555  0.00  0.00    +0.000 A 
ATOM      7  C   UNL     1       2.500   7.343  18.214  0.00  0.00    +0.000 A 
ATOM      8  C   UNL     1       2.108   8.575  17.699  0.00  0.00    +0.000 A 
ATOM      9  C   UNL     1       1.471   9.506  18.518  0.00  0.00    +0.000 A 
ATOM     10  C   UNL     1       1.230   9.209  19.858  0.00  0.00    +0.000 A 
ATOM     11  C   UNL     1       1.603   7.968  20.379  0.00  0.00    +0.000 A 
ENDBRANCH   4   6
BRANCH   5  12
ATOM     12  N   UNL     1       4.049   4.933  18.208  0.00  0.00    +0.000 N 
ATOM     13  C   UNL     1       5.432   4.985  18.181  0.00  0.00    +0.000 C 
ATOM     14  O   UNL     1       6.143   4.868  19.178  0.00  0.00    +0.000 OA
ATOM     15  H   UNL     1       3.562   4.688  17.342  0.00  0.00    +0.000 HD
BRANCH  13  16
ATOM     16  C   UNL     1       6.040   5.043  16.812  0.00  0.00    +0.000 A 
ATOM     17  C   UNL     1       5.577   4.173  15.897  0.00  0.00    +0.000 A 
ATOM     18  C   UNL     1       6.080   4.197  14.535  0.00  0.00    +0.000 A 
ATOM     19  C   UNL     1       5.488   3.461  13.508  0.00  0.00    +0.000 A 
ATOM     20  C   UNL     1       6.021   3.512  12.216  0.00  0.00    +0.000 A 
ATOM     21  C   UNL     1       7.163   4.271  11.953  0.00  0.00    +0.000 A 
ATOM     22  C   UNL     1       7.759   5.010  12.975  0.00  0.00    +0.000 A 
ATOM     23  C   UNL     1       7.192   4.983  14.247  0.00  0.00    +0.000 A 
ATOM     24  O   UNL     1       7.738   5.831  15.224  0.00  0.00    +0.000 OA
ATOM     25  C   UNL     1       7.070   6.034  16.423  0.00  0.00    +0.000 A 
ATOM     26  O   UNL     1       7.319   7.004  17.136  0.00  0.00    +0.000 OA
ENDBRANCH  13  16
ENDBRANCH   5  12
BRANCH   1  27
ATOM     27  C   UNL     1       4.135   2.435  20.182  0.00  0.00    +0.000 C 
ATOM     28  O   UNL     1       4.784   1.924  21.086  0.00  0.00    +0.000 OA
BRANCH  27  29
ATOM     29  O   UNL     1       3.990   1.887  18.939  0.00  0.00    +0.000 OA
BRANCH  29  31
ATOM     30  C   UNL     1       2.340   2.169  17.258  0.00  0.00    +0.000 C 
ATOM     31  C   UNL     1       2.658   1.503  18.583  0.00  0.00    +0.000 C 
ENDBRANCH  29  31
ENDBRANCH  27  29
ENDBRANCH   1  27
TORSDOF 6
ENDMDL
MODEL 5
REMARK VINA RESULT:      -9.0      3.133      7.211
REMARK  Name = 
REMARK  7 active torsions:
REMARK  status: ('A' for Active; 'I' for Inactive)
REMARK    1  A    between atoms: C_1  and  C_2
REMARK    2  A    between atoms: C_2  and  O_3
REMARK    3  A    between atoms: O_3  and  C_4
REMARK    4  A    between atoms: C_4  and  C_6
REMARK    5  A    between atoms: N_9  and  C_10
REMARK    6  A    between atoms: C_16  and  N_17
REMARK    7  A    between atoms: C_18  and  C_20
REMARK                            x       y       z     vdW  Elec       q    Type
REMARK                         _______ _______ _______ _____ _____    ______ ____
ROOT
ATOM      1  C   UNL     1       3.461   3.113  20.123  0.00  0.00    +0.000 A 
ATOM      2  C   UNL     1       2.684   3.454  21.248  0.00  0.00    +0.000 A 
ATOM      3  N   UNL     1       2.294   4.725  21.246  0.00  0.00    +0.000 NA
ATOM      4  N   UNL     1       2.707   5.205  20.044  0.00  0.00    +0.000 N 
ATOM      5  C   UNL     1       3.438   4.253  19.332  0.00  0.00    +0.000 A 
ENDROOT
BRANCH   4   6
ATOM      6  C   UNL     1       2.298   6.507  19.649  0.00  0.00    +0.000 A 
ATOM      7  C   UNL     1       2.539   6.915  18.326  0.00  0.00    +0.000 A 
ATOM      8  C   UNL     1       2.147   8.182  17.905  0.00  0.00    +0.000 A 
ATOM      9  C   UNL     1       1.545   9.063  18.803  0.00  0.00    +0.000 A 
ATOM     10  C   UNL     1       1.338   8.677  20.126  0.00  0.00    +0.000 A 
ATOM     11  C   UNL     1       1.710   7.401  20.552  0.00  0.00    +0.000 A 
ENDBRANCH   4   6
BRANCH   5  12
ATOM     12  N   UNL     1       4.086   4.508  18.128  0.00  0.00    +0.000 N 
ATOM     13  C   UNL     1       5.447   4.765  18.116  0.00  0.00    +0.000 C 
ATOM     14  O   UNL     1       6.153   4.766  19.122  0.00  0.00    +0.000 OA
ATOM     15  H   UNL     1       3.652   4.184  17.260  0.00  0.00    +0.000 HD
BRANCH  13  16
ATOM     16  C   UNL     1       6.057   4.896  16.754  0.00  0.00    +0.000 A 
ATOM     17  C   UNL     1       5.632   4.043  15.805  0.00  0.00    +0.000 A 
ATOM     18  C   UNL     1       6.140   4.136  14.447  0.00  0.00    +0.000 A 
ATOM     19  C   UNL     1       5.580   3.416  13.391  0.00  0.00    +0.000 A 
ATOM     20  C   UNL     1       6.116   3.534  12.104  0.00  0.00    +0.000 A 
ATOM     21  C   UNL     1       7.230   4.345  11.876  0.00  0.00    +0.000 A 
ATOM     22  C   UNL     1       7.792   5.068  12.927  0.00  0.00    +0.000 A 
ATOM     23  C   UNL     1       7.221   4.974  14.194  0.00  0.00    +0.000 A 
ATOM     24  O   UNL     1       7.731   5.806  15.205  0.00  0.00    +0.000 OA
ATOM     25  C   UNL     1       7.050   5.939  16.407  0.00  0.00    +0.000 A 
ATOM     26  O   UNL     1       7.259   6.891  17.155  0.00  0.00    +0.000 OA
ENDBRANCH  13  16
ENDBRANCH   5  12
BRANCH   1  27
ATOM     27  C   UNL     1       4.184   1.875  19.916  0.00  0.00    +0.000 C 
ATOM     28  O   UNL     1       4.118   1.185  18.906  0.00  0.00    +0.000 OA
BRANCH  27  29
ATOM     29  O   UNL     1       4.973   1.583  20.992  0.00  0.00    +0.000 OA
BRANCH  29  31
ATOM     30  C   UNL     1       6.302   0.120  22.304  0.00  0.00    +0.000 C 
ATOM     31  C   UNL     1       5.586   0.291  20.977  0.00  0.00    +0.000 C 
ENDBRANCH  29  31
ENDBRANCH  27  29
ENDBRANCH   1  27
TORSDOF 6
ENDMDL
MODEL 6
REMARK VINA RESULT:      -8.6      1.648      2.270
REMARK  Name = 
REMARK  7 active torsions:
REMARK  status: ('A' for Active; 'I' for Inactive)
REMARK    1  A    between atoms: C_1  and  C_2
REMARK    2  A    between atoms: C_2  and  O_3
REMARK    3  A    between atoms: O_3  and  C_4
REMARK    4  A    between atoms: C_4  and  C_6
REMARK    5  A    between atoms: N_9  and  C_10
REMARK    6  A    between atoms: C_16  and  N_17
REMARK    7  A    between atoms: C_18  and  C_20
REMARK                            x       y       z     vdW  Elec       q    Type
REMARK                         _______ _______ _______ _____ _____    ______ ____
ROOT
ATOM      1  C   UNL     1       2.227   2.750  18.445  0.00  0.00    +0.000 A 
ATOM      2  C   UNL     1       3.161   1.742  18.135  0.00  0.00    +0.000 A 
ATOM      3  N   UNL     1       4.243   2.204  17.518  0.00  0.00    +0.000 NA
ATOM      4  N   UNL     1       4.089   3.555  17.529  0.00  0.00    +0.000 N 
ATOM      5  C   UNL     1       2.860   3.929  18.075  0.00  0.00    +0.000 A 
ENDROOT
BRANCH   4   6
ATOM      6  C   UNL     1       5.165   4.371  17.087  0.00  0.00    +0.000 A 
ATOM      7  C   UNL     1       5.222   4.730  15.730  0.00  0.00    +0.000 A 
ATOM      8  C   UNL     1       6.260   5.531  15.265  0.00  0.00    +0.000 A 
ATOM      9  C   UNL     1       7.263   5.954  16.137  0.00  0.00    +0.000 A 
ATOM     10  C   UNL     1       7.231   5.571  17.476  0.00  0.00    +0.000 A 
ATOM     11  C   UNL     1       6.183   4.782  17.956  0.00  0.00    +0.000 A 
ENDBRANCH   4   6
BRANCH   5  12
ATOM     12  N   UNL     1       2.383   5.235  18.101  0.00  0.00    +0.000 N 
ATOM     13  C   UNL     1       2.779   6.097  19.110  0.00  0.00    +0.000 C 
ATOM     14  O   UNL     1       3.562   5.789  20.007  0.00  0.00    +0.000 OA
ATOM     15  H   UNL     1       2.033   5.645  17.231  0.00  0.00    +0.000 HD
BRANCH  13  16
ATOM     16  C   UNL     1       2.306   7.511  18.961  0.00  0.00    +0.000 A 
ATOM     17  C   UNL     1       1.651   8.053  20.002  0.00  0.00    +0.000 A 
ATOM     18  C   UNL     1       1.202   9.434  19.954  0.00  0.00    +0.000 A 
ATOM     19  C   UNL     1       0.708  10.096  21.078  0.00  0.00    +0.000 A 
ATOM     20  C   UNL     1       0.278  11.424  20.973  0.00  0.00    +0.000 A 
ATOM     21  C   UNL     1       0.311  12.080  19.741  0.00  0.00    +0.000 A 
ATOM     22  C   UNL     1       0.806  11.423  18.614  0.00  0.00    +0.000 A 
ATOM     23  C   UNL     1       1.270  10.116  18.743  0.00  0.00    +0.000 A 
ATOM     24  O   UNL     1       1.875   9.524  17.623  0.00  0.00    +0.000 OA
ATOM     25  C   UNL     1       2.573   8.332  17.757  0.00  0.00    +0.000 A 
ATOM     26  O   UNL     1       3.388   7.972  16.910  0.00  0.00    +0.000 OA
ENDBRANCH  13  16
ENDBRANCH   5  12
BRANCH   1  27
ATOM     27  C   UNL     1       0.883   2.558  18.947  0.00  0.00    +0.000 C 
ATOM     28  O   UNL     1       0.024   1.872  18.407  0.00  0.00    +0.000 OA
BRANCH  27  29
ATOM     29  O   UNL     1       0.699   3.226  20.125  0.00  0.00    +0.000 OA
BRANCH  29  31
ATOM     30  C   UNL     1       2.266   3.561  21.874  0.00  0.00    +0.000 C 
ATOM     31  C   UNL     1       1.252   2.599  21.286  0.00  0.00    +0.000 C 
ENDBRANCH  29  31
ENDBRANCH  27  29
ENDBRANCH   1  27
TORSDOF 6
ENDMDL
MODEL 7
REMARK VINA RESULT:      -8.6      1.153      1.620
REMARK  Name = 
REMARK  7 active torsions:
REMARK  status: ('A' for Active; 'I' for Inactive)
REMARK    1  A    between atoms: C_1  and  C_2
REMARK    2  A    between atoms: C_2  and  O_3
REMARK    3  A    between atoms: O_3  and  C_4
REMARK    4  A    between atoms: C_4  and  C_6
REMARK    5  A    between atoms: N_9  and  C_10
REMARK    6  A    between atoms: C_16  and  N_17
REMARK    7  A    between atoms: C_18  and  C_20
REMARK                            x       y       z     vdW  Elec       q    Type
REMARK                         _______ _______ _______ _____ _____    ______ ____
ROOT
ATOM      1  C   UNL     1       2.781   3.693  18.460  0.00  0.00    +0.000 A 
ATOM      2  C   UNL     1       3.750   2.900  17.813  0.00  0.00    +0.000 A 
ATOM      3  N   UNL     1       4.865   3.566  17.532  0.00  0.00    +0.000 NA
ATOM      4  N   UNL     1       4.689   4.782  18.111  0.00  0.00    +0.000 N 
ATOM      5  C   UNL     1       3.420   4.905  18.678  0.00  0.00    +0.000 A 
ENDROOT
BRANCH   4   6
ATOM      6  C   UNL     1       5.781   5.692  18.140  0.00  0.00    +0.000 A 
ATOM      7  C   UNL     1       5.779   6.772  17.240  0.00  0.00    +0.000 A 
ATOM      8  C   UNL     1       6.831   7.683  17.245  0.00  0.00    +0.000 A 
ATOM      9  C   UNL     1       7.904   7.510  18.117  0.00  0.00    +0.000 A 
ATOM     10  C   UNL     1       7.930   6.419  18.985  0.00  0.00    +0.000 A 
ATOM     11  C   UNL     1       6.870   5.511  19.001  0.00  0.00    +0.000 A 
ENDBRANCH   4   6
BRANCH   5  12
ATOM     12  N   UNL     1       2.923   6.082  19.228  0.00  0.00    +0.000 N 
ATOM     13  C   UNL     1       2.369   7.050  18.407  0.00  0.00    +0.000 C 
ATOM     14  O   UNL     1       2.264   6.936  17.188  0.00  0.00    +0.000 OA
ATOM     15  H   UNL     1       2.664   6.088  20.218  0.00  0.00    +0.000 HD
BRANCH  13  16
ATOM     16  C   UNL     1       1.751   8.212  19.123  0.00  0.00    +0.000 A 
ATOM     17  C   UNL     1       1.253   7.984  20.352  0.00  0.00    +0.000 A 
ATOM     18  C   UNL     1       0.680   9.069  21.129  0.00  0.00    +0.000 A 
ATOM     19  C   UNL     1       0.346   8.925  22.476  0.00  0.00    +0.000 A 
ATOM     20  C   UNL     1      -0.214  10.000  23.175  0.00  0.00    +0.000 A 
ATOM     21  C   UNL     1      -0.470  11.208  22.523  0.00  0.00    +0.000 A 
ATOM     22  C   UNL     1      -0.136  11.359  21.178  0.00  0.00    +0.000 A 
ATOM     23  C   UNL     1       0.460  10.294  20.506  0.00  0.00    +0.000 A 
ATOM     24  O   UNL     1       0.898  10.514  19.189  0.00  0.00    +0.000 OA
ATOM     25  C   UNL     1       1.714   9.583  18.562  0.00  0.00    +0.000 A 
ATOM     26  O   UNL     1       2.387   9.886  17.579  0.00  0.00    +0.000 OA
ENDBRANCH  13  16
ENDBRANCH   5  12
BRANCH   1  27
ATOM     27  C   UNL     1       1.408   3.325  18.735  0.00  0.00    +0.000 C 
ATOM     28  O   UNL     1       0.693   2.672  17.985  0.00  0.00    +0.000 OA
BRANCH  27  29
ATOM     29  O   UNL     1       1.014   3.784  19.961  0.00  0.00    +0.000 OA
BRANCH  29  31
ATOM     30  C   UNL     1       2.275   3.363  21.925  0.00  0.00    +0.000 C 
ATOM     31  C   UNL     1       1.150   2.857  21.042  0.00  0.00    +0.000 C 
ENDBRANCH  29  31
ENDBRANCH  27  29
ENDBRANCH   1  27
TORSDOF 6
ENDMDL
MODEL 8
REMARK VINA RESULT:      -8.5      1.544      2.504
REMARK  Name = 
REMARK  7 active torsions:
REMARK  status: ('A' for Active; 'I' for Inactive)
REMARK    1  A    between atoms: C_1  and  C_2
REMARK    2  A    between atoms: C_2  and  O_3
REMARK    3  A    between atoms: O_3  and  C_4
REMARK    4  A    between atoms: C_4  and  C_6
REMARK    5  A    between atoms: N_9  and  C_10
REMARK    6  A    between atoms: C_16  and  N_17
REMARK    7  A    between atoms: C_18  and  C_20
REMARK                            x       y       z     vdW  Elec       q    Type
REMARK                         _______ _______ _______ _____ _____    ______ ____
ROOT
ATOM      1  C   UNL     1       2.805   3.680  18.398  0.00  0.00    +0.000 A 
ATOM      2  C   UNL     1       3.739   2.909  17.678  0.00  0.00    +0.000 A 
ATOM      3  N   UNL     1       4.848   3.578  17.379  0.00  0.00    +0.000 NA
ATOM      4  N   UNL     1       4.707   4.770  18.017  0.00  0.00    +0.000 N 
ATOM      5  C   UNL     1       3.464   4.877  18.641  0.00  0.00    +0.000 A 
ENDROOT
BRANCH   4   6
ATOM      6  C   UNL     1       5.807   5.670  18.038  0.00  0.00    +0.000 A 
ATOM      7  C   UNL     1       6.845   5.441  18.957  0.00  0.00    +0.000 A 
ATOM      8  C   UNL     1       7.938   6.301  19.002  0.00  0.00    +0.000 A 
ATOM      9  C   UNL     1       7.992   7.409  18.158  0.00  0.00    +0.000 A 
ATOM     10  C   UNL     1       6.947   7.662  17.270  0.00  0.00    +0.000 A 
ATOM     11  C   UNL     1       5.856   6.794  17.205  0.00  0.00    +0.000 A 
ENDBRANCH   4   6
BRANCH   5  12
ATOM     12  N   UNL     1       3.000   6.032  19.262  0.00  0.00    +0.000 N 
ATOM     13  C   UNL     1       2.420   7.038  18.507  0.00  0.00    +0.000 C 
ATOM     14  O   UNL     1       2.261   6.977  17.289  0.00  0.00    +0.000 OA
ATOM     15  H   UNL     1       2.783   5.997  20.261  0.00  0.00    +0.000 HD
BRANCH  13  16
ATOM     16  C   UNL     1       1.842   8.172  19.298  0.00  0.00    +0.000 A 
ATOM     17  C   UNL     1       1.662   9.341  18.655  0.00  0.00    +0.000 A 
ATOM     18  C   UNL     1       1.063  10.474  19.338  0.00  0.00    +0.000 A 
ATOM     19  C   UNL     1       0.669  11.628  18.662  0.00  0.00    +0.000 A 
ATOM     20  C   UNL     1       0.107  12.696  19.370  0.00  0.00    +0.000 A 
ATOM     21  C   UNL     1      -0.032  12.625  20.758  0.00  0.00    +0.000 A 
ATOM     22  C   UNL     1       0.358  11.473  21.440  0.00  0.00    +0.000 A 
ATOM     23  C   UNL     1       0.876  10.402  20.715  0.00  0.00    +0.000 A 
ATOM     24  O   UNL     1       1.146   9.211  21.411  0.00  0.00    +0.000 OA
ATOM     25  C   UNL     1       1.422   8.044  20.713  0.00  0.00    +0.000 A 
ATOM     26  O   UNL     1       1.318   6.942  21.247  0.00  0.00    +0.000 OA
ENDBRANCH  13  16
ENDBRANCH   5  12
BRANCH   1  27
ATOM     27  C   UNL     1       1.442   3.310  18.715  0.00  0.00    +0.000 C 
ATOM     28  O   UNL     1       0.728   2.598  18.019  0.00  0.00    +0.000 OA
BRANCH  27  29
ATOM     29  O   UNL     1       1.056   3.842  19.913  0.00  0.00    +0.000 OA
BRANCH  29  31
ATOM     30  C   UNL     1       2.261   3.328  21.890  0.00  0.00    +0.000 C 
ATOM     31  C   UNL     1       1.076   2.942  21.025  0.00  0.00    +0.000 C 
ENDBRANCH  29  31
ENDBRANCH  27  29
ENDBRANCH   1  27
TORSDOF 6
ENDMDL
MODEL 9
REMARK VINA RESULT:      -8.5      1.681      4.627
REMARK  Name = 
REMARK  7 active torsions:
REMARK  status: ('A' for Active; 'I' for Inactive)
REMARK    1  A    between atoms: C_1  and  C_2
REMARK    2  A    between atoms: C_2  and  O_3
REMARK    3  A    between atoms: O_3  and  C_4
REMARK    4  A    between atoms: C_4  and  C_6
REMARK    5  A    between atoms: N_9  and  C_10
REMARK    6  A    between atoms: C_16  and  N_17
REMARK    7  A    between atoms: C_18  and  C_20
REMARK                            x       y       z     vdW  Elec       q    Type
REMARK                         _______ _______ _______ _____ _____    ______ ____
ROOT
ATOM      1  C   UNL     1       4.952   5.321  16.556  0.00  0.00    +0.000 A 
ATOM      2  C   UNL     1       5.483   4.016  16.588  0.00  0.00    +0.000 A 
ATOM      3  N   UNL     1       4.849   3.216  17.439  0.00  0.00    +0.000 NA
ATOM      4  N   UNL     1       3.802   3.958  17.887  0.00  0.00    +0.000 N 
ATOM      5  C   UNL     1       3.838   5.258  17.381  0.00  0.00    +0.000 A 
ENDROOT
BRANCH   4   6
ATOM      6  C   UNL     1       2.817   3.333  18.699  0.00  0.00    +0.000 A 
ATOM      7  C   UNL     1       1.572   3.023  18.126  0.00  0.00    +0.000 A 
ATOM      8  C   UNL     1       0.587   2.408  18.891  0.00  0.00    +0.000 A 
ATOM      9  C   UNL     1       0.819   2.126  20.237  0.00  0.00    +0.000 A 
ATOM     10  C   UNL     1       2.038   2.466  20.821  0.00  0.00    +0.000 A 
ATOM     11  C   UNL     1       3.040   3.066  20.055  0.00  0.00    +0.000 A 
ENDBRANCH   4   6
BRANCH   5  12
ATOM     12  N   UNL     1       2.963   6.269  17.767  0.00  0.00    +0.000 N 
ATOM     13  C   UNL     1       2.948   6.706  19.080  0.00  0.00    +0.000 C 
ATOM     14  O   UNL     1       3.687   6.266  19.959  0.00  0.00    +0.000 OA
ATOM     15  H   UNL     1       2.594   6.897  17.049  0.00  0.00    +0.000 HD
BRANCH  13  16
ATOM     16  C   UNL     1       2.061   7.884  19.348  0.00  0.00    +0.000 A 
ATOM     17  C   UNL     1       1.561   8.008  20.590  0.00  0.00    +0.000 A 
ATOM     18  C   UNL     1       0.732   9.148  20.942  0.00  0.00    +0.000 A 
ATOM     19  C   UNL     1       0.366   9.425  22.260  0.00  0.00    +0.000 A 
ATOM     20  C   UNL     1      -0.444  10.530  22.542  0.00  0.00    +0.000 A 
ATOM     21  C   UNL     1      -0.916  11.340  21.507  0.00  0.00    +0.000 A 
ATOM     22  C   UNL     1      -0.553  11.069  20.188  0.00  0.00    +0.000 A 
ATOM     23  C   UNL     1       0.290   9.990  19.927  0.00  0.00    +0.000 A 
ATOM     24  O   UNL     1       0.738   9.815  18.607  0.00  0.00    +0.000 OA
ATOM     25  C   UNL     1       1.763   8.922  18.333  0.00  0.00    +0.000 A 
ATOM     26  O   UNL     1       2.407   8.992  17.288  0.00  0.00    +0.000 OA
ENDBRANCH  13  16
ENDBRANCH   5  12
BRANCH   1  27
ATOM     27  C   UNL     1       5.520   6.468  15.879  0.00  0.00    +0.000 C 
ATOM     28  O   UNL     1       4.911   7.201  15.109  0.00  0.00    +0.000 OA
BRANCH  27  29
ATOM     29  O   UNL     1       6.829   6.644  16.230  0.00  0.00    +0.000 OA
BRANCH  29  31
ATOM     30  C   UNL     1       7.796   6.603  18.396  0.00  0.00    +0.000 C 
ATOM     31  C   UNL     1       7.056   7.458  17.385  0.00  0.00    +0.000 C 
ENDBRANCH  29  31
ENDBRANCH  27  29
ENDBRANCH   1  27
TORSDOF 6
ENDMDL
