MODEL 1
REMARK VINA RESULT:      -7.7      0.000      0.000
REMARK  Name = 
REMARK  9 active torsions:
REMARK  status: ('A' for Active; 'I' for Inactive)
REMARK    1  A    between atoms: C_1  and  O_2
REMARK    2  A    between atoms: O_2  and  C_3
REMARK    3  A    between atoms: C_6  and  C_7
REMARK    4  A    between atoms: C_10  and  C_12
REMARK    5  A    between atoms: C_12  and  C_13
REMARK    6  A    between atoms: C_13  and  C_14
REMARK    7  A    between atoms: C_13  and  C_15
REMARK    8  A    between atoms: C_13  and  C_16
REMARK    9  A    between atoms: C_18  and  C_19
REMARK                            x       y       z     vdW  Elec       q    Type
REMARK                         _______ _______ _______ _____ _____    ______ ____
ROOT
ATOM      1  C   UNL     1       5.358   5.600  17.184  0.00  0.00    +0.000 C 
ATOM      2  C   UNL     1       5.167   4.532  18.263  0.00  0.00    +0.000 C 
ATOM      3  N   UNL     1       4.205   3.627  17.686  0.00  0.00    +0.000 N 
ATOM      4  C   UNL     1       3.397   2.739  18.360  0.00  0.00    +0.000 C 
ATOM      5  O   UNL     1       2.678   1.955  17.751  0.00  0.00    +0.000 OA
ATOM      6  C   UNL     1       4.367   3.589  16.237  0.00  0.00    +0.000 C 
ATOM      7  C   UNL     1       5.175   4.849  15.843  0.00  0.00    +0.000 C 
ENDROOT
BRANCH   7   8
ATOM      8  C   UNL     1       6.413   4.509  15.017  0.00  0.00    +0.000 C 
ATOM      9  O   UNL     1       7.546   4.606  15.484  0.00  0.00    +0.000 OA
ATOM     10  N   UNL     1       6.215   4.052  13.727  0.00  0.00    +0.000 N 
ATOM     11  C   UNL     1       7.335   3.602  12.919  0.00  0.00    +0.000 C 
ATOM     12  C   UNL     1       6.790   3.602  11.503  0.00  0.00    +0.000 C 
ATOM     13  C   UNL     1       5.330   3.209  11.688  0.00  0.00    +0.000 C 
ATOM     14  C   UNL     1       4.956   3.739  13.069  0.00  0.00    +0.000 C 
ENDBRANCH   7   8
BRANCH   1  18
ATOM     15  C   UNL     1       8.377   8.337  18.561  0.00  0.00    +0.000 A 
ATOM     16  C   UNL     1       8.329   7.041  19.076  0.00  0.00    +0.000 A 
ATOM     17  C   UNL     1       7.437   6.097  18.561  0.00  0.00    +0.000 A 
ATOM     18  C   UNL     1       6.545   6.455  17.545  0.00  0.00    +0.000 A 
ATOM     19  C   UNL     1       6.644   7.742  16.989  0.00  0.00    +0.000 A 
ATOM     20  C   UNL     1       7.553   8.676  17.491  0.00  0.00    +0.000 A 
BRANCH  15  22
ATOM     21  C   UNL     1       9.234  10.537  18.784  0.00  0.00    +0.000 C 
ATOM     22  O   UNL     1       9.225   9.185  19.218  0.00  0.00    +0.000 OA
ENDBRANCH  15  22
ENDBRANCH   1  18
BRANCH   4  23
ATOM     23  C   UNL     1       3.448   2.823  19.889  0.00  0.00    +0.000 C 
BRANCH  23  24
ATOM     24  C   UNL     1       2.212   3.412  20.617  0.00  0.00    +0.000 C 
ATOM     25  C   UNL     1       1.982   2.730  21.975  0.00  0.00    +0.000 C 
ATOM     26  C   UNL     1       2.470   4.913  20.879  0.00  0.00    +0.000 C 
ATOM     27  C   UNL     1       0.951   3.302  19.742  0.00  0.00    +0.000 C 
ENDBRANCH  23  24
ENDBRANCH   4  23
TORSDOF 5
ENDMDL
MODEL 2
REMARK VINA RESULT:      -6.9      0.492      1.323
REMARK  Name = 
REMARK  9 active torsions:
REMARK  status: ('A' for Active; 'I' for Inactive)
REMARK    1  A    between atoms: C_1  and  O_2
REMARK    2  A    between atoms: O_2  and  C_3
REMARK    3  A    between atoms: C_6  and  C_7
REMARK    4  A    between atoms: C_10  and  C_12
REMARK    5  A    between atoms: C_12  and  C_13
REMARK    6  A    between atoms: C_13  and  C_14
REMARK    7  A    between atoms: C_13  and  C_15
REMARK    8  A    between atoms: C_13  and  C_16
REMARK    9  A    between atoms: C_18  and  C_19
REMARK                            x       y       z     vdW  Elec       q    Type
REMARK                         _______ _______ _______ _____ _____    ______ ____
ROOT
ATOM      1  C   UNL     1       4.919   5.534  17.378  0.00  0.00    +0.000 C 
ATOM      2  C   UNL     1       4.848   4.486  18.490  0.00  0.00    +0.000 C 
ATOM      3  N   UNL     1       4.093   3.408  17.901  0.00  0.00    +0.000 N 
ATOM      4  C   UNL     1       3.409   2.416  18.567  0.00  0.00    +0.000 C 
ATOM      5  O   UNL     1       2.875   1.499  17.954  0.00  0.00    +0.000 OA
ATOM      6  C   UNL     1       4.349   3.350  16.466  0.00  0.00    +0.000 C 
ATOM      7  C   UNL     1       4.952   4.717  16.063  0.00  0.00    +0.000 C 
ENDROOT
BRANCH   7   8
ATOM      8  C   UNL     1       6.279   4.570  15.322  0.00  0.00    +0.000 C 
ATOM      9  O   UNL     1       7.355   4.757  15.886  0.00  0.00    +0.000 OA
ATOM     10  N   UNL     1       6.232   4.183  13.995  0.00  0.00    +0.000 N 
ATOM     11  C   UNL     1       7.454   3.914  13.257  0.00  0.00    +0.000 C 
ATOM     12  C   UNL     1       7.020   3.951  11.804  0.00  0.00    +0.000 C 
ATOM     13  C   UNL     1       5.603   3.390  11.844  0.00  0.00    +0.000 C 
ATOM     14  C   UNL     1       5.070   3.782  13.219  0.00  0.00    +0.000 C 
ENDBRANCH   7   8
BRANCH   1  18
ATOM     15  C   UNL     1       8.112   8.333  18.066  0.00  0.00    +0.000 A 
ATOM     16  C   UNL     1       6.975   8.736  17.364  0.00  0.00    +0.000 A 
ATOM     17  C   UNL     1       5.875   7.885  17.230  0.00  0.00    +0.000 A 
ATOM     18  C   UNL     1       5.917   6.593  17.766  0.00  0.00    +0.000 A 
ATOM     19  C   UNL     1       7.040   6.219  18.524  0.00  0.00    +0.000 A 
ATOM     20  C   UNL     1       8.128   7.082  18.675  0.00  0.00    +0.000 A 
BRANCH  15  22
ATOM     21  C   UNL     1       9.205  10.167  19.098  0.00  0.00    +0.000 C 
ATOM     22  O   UNL     1       9.149   9.223  18.038  0.00  0.00    +0.000 OA
ENDBRANCH  15  22
ENDBRANCH   1  18
BRANCH   4  23
ATOM     23  C   UNL     1       3.350   2.559  20.091  0.00  0.00    +0.000 C 
BRANCH  23  24
ATOM     24  C   UNL     1       2.087   3.220  20.700  0.00  0.00    +0.000 C 
ATOM     25  C   UNL     1       2.316   4.713  20.985  0.00  0.00    +0.000 C 
ATOM     26  C   UNL     1       0.934   3.106  19.677  0.00  0.00    +0.000 C 
ATOM     27  C   UNL     1       1.645   2.493  21.983  0.00  0.00    +0.000 C 
ENDBRANCH  23  24
ENDBRANCH   4  23
TORSDOF 5
ENDMDL
MODEL 3
REMARK VINA RESULT:      -6.7      7.763     10.280
REMARK  Name = 
REMARK  9 active torsions:
REMARK  status: ('A' for Active; 'I' for Inactive)
REMARK    1  A    between atoms: C_1  and  O_2
REMARK    2  A    between atoms: O_2  and  C_3
REMARK    3  A    between atoms: C_6  and  C_7
REMARK    4  A    between atoms: C_10  and  C_12
REMARK    5  A    between atoms: C_12  and  C_13
REMARK    6  A    between atoms: C_13  and  C_14
REMARK    7  A    between atoms: C_13  and  C_15
REMARK    8  A    between atoms: C_13  and  C_16
REMARK    9  A    between atoms: C_18  and  C_19
REMARK                            x       y       z     vdW  Elec       q    Type
REMARK                         _______ _______ _______ _____ _____    ______ ____
ROOT
ATOM      1  C   UNL     1      -0.094  10.842  19.810  0.00  0.00    +0.000 C 
ATOM      2  C   UNL     1       0.691   9.601  20.239  0.00  0.00    +0.000 C 
ATOM      3  N   UNL     1       1.574   9.349  19.128  0.00  0.00    +0.000 N 
ATOM      4  C   UNL     1       2.194   8.160  18.817  0.00  0.00    +0.000 C 
ATOM      5  O   UNL     1       2.996   8.092  17.892  0.00  0.00    +0.000 OA
ATOM      6  C   UNL     1       1.937  10.608  18.488  0.00  0.00    +0.000 C 
ATOM      7  C   UNL     1       0.896  11.659  18.945  0.00  0.00    +0.000 C 
ENDROOT
BRANCH   7   8
ATOM      8  C   UNL     1       1.551  12.899  19.551  0.00  0.00    +0.000 C 
ATOM      9  O   UNL     1       2.601  12.827  20.186  0.00  0.00    +0.000 OA
ATOM     10  N   UNL     1       0.938  14.119  19.331  0.00  0.00    +0.000 N 
ATOM     11  C   UNL     1       1.560  15.353  19.778  0.00  0.00    +0.000 C 
ATOM     12  C   UNL     1       0.430  16.365  19.746  0.00  0.00    +0.000 C 
ATOM     13  C   UNL     1      -0.412  15.916  18.559  0.00  0.00    +0.000 C 
ATOM     14  C   UNL     1      -0.213  14.404  18.490  0.00  0.00    +0.000 C 
ENDBRANCH   7   8
BRANCH   1  18
ATOM     15  C   UNL     1      -2.691  11.988  23.042  0.00  0.00    +0.000 A 
ATOM     16  C   UNL     1      -1.599  11.154  23.292  0.00  0.00    +0.000 A 
ATOM     17  C   UNL     1      -0.673  10.864  22.286  0.00  0.00    +0.000 A 
ATOM     18  C   UNL     1      -0.854  11.375  20.996  0.00  0.00    +0.000 A 
ATOM     19  C   UNL     1      -1.921  12.263  20.771  0.00  0.00    +0.000 A 
ATOM     20  C   UNL     1      -2.831  12.569  21.786  0.00  0.00    +0.000 A 
BRANCH  15  22
ATOM     21  C   UNL     1      -4.478  13.200  24.022  0.00  0.00    +0.000 C 
ATOM     22  O   UNL     1      -3.568  12.111  24.083  0.00  0.00    +0.000 OA
ENDBRANCH  15  22
ENDBRANCH   1  18
BRANCH   4  23
ATOM     23  C   UNL     1       1.796   6.958  19.678  0.00  0.00    +0.000 C 
BRANCH  23  24
ATOM     24  C   UNL     1       2.415   5.582  19.319  0.00  0.00    +0.000 C 
ATOM     25  C   UNL     1       3.947   5.606  19.436  0.00  0.00    +0.000 C 
ATOM     26  C   UNL     1       1.881   4.531  20.318  0.00  0.00    +0.000 C 
ATOM     27  C   UNL     1       1.993   5.138  17.907  0.00  0.00    +0.000 C 
ENDBRANCH  23  24
ENDBRANCH   4  23
TORSDOF 5
ENDMDL
MODEL 4
REMARK VINA RESULT:      -6.7      3.921      6.389
REMARK  Name = 
REMARK  9 active torsions:
REMARK  status: ('A' for Active; 'I' for Inactive)
REMARK    1  A    between atoms: C_1  and  O_2
REMARK    2  A    between atoms: O_2  and  C_3
REMARK    3  A    between atoms: C_6  and  C_7
REMARK    4  A    between atoms: C_10  and  C_12
REMARK    5  A    between atoms: C_12  and  C_13
REMARK    6  A    between atoms: C_13  and  C_14
REMARK    7  A    between atoms: C_13  and  C_15
REMARK    8  A    between atoms: C_13  and  C_16
REMARK    9  A    between atoms: C_18  and  C_19
REMARK                            x       y       z     vdW  Elec       q    Type
REMARK                         _______ _______ _______ _____ _____    ______ ____
ROOT
ATOM      1  C   UNL     1       2.429   6.525  18.973  0.00  0.00    +0.000 C 
ATOM      2  C   UNL     1       2.401   7.759  19.876  0.00  0.00    +0.000 C 
ATOM      3  N   UNL     1       1.149   7.643  20.582  0.00  0.00    +0.000 N 
ATOM      4  C   UNL     1       0.453   8.656  21.203  0.00  0.00    +0.000 C 
ATOM      5  O   UNL     1      -0.561   8.417  21.849  0.00  0.00    +0.000 OA
ATOM      6  C   UNL     1       0.818   6.236  20.775  0.00  0.00    +0.000 C 
ATOM      7  C   UNL     1       1.677   5.431  19.770  0.00  0.00    +0.000 C 
ENDROOT
BRANCH   7   8
ATOM      8  C   UNL     1       2.488   4.331  20.451  0.00  0.00    +0.000 C 
ATOM      9  O   UNL     1       2.714   4.351  21.659  0.00  0.00    +0.000 OA
ATOM     10  N   UNL     1       2.933   3.284  19.665  0.00  0.00    +0.000 N 
ATOM     11  C   UNL     1       3.613   2.146  20.259  0.00  0.00    +0.000 C 
ATOM     12  C   UNL     1       4.295   1.472  19.084  0.00  0.00    +0.000 C 
ATOM     13  C   UNL     1       3.326   1.706  17.931  0.00  0.00    +0.000 C 
ATOM     14  C   UNL     1       2.637   3.026  18.265  0.00  0.00    +0.000 C 
ENDBRANCH   7   8
BRANCH   1  18
ATOM     15  C   UNL     1       6.241   5.531  17.246  0.00  0.00    +0.000 A 
ATOM     16  C   UNL     1       5.262   6.145  16.462  0.00  0.00    +0.000 A 
ATOM     17  C   UNL     1       4.063   6.586  17.026  0.00  0.00    +0.000 A 
ATOM     18  C   UNL     1       3.808   6.377  18.386  0.00  0.00    +0.000 A 
ATOM     19  C   UNL     1       4.823   5.816  19.179  0.00  0.00    +0.000 A 
ATOM     20  C   UNL     1       6.031   5.398  18.615  0.00  0.00    +0.000 A 
BRANCH  15  22
ATOM     21  C   UNL     1       7.101   4.710  15.194  0.00  0.00    +0.000 C 
ATOM     22  O   UNL     1       7.322   5.062  16.553  0.00  0.00    +0.000 OA
ENDBRANCH  15  22
ENDBRANCH   1  18
BRANCH   4  23
ATOM     23  C   UNL     1       1.016  10.066  21.008  0.00  0.00    +0.000 C 
BRANCH  23  24
ATOM     24  C   UNL     1       0.254  11.017  20.049  0.00  0.00    +0.000 C 
ATOM     25  C   UNL     1      -0.890  11.746  20.773  0.00  0.00    +0.000 C 
ATOM     26  C   UNL     1       1.243  12.086  19.533  0.00  0.00    +0.000 C 
ATOM     27  C   UNL     1      -0.288  10.254  18.828  0.00  0.00    +0.000 C 
ENDBRANCH  23  24
ENDBRANCH   4  23
TORSDOF 5
ENDMDL
MODEL 5
REMARK VINA RESULT:      -6.7     10.362     12.828
REMARK  Name = 
REMARK  9 active torsions:
REMARK  status: ('A' for Active; 'I' for Inactive)
REMARK    1  A    between atoms: C_1  and  O_2
REMARK    2  A    between atoms: O_2  and  C_3
REMARK    3  A    between atoms: C_6  and  C_7
REMARK    4  A    between atoms: C_10  and  C_12
REMARK    5  A    between atoms: C_12  and  C_13
REMARK    6  A    between atoms: C_13  and  C_14
REMARK    7  A    between atoms: C_13  and  C_15
REMARK    8  A    between atoms: C_13  and  C_16
REMARK    9  A    between atoms: C_18  and  C_19
REMARK                            x       y       z     vdW  Elec       q    Type
REMARK                         _______ _______ _______ _____ _____    ______ ____
ROOT
ATOM      1  C   UNL     1      -1.752  12.331  21.178  0.00  0.00    +0.000 C 
ATOM      2  C   UNL     1      -3.152  12.663  21.698  0.00  0.00    +0.000 C 
ATOM      3  N   UNL     1      -2.905  13.377  22.925  0.00  0.00    +0.000 N 
ATOM      4  C   UNL     1      -3.781  13.551  23.972  0.00  0.00    +0.000 C 
ATOM      5  O   UNL     1      -3.485  14.256  24.930  0.00  0.00    +0.000 OA
ATOM      6  C   UNL     1      -1.657  14.126  22.820  0.00  0.00    +0.000 C 
ATOM      7  C   UNL     1      -0.866  13.514  21.639  0.00  0.00    +0.000 C 
ENDROOT
BRANCH   7   8
ATOM      8  C   UNL     1      -0.452  14.565  20.612  0.00  0.00    +0.000 C 
ATOM      9  O   UNL     1      -1.189  15.505  20.319  0.00  0.00    +0.000 OA
ATOM     10  N   UNL     1       0.802  14.446  20.043  0.00  0.00    +0.000 N 
ATOM     11  C   UNL     1       1.311  15.467  19.144  0.00  0.00    +0.000 C 
ATOM     12  C   UNL     1       2.463  14.787  18.429  0.00  0.00    +0.000 C 
ATOM     13  C   UNL     1       3.040  13.861  19.493  0.00  0.00    +0.000 C 
ATOM     14  C   UNL     1       1.851  13.494  20.376  0.00  0.00    +0.000 C 
ENDBRANCH   7   8
BRANCH   1  18
ATOM     15  C   UNL     1      -2.222  10.382  17.373  0.00  0.00    +0.000 A 
ATOM     16  C   UNL     1      -3.205  11.264  17.827  0.00  0.00    +0.000 A 
ATOM     17  C   UNL     1      -3.021  12.000  19.000  0.00  0.00    +0.000 A 
ATOM     18  C   UNL     1      -1.861  11.828  19.762  0.00  0.00    +0.000 A 
ATOM     19  C   UNL     1      -0.851  10.987  19.265  0.00  0.00    +0.000 A 
ATOM     20  C   UNL     1      -1.028  10.271  18.079  0.00  0.00    +0.000 A 
BRANCH  15  22
ATOM     21  C   UNL     1      -2.980  10.395  15.125  0.00  0.00    +0.000 C 
ATOM     22  O   UNL     1      -2.569   9.656  16.267  0.00  0.00    +0.000 OA
ENDBRANCH  15  22
ENDBRANCH   1  18
BRANCH   4  23
ATOM     23  C   UNL     1      -5.109  12.795  23.860  0.00  0.00    +0.000 C 
BRANCH  23  24
ATOM     24  C   UNL     1      -6.327  13.566  23.289  0.00  0.00    +0.000 C 
ATOM     25  C   UNL     1      -6.805  12.958  21.961  0.00  0.00    +0.000 C 
ATOM     26  C   UNL     1      -7.489  13.461  24.303  0.00  0.00    +0.000 C 
ATOM     27  C   UNL     1      -6.000  15.059  23.108  0.00  0.00    +0.000 C 
ENDBRANCH  23  24
ENDBRANCH   4  23
TORSDOF 5
ENDMDL
MODEL 6
REMARK VINA RESULT:      -6.7      8.535     11.082
REMARK  Name = 
REMARK  9 active torsions:
REMARK  status: ('A' for Active; 'I' for Inactive)
REMARK    1  A    between atoms: C_1  and  O_2
REMARK    2  A    between atoms: O_2  and  C_3
REMARK    3  A    between atoms: C_6  and  C_7
REMARK    4  A    between atoms: C_10  and  C_12
REMARK    5  A    between atoms: C_12  and  C_13
REMARK    6  A    between atoms: C_13  and  C_14
REMARK    7  A    between atoms: C_13  and  C_15
REMARK    8  A    between atoms: C_13  and  C_16
REMARK    9  A    between atoms: C_18  and  C_19
REMARK                            x       y       z     vdW  Elec       q    Type
REMARK                         _______ _______ _______ _____ _____    ______ ____
ROOT
ATOM      1  C   UNL     1      -0.904  11.305  19.917  0.00  0.00    +0.000 C 
ATOM      2  C   UNL     1      -0.776  12.829  19.905  0.00  0.00    +0.000 C 
ATOM      3  N   UNL     1       0.325  13.090  20.799  0.00  0.00    +0.000 N 
ATOM      4  C   UNL     1       0.600  14.272  21.450  0.00  0.00    +0.000 C 
ATOM      5  O   UNL     1       1.620  14.399  22.118  0.00  0.00    +0.000 OA
ATOM      6  C   UNL     1       1.281  11.991  20.741  0.00  0.00    +0.000 C 
ATOM      7  C   UNL     1       0.541  10.786  20.112  0.00  0.00    +0.000 C 
ENDROOT
BRANCH   7   8
ATOM      8  C   UNL     1       1.285  10.213  18.908  0.00  0.00    +0.000 C 
ATOM      9  O   UNL     1       1.511  10.891  17.908  0.00  0.00    +0.000 OA
ATOM     10  N   UNL     1       1.731   8.907  18.993  0.00  0.00    +0.000 N 
ATOM     11  C   UNL     1       2.542   8.329  17.936  0.00  0.00    +0.000 C 
ATOM     12  C   UNL     1       2.455   6.834  18.181  0.00  0.00    +0.000 C 
ATOM     13  C   UNL     1       2.376   6.730  19.700  0.00  0.00    +0.000 C 
ATOM     14  C   UNL     1       1.682   8.016  20.141  0.00  0.00    +0.000 C 
ENDBRANCH   7   8
BRANCH   1  18
ATOM     15  C   UNL     1      -3.346  10.555  16.456  0.00  0.00    +0.000 A 
ATOM     16  C   UNL     1      -2.221   9.765  16.696  0.00  0.00    +0.000 A 
ATOM     17  C   UNL     1      -1.480   9.909  17.871  0.00  0.00    +0.000 A 
ATOM     18  C   UNL     1      -1.835  10.883  18.811  0.00  0.00    +0.000 A 
ATOM     19  C   UNL     1      -3.006  11.630  18.591  0.00  0.00    +0.000 A 
ATOM     20  C   UNL     1      -3.757  11.467  17.424  0.00  0.00    +0.000 A 
BRANCH  15  22
ATOM     21  C   UNL     1      -3.037  10.145  14.141  0.00  0.00    +0.000 C 
ATOM     22  O   UNL     1      -3.921  10.379  15.228  0.00  0.00    +0.000 OA
ENDBRANCH  15  22
ENDBRANCH   1  18
BRANCH   4  23
ATOM     23  C   UNL     1      -0.451  15.376  21.296  0.00  0.00    +0.000 C 
BRANCH  23  24
ATOM     24  C   UNL     1      -0.136  16.532  20.312  0.00  0.00    +0.000 C 
ATOM     25  C   UNL     1       0.910  16.113  19.267  0.00  0.00    +0.000 C 
ATOM     26  C   UNL     1      -1.436  16.899  19.559  0.00  0.00    +0.000 C 
ATOM     27  C   UNL     1       0.335  17.788  21.067  0.00  0.00    +0.000 C 
ENDBRANCH  23  24
ENDBRANCH   4  23
TORSDOF 5
ENDMDL
MODEL 7
REMARK VINA RESULT:      -6.6      9.313     11.644
REMARK  Name = 
REMARK  9 active torsions:
REMARK  status: ('A' for Active; 'I' for Inactive)
REMARK    1  A    between atoms: C_1  and  O_2
REMARK    2  A    between atoms: O_2  and  C_3
REMARK    3  A    between atoms: C_6  and  C_7
REMARK    4  A    between atoms: C_10  and  C_12
REMARK    5  A    between atoms: C_12  and  C_13
REMARK    6  A    between atoms: C_13  and  C_14
REMARK    7  A    between atoms: C_13  and  C_15
REMARK    8  A    between atoms: C_13  and  C_16
REMARK    9  A    between atoms: C_18  and  C_19
REMARK                            x       y       z     vdW  Elec       q    Type
REMARK                         _______ _______ _______ _____ _____    ______ ____
ROOT
ATOM      1  C   UNL     1      -1.714  11.641  20.327  0.00  0.00    +0.000 C 
ATOM      2  C   UNL     1      -2.035  13.110  20.612  0.00  0.00    +0.000 C 
ATOM      3  N   UNL     1      -1.061  13.490  21.604  0.00  0.00    +0.000 N 
ATOM      4  C   UNL     1      -1.143  14.548  22.481  0.00  0.00    +0.000 C 
ATOM      5  O   UNL     1      -0.207  14.825  23.222  0.00  0.00    +0.000 OA
ATOM      6  C   UNL     1       0.175  12.743  21.397  0.00  0.00    +0.000 C 
ATOM      7  C   UNL     1      -0.181  11.527  20.508  0.00  0.00    +0.000 C 
ENDROOT
BRANCH   7   8
ATOM      8  C   UNL     1       0.701  11.440  19.265  0.00  0.00    +0.000 C 
ATOM      9  O   UNL     1       0.912  12.421  18.555  0.00  0.00    +0.000 OA
ATOM     10  N   UNL     1       1.287  10.220  18.980  0.00  0.00    +0.000 N 
ATOM     11  C   UNL     1       2.227  10.087  17.880  0.00  0.00    +0.000 C 
ATOM     12  C   UNL     1       2.296   8.592  17.635  0.00  0.00    +0.000 C 
ATOM     13  C   UNL     1       2.130   7.998  19.029  0.00  0.00    +0.000 C 
ATOM     14  C   UNL     1       1.266   9.007  19.781  0.00  0.00    +0.000 C 
ENDBRANCH   7   8
BRANCH   1  18
ATOM     15  C   UNL     1      -3.640  10.831  16.567  0.00  0.00    +0.000 A 
ATOM     16  C   UNL     1      -2.561  10.045  16.978  0.00  0.00    +0.000 A 
ATOM     17  C   UNL     1      -1.995  10.210  18.245  0.00  0.00    +0.000 A 
ATOM     18  C   UNL     1      -2.479  11.200  19.107  0.00  0.00    +0.000 A 
ATOM     19  C   UNL     1      -3.605  11.942  18.710  0.00  0.00    +0.000 A 
ATOM     20  C   UNL     1      -4.182  11.758  17.451  0.00  0.00    +0.000 A 
BRANCH  15  22
ATOM     21  C   UNL     1      -3.065  10.084  14.391  0.00  0.00    +0.000 C 
ATOM     22  O   UNL     1      -4.033  10.633  15.273  0.00  0.00    +0.000 OA
ENDBRANCH  15  22
ENDBRANCH   1  18
BRANCH   4  23
ATOM     23  C   UNL     1      -2.469  15.314  22.475  0.00  0.00    +0.000 C 
BRANCH  23  24
ATOM     24  C   UNL     1      -3.431  15.093  23.671  0.00  0.00    +0.000 C 
ATOM     25  C   UNL     1      -3.088  16.020  24.848  0.00  0.00    +0.000 C 
ATOM     26  C   UNL     1      -4.868  15.427  23.210  0.00  0.00    +0.000 C 
ATOM     27  C   UNL     1      -3.418  13.623  24.127  0.00  0.00    +0.000 C 
ENDBRANCH  23  24
ENDBRANCH   4  23
TORSDOF 5
ENDMDL
MODEL 8
REMARK VINA RESULT:      -6.6      7.800     10.959
REMARK  Name = 
REMARK  9 active torsions:
REMARK  status: ('A' for Active; 'I' for Inactive)
REMARK    1  A    between atoms: C_1  and  O_2
REMARK    2  A    between atoms: O_2  and  C_3
REMARK    3  A    between atoms: C_6  and  C_7
REMARK    4  A    between atoms: C_10  and  C_12
REMARK    5  A    between atoms: C_12  and  C_13
REMARK    6  A    between atoms: C_13  and  C_14
REMARK    7  A    between atoms: C_13  and  C_15
REMARK    8  A    between atoms: C_13  and  C_16
REMARK    9  A    between atoms: C_18  and  C_19
REMARK                            x       y       z     vdW  Elec       q    Type
REMARK                         _______ _______ _______ _____ _____    ______ ____
ROOT
ATOM      1  C   UNL     1       1.088  12.189  18.568  0.00  0.00    +0.000 C 
ATOM      2  C   UNL     1       1.850  12.967  19.642  0.00  0.00    +0.000 C 
ATOM      3  N   UNL     1       1.519  14.344  19.373  0.00  0.00    +0.000 N 
ATOM      4  C   UNL     1       2.225  15.458  19.768  0.00  0.00    +0.000 C 
ATOM      5  O   UNL     1       1.794  16.585  19.552  0.00  0.00    +0.000 OA
ATOM      6  C   UNL     1       0.172  14.431  18.820  0.00  0.00    +0.000 C 
ATOM      7  C   UNL     1      -0.197  13.014  18.316  0.00  0.00    +0.000 C 
ENDROOT
BRANCH   7   8
ATOM      8  C   UNL     1      -1.516  12.516  18.901  0.00  0.00    +0.000 C 
ATOM      9  O   UNL     1      -1.894  12.856  20.020  0.00  0.00    +0.000 OA
ATOM     10  N   UNL     1      -2.296  11.690  18.112  0.00  0.00    +0.000 N 
ATOM     11  C   UNL     1      -3.613  11.267  18.554  0.00  0.00    +0.000 C 
ATOM     12  C   UNL     1      -3.937  10.083  17.662  0.00  0.00    +0.000 C 
ATOM     13  C   UNL     1      -3.277  10.449  16.338  0.00  0.00    +0.000 C 
ATOM     14  C   UNL     1      -2.077  11.309  16.726  0.00  0.00    +0.000 C 
ENDBRANCH   7   8
BRANCH   1  18
ATOM     15  C   UNL     1       1.766   8.079  19.641  0.00  0.00    +0.000 A 
ATOM     16  C   UNL     1       1.148   8.941  20.549  0.00  0.00    +0.000 A 
ATOM     17  C   UNL     1       0.808  10.246  20.183  0.00  0.00    +0.000 A 
ATOM     18  C   UNL     1       1.125  10.722  18.906  0.00  0.00    +0.000 A 
ATOM     19  C   UNL     1       1.690   9.829  17.979  0.00  0.00    +0.000 A 
ATOM     20  C   UNL     1       2.006   8.518  18.342  0.00  0.00    +0.000 A 
BRANCH  15  22
ATOM     21  C   UNL     1       2.560   5.884  19.226  0.00  0.00    +0.000 C 
ATOM     22  O   UNL     1       2.129   6.866  20.157  0.00  0.00    +0.000 OA
ENDBRANCH  15  22
ENDBRANCH   1  18
BRANCH   4  23
ATOM     23  C   UNL     1       3.565  15.185  20.457  0.00  0.00    +0.000 C 
BRANCH  23  24
ATOM     24  C   UNL     1       4.858  15.537  19.677  0.00  0.00    +0.000 C 
ATOM     25  C   UNL     1       4.780  15.062  18.217  0.00  0.00    +0.000 C 
ATOM     26  C   UNL     1       5.018  17.074  19.666  0.00  0.00    +0.000 C 
ATOM     27  C   UNL     1       6.099  14.944  20.366  0.00  0.00    +0.000 C 
ENDBRANCH  23  24
ENDBRANCH   4  23
TORSDOF 5
ENDMDL
MODEL 9
REMARK VINA RESULT:      -6.6      8.668     11.026
REMARK  Name = 
REMARK  9 active torsions:
REMARK  status: ('A' for Active; 'I' for Inactive)
REMARK    1  A    between atoms: C_1  and  O_2
REMARK    2  A    between atoms: O_2  and  C_3
REMARK    3  A    between atoms: C_6  and  C_7
REMARK    4  A    between atoms: C_10  and  C_12
REMARK    5  A    between atoms: C_12  and  C_13
REMARK    6  A    between atoms: C_13  and  C_14
REMARK    7  A    between atoms: C_13  and  C_15
REMARK    8  A    between atoms: C_13  and  C_16
REMARK    9  A    between atoms: C_18  and  C_19
REMARK                            x       y       z     vdW  Elec       q    Type
REMARK                         _______ _______ _______ _____ _____    ______ ____
ROOT
ATOM      1  C   UNL     1      -0.921  11.380  20.043  0.00  0.00    +0.000 C 
ATOM      2  C   UNL     1      -0.813  12.906  20.064  0.00  0.00    +0.000 C 
ATOM      3  N   UNL     1       0.298  13.162  20.946  0.00  0.00    +0.000 N 
ATOM      4  C   UNL     1       0.567  14.332  21.619  0.00  0.00    +0.000 C 
ATOM      5  O   UNL     1       1.595  14.458  22.275  0.00  0.00    +0.000 OA
ATOM      6  C   UNL     1       1.268  12.077  20.850  0.00  0.00    +0.000 C 
ATOM      7  C   UNL     1       0.534  10.876  20.204  0.00  0.00    +0.000 C 
ENDROOT
BRANCH   7   8
ATOM      8  C   UNL     1       1.266  10.340  18.976  0.00  0.00    +0.000 C 
ATOM      9  O   UNL     1       1.487  11.050  17.997  0.00  0.00    +0.000 OA
ATOM     10  N   UNL     1       1.709   9.031  19.016  0.00  0.00    +0.000 N 
ATOM     11  C   UNL     1       2.510   8.485  17.934  0.00  0.00    +0.000 C 
ATOM     12  C   UNL     1       2.419   6.983  18.132  0.00  0.00    +0.000 C 
ATOM     13  C   UNL     1       2.352   6.831  19.647  0.00  0.00    +0.000 C 
ATOM     14  C   UNL     1       1.666   8.104  20.135  0.00  0.00    +0.000 C 
ENDBRANCH   7   8
BRANCH   1  18
ATOM     15  C   UNL     1      -3.379  10.652  16.589  0.00  0.00    +0.000 A 
ATOM     16  C   UNL     1      -2.282   9.828  16.846  0.00  0.00    +0.000 A 
ATOM     17  C   UNL     1      -1.540   9.967  18.021  0.00  0.00    +0.000 A 
ATOM     18  C   UNL     1      -1.864  10.970  18.942  0.00  0.00    +0.000 A 
ATOM     19  C   UNL     1      -3.007  11.753  18.705  0.00  0.00    +0.000 A 
ATOM     20  C   UNL     1      -3.760  11.595  17.539  0.00  0.00    +0.000 A 
BRANCH  15  22
ATOM     21  C   UNL     1      -3.086  10.120  14.296  0.00  0.00    +0.000 C 
ATOM     22  O   UNL     1      -3.956  10.474  15.362  0.00  0.00    +0.000 OA
ENDBRANCH  15  22
ENDBRANCH   1  18
BRANCH   4  23
ATOM     23  C   UNL     1      -0.500  15.425  21.506  0.00  0.00    +0.000 C 
BRANCH  23  24
ATOM     24  C   UNL     1      -1.475  15.600  22.699  0.00  0.00    +0.000 C 
ATOM     25  C   UNL     1      -1.141  16.857  23.518  0.00  0.00    +0.000 C 
ATOM     26  C   UNL     1      -2.906  15.768  22.138  0.00  0.00    +0.000 C 
ATOM     27  C   UNL     1      -1.472  14.356  23.604  0.00  0.00    +0.000 C 
ENDBRANCH  23  24
ENDBRANCH   4  23
TORSDOF 5
ENDMDL
