MODEL 1
REMARK VINA RESULT:      -7.5      0.000      0.000
REMARK  Name = 
REMARK  8 active torsions:
REMARK  status: ('A' for Active; 'I' for Inactive)
REMARK    1  A    between atoms: C_1  and  C_2
REMARK    2  A    between atoms: C_2  and  C_3
REMARK    3  A    between atoms: N_5  and  C_6
REMARK    4  A    between atoms: C_6  and  C_7
REMARK    5  A    between atoms: C_6  and  C_15
REMARK    6  A    between atoms: C_10  and  O_11
REMARK    7  A    between atoms: O_11  and  C_12
REMARK    8  A    between atoms: C_25  and  O_26
REMARK                            x       y       z     vdW  Elec       q    Type
REMARK                         _______ _______ _______ _____ _____    ______ ____
ROOT
ATOM      1  C   UNL     1       3.777   5.202  19.041  0.00  0.00    +0.000 C 
ENDROOT
BRANCH   1   2
ATOM      2  C   UNL     1       2.940   6.459  19.294  0.00  0.00    +0.000 A 
ATOM      3  C   UNL     1       2.973   7.501  18.356  0.00  0.00    +0.000 A 
ATOM      4  C   UNL     1       2.185   8.647  18.528  0.00  0.00    +0.000 A 
ATOM      5 CL   UNL     1       2.319   9.891  17.329  0.00  0.00    +0.000 Cl
ATOM      6  C   UNL     1       1.334   8.795  19.649  0.00  0.00    +0.000 A 
ATOM      7  C   UNL     1       0.410   9.845  19.848  0.00  0.00    +0.000 A 
ATOM      8  C   UNL     1      -0.353   9.909  21.011  0.00  0.00    +0.000 A 
ATOM      9  C   UNL     1      -0.140   8.947  21.975  0.00  0.00    +0.000 A 
ATOM     10  N   UNL     1       0.682   7.890  21.805  0.00  0.00    +0.000 NA
ATOM     11  C   UNL     1       1.372   7.806  20.646  0.00  0.00    +0.000 A 
ATOM     12  C   UNL     1       2.133   6.655  20.427  0.00  0.00    +0.000 A 
BRANCH  12  13
ATOM     13  O   UNL     1       2.032   5.665  21.389  0.00  0.00    +0.000 OA
ATOM     14  H   UNL     1       2.776   5.867  22.005  0.00  0.00    +0.000 HD
ENDBRANCH  12  13
ENDBRANCH   1   2
BRANCH   1  15
ATOM     15  C   UNL     1       4.780   5.352  17.895  0.00  0.00    +0.000 A 
ATOM     16  C   UNL     1       4.502   4.872  16.606  0.00  0.00    +0.000 A 
ATOM     17  C   UNL     1       5.469   4.939  15.597  0.00  0.00    +0.000 A 
ATOM     18  C   UNL     1       6.721   5.503  15.843  0.00  0.00    +0.000 A 
ATOM     19  C   UNL     1       7.012   5.988  17.116  0.00  0.00    +0.000 A 
ATOM     20  C   UNL     1       6.048   5.911  18.133  0.00  0.00    +0.000 A 
BRANCH  18  21
ATOM     21  O   UNL     1       7.587   5.471  14.784  0.00  0.00    +0.000 OA
ATOM     22  C   UNL     1       7.142   4.753  13.639  0.00  0.00    +0.000 C 
ENDBRANCH  18  21
ENDBRANCH   1  15
BRANCH   1  25
ATOM     23  C   UNL     1       3.167   2.794  19.311  0.00  0.00    +0.000 C 
ATOM     24  O   UNL     1       4.125   2.507  20.012  0.00  0.00    +0.000 OA
ATOM     25  N   UNL     1       2.933   4.048  18.804  0.00  0.00    +0.000 N 
ATOM     26  H   UNL     1       2.137   4.204  18.205  0.00  0.00    +0.000 HD
BRANCH  23  28
ATOM     27  C   UNL     1       0.699   2.470  18.866  0.00  0.00    +0.000 C 
ATOM     28  C   UNL     1       2.066   1.820  18.925  0.00  0.00    +0.000 C 
ENDBRANCH  23  28
ENDBRANCH   1  25
TORSDOF 6
ENDMDL
MODEL 2
REMARK VINA RESULT:      -7.5      2.872      4.946
REMARK  Name = 
REMARK  8 active torsions:
REMARK  status: ('A' for Active; 'I' for Inactive)
REMARK    1  A    between atoms: C_1  and  C_2
REMARK    2  A    between atoms: C_2  and  C_3
REMARK    3  A    between atoms: N_5  and  C_6
REMARK    4  A    between atoms: C_6  and  C_7
REMARK    5  A    between atoms: C_6  and  C_15
REMARK    6  A    between atoms: C_10  and  O_11
REMARK    7  A    between atoms: O_11  and  C_12
REMARK    8  A    between atoms: C_25  and  O_26
REMARK                            x       y       z     vdW  Elec       q    Type
REMARK                         _______ _______ _______ _____ _____    ______ ____
ROOT
ATOM      1  C   UNL     1       6.287   5.267  17.515  0.00  0.00    +0.000 C 
ENDROOT
BRANCH   1   2
ATOM      2  C   UNL     1       5.013   5.144  18.355  0.00  0.00    +0.000 A 
ATOM      3  C   UNL     1       4.161   6.251  18.469  0.00  0.00    +0.000 A 
ATOM      4  C   UNL     1       2.962   6.164  19.191  0.00  0.00    +0.000 A 
ATOM      5 CL   UNL     1       1.993   7.596  19.298  0.00  0.00    +0.000 Cl
ATOM      6  C   UNL     1       2.572   4.962  19.828  0.00  0.00    +0.000 A 
ATOM      7  C   UNL     1       1.331   4.734  20.464  0.00  0.00    +0.000 A 
ATOM      8  C   UNL     1       1.069   3.520  21.093  0.00  0.00    +0.000 A 
ATOM      9  C   UNL     1       2.072   2.574  21.115  0.00  0.00    +0.000 A 
ATOM     10  N   UNL     1       3.247   2.720  20.466  0.00  0.00    +0.000 NA
ATOM     11  C   UNL     1       3.467   3.879  19.808  0.00  0.00    +0.000 A 
ATOM     12  C   UNL     1       4.632   3.981  19.045  0.00  0.00    +0.000 A 
BRANCH  12  13
ATOM     13  O   UNL     1       5.411   2.839  18.966  0.00  0.00    +0.000 OA
ATOM     14  H   UNL     1       5.022   2.348  18.205  0.00  0.00    +0.000 HD
ENDBRANCH  12  13
ENDBRANCH   1   2
BRANCH   1  15
ATOM     15  C   UNL     1       7.119   6.511  17.838  0.00  0.00    +0.000 A 
ATOM     16  C   UNL     1       8.032   6.529  18.904  0.00  0.00    +0.000 A 
ATOM     17  C   UNL     1       8.715   7.703  19.238  0.00  0.00    +0.000 A 
ATOM     18  C   UNL     1       8.520   8.875  18.507  0.00  0.00    +0.000 A 
ATOM     19  C   UNL     1       7.619   8.874  17.443  0.00  0.00    +0.000 A 
ATOM     20  C   UNL     1       6.925   7.700  17.114  0.00  0.00    +0.000 A 
BRANCH  18  21
ATOM     21  O   UNL     1       9.217   9.962  18.961  0.00  0.00    +0.000 OA
ATOM     22  C   UNL     1       9.201  11.107  18.117  0.00  0.00    +0.000 C 
ENDBRANCH  18  21
ENDBRANCH   1  15
BRANCH   1  25
ATOM     23  C   UNL     1       5.751   4.092  15.377  0.00  0.00    +0.000 C 
ATOM     24  O   UNL     1       5.779   2.966  15.850  0.00  0.00    +0.000 OA
ATOM     25  N   UNL     1       5.988   5.235  16.098  0.00  0.00    +0.000 N 
ATOM     26  H   UNL     1       5.978   6.130  15.632  0.00  0.00    +0.000 HD
BRANCH  23  28
ATOM     27  C   UNL     1       6.309   3.684  12.944  0.00  0.00    +0.000 C 
ATOM     28  C   UNL     1       5.409   4.403  13.929  0.00  0.00    +0.000 C 
ENDBRANCH  23  28
ENDBRANCH   1  25
TORSDOF 6
ENDMDL
MODEL 3
REMARK VINA RESULT:      -7.1      3.591      5.237
REMARK  Name = 
REMARK  8 active torsions:
REMARK  status: ('A' for Active; 'I' for Inactive)
REMARK    1  A    between atoms: C_1  and  C_2
REMARK    2  A    between atoms: C_2  and  C_3
REMARK    3  A    between atoms: N_5  and  C_6
REMARK    4  A    between atoms: C_6  and  C_7
REMARK    5  A    between atoms: C_6  and  C_15
REMARK    6  A    between atoms: C_10  and  O_11
REMARK    7  A    between atoms: O_11  and  C_12
REMARK    8  A    between atoms: C_25  and  O_26
REMARK                            x       y       z     vdW  Elec       q    Type
REMARK                         _______ _______ _______ _____ _____    ______ ____
ROOT
ATOM      1  C   UNL     1       5.792   4.172  16.965  0.00  0.00    +0.000 C 
ENDROOT
BRANCH   1   2
ATOM      2  C   UNL     1       4.505   3.990  17.774  0.00  0.00    +0.000 A 
ATOM      3  C   UNL     1       3.285   4.402  17.218  0.00  0.00    +0.000 A 
ATOM      4  C   UNL     1       2.080   4.210  17.907  0.00  0.00    +0.000 A 
ATOM      5 CL   UNL     1       0.630   4.781  17.149  0.00  0.00    +0.000 Cl
ATOM      6  C   UNL     1       2.051   3.597  19.183  0.00  0.00    +0.000 A 
ATOM      7  C   UNL     1       0.885   3.242  19.899  0.00  0.00    +0.000 A 
ATOM      8  C   UNL     1       0.976   2.675  21.167  0.00  0.00    +0.000 A 
ATOM      9  C   UNL     1       2.231   2.520  21.716  0.00  0.00    +0.000 A 
ATOM     10  N   UNL     1       3.374   2.783  21.047  0.00  0.00    +0.000 NA
ATOM     11  C   UNL     1       3.275   3.276  19.793  0.00  0.00    +0.000 A 
ATOM     12  C   UNL     1       4.455   3.439  19.065  0.00  0.00    +0.000 A 
BRANCH  12  13
ATOM     13  O   UNL     1       5.614   2.991  19.675  0.00  0.00    +0.000 OA
ATOM     14  H   UNL     1       5.342   2.854  20.613  0.00  0.00    +0.000 HD
ENDBRANCH  12  13
ENDBRANCH   1   2
BRANCH   1  15
ATOM     15  C   UNL     1       6.613   5.394  17.385  0.00  0.00    +0.000 A 
ATOM     16  C   UNL     1       7.618   5.306  18.360  0.00  0.00    +0.000 A 
ATOM     17  C   UNL     1       8.294   6.452  18.793  0.00  0.00    +0.000 A 
ATOM     18  C   UNL     1       8.000   7.703  18.251  0.00  0.00    +0.000 A 
ATOM     19  C   UNL     1       7.007   7.808  17.278  0.00  0.00    +0.000 A 
ATOM     20  C   UNL     1       6.320   6.662  16.850  0.00  0.00    +0.000 A 
BRANCH  18  21
ATOM     21  O   UNL     1       8.704   8.746  18.789  0.00  0.00    +0.000 OA
ATOM     22  C   UNL     1       8.581   9.992  18.113  0.00  0.00    +0.000 C 
ENDBRANCH  18  21
ENDBRANCH   1  15
BRANCH   1  25
ATOM     23  C   UNL     1       6.473   4.370  14.570  0.00  0.00    +0.000 C 
ATOM     24  O   UNL     1       7.670   4.466  14.794  0.00  0.00    +0.000 OA
ATOM     25  N   UNL     1       5.516   4.235  15.545  0.00  0.00    +0.000 N 
ATOM     26  H   UNL     1       4.542   4.192  15.285  0.00  0.00    +0.000 HD
BRANCH  23  28
ATOM     27  C   UNL     1       6.487   3.293  12.282  0.00  0.00    +0.000 C 
ATOM     28  C   UNL     1       5.863   4.344  13.178  0.00  0.00    +0.000 C 
ENDBRANCH  23  28
ENDBRANCH   1  25
TORSDOF 6
ENDMDL
MODEL 4
REMARK VINA RESULT:      -7.1      2.866      5.135
REMARK  Name = 
REMARK  8 active torsions:
REMARK  status: ('A' for Active; 'I' for Inactive)
REMARK    1  A    between atoms: C_1  and  C_2
REMARK    2  A    between atoms: C_2  and  C_3
REMARK    3  A    between atoms: N_5  and  C_6
REMARK    4  A    between atoms: C_6  and  C_7
REMARK    5  A    between atoms: C_6  and  C_15
REMARK    6  A    between atoms: C_10  and  O_11
REMARK    7  A    between atoms: O_11  and  C_12
REMARK    8  A    between atoms: C_25  and  O_26
REMARK                            x       y       z     vdW  Elec       q    Type
REMARK                         _______ _______ _______ _____ _____    ______ ____
ROOT
ATOM      1  C   UNL     1       6.621   5.659  17.330  0.00  0.00    +0.000 C 
ENDROOT
BRANCH   1   2
ATOM      2  C   UNL     1       5.225   5.449  17.922  0.00  0.00    +0.000 A 
ATOM      3  C   UNL     1       4.244   6.431  17.724  0.00  0.00    +0.000 A 
ATOM      4  C   UNL     1       2.941   6.253  18.210  0.00  0.00    +0.000 A 
ATOM      5 CL   UNL     1       1.809   7.537  17.939  0.00  0.00    +0.000 Cl
ATOM      6  C   UNL     1       2.571   5.083  18.916  0.00  0.00    +0.000 A 
ATOM      7  C   UNL     1       1.261   4.752  19.330  0.00  0.00    +0.000 A 
ATOM      8  C   UNL     1       1.019   3.587  20.053  0.00  0.00    +0.000 A 
ATOM      9  C   UNL     1       2.100   2.801  20.391  0.00  0.00    +0.000 A 
ATOM     10  N   UNL     1       3.358   3.040  19.963  0.00  0.00    +0.000 NA
ATOM     11  C   UNL     1       3.571   4.142  19.210  0.00  0.00    +0.000 A 
ATOM     12  C   UNL     1       4.849   4.324  18.676  0.00  0.00    +0.000 A 
BRANCH  12  13
ATOM     13  O   UNL     1       5.755   3.302  18.899  0.00  0.00    +0.000 OA
ATOM     14  H   UNL     1       6.543   3.575  18.373  0.00  0.00    +0.000 HD
ENDBRANCH  12  13
ENDBRANCH   1   2
BRANCH   1  15
ATOM     15  C   UNL     1       7.282   6.969  17.767  0.00  0.00    +0.000 A 
ATOM     16  C   UNL     1       7.050   8.174  17.084  0.00  0.00    +0.000 A 
ATOM     17  C   UNL     1       7.733   9.340  17.445  0.00  0.00    +0.000 A 
ATOM     18  C   UNL     1       8.643   9.337  18.502  0.00  0.00    +0.000 A 
ATOM     19  C   UNL     1       8.882   8.151  19.192  0.00  0.00    +0.000 A 
ATOM     20  C   UNL     1       8.207   6.977  18.826  0.00  0.00    +0.000 A 
BRANCH  18  21
ATOM     21  O   UNL     1       9.272  10.532  18.726  0.00  0.00    +0.000 OA
ATOM     22  C   UNL     1       9.625  10.805  20.077  0.00  0.00    +0.000 C 
ENDBRANCH  18  21
ENDBRANCH   1  15
BRANCH   1  25
ATOM     23  C   UNL     1       6.371   4.435  15.167  0.00  0.00    +0.000 C 
ATOM     24  O   UNL     1       6.180   3.339  15.673  0.00  0.00    +0.000 OA
ATOM     25  N   UNL     1       6.596   5.584  15.884  0.00  0.00    +0.000 N 
ATOM     26  H   UNL     1       6.778   6.448  15.397  0.00  0.00    +0.000 HD
BRANCH  23  28
ATOM     27  C   UNL     1       5.922   3.493  12.864  0.00  0.00    +0.000 C 
ATOM     28  C   UNL     1       6.350   4.702  13.671  0.00  0.00    +0.000 C 
ENDBRANCH  23  28
ENDBRANCH   1  25
TORSDOF 6
ENDMDL
MODEL 5
REMARK VINA RESULT:      -6.8      3.640      5.239
REMARK  Name = 
REMARK  8 active torsions:
REMARK  status: ('A' for Active; 'I' for Inactive)
REMARK    1  A    between atoms: C_1  and  C_2
REMARK    2  A    between atoms: C_2  and  C_3
REMARK    3  A    between atoms: N_5  and  C_6
REMARK    4  A    between atoms: C_6  and  C_7
REMARK    5  A    between atoms: C_6  and  C_15
REMARK    6  A    between atoms: C_10  and  O_11
REMARK    7  A    between atoms: O_11  and  C_12
REMARK    8  A    between atoms: C_25  and  O_26
REMARK                            x       y       z     vdW  Elec       q    Type
REMARK                         _______ _______ _______ _____ _____    ______ ____
ROOT
ATOM      1  C   UNL     1       5.774   4.421  17.022  0.00  0.00    +0.000 C 
ENDROOT
BRANCH   1   2
ATOM      2  C   UNL     1       4.511   4.121  17.834  0.00  0.00    +0.000 A 
ATOM      3  C   UNL     1       3.256   4.375  17.262  0.00  0.00    +0.000 A 
ATOM      4  C   UNL     1       2.076   4.070  17.955  0.00  0.00    +0.000 A 
ATOM      5 CL   UNL     1       0.576   4.450  17.176  0.00  0.00    +0.000 Cl
ATOM      6  C   UNL     1       2.109   3.499  19.250  0.00  0.00    +0.000 A 
ATOM      7  C   UNL     1       0.987   3.037  19.974  0.00  0.00    +0.000 A 
ATOM      8  C   UNL     1       1.134   2.525  21.260  0.00  0.00    +0.000 A 
ATOM      9  C   UNL     1       2.395   2.531  21.817  0.00  0.00    +0.000 A 
ATOM     10  N   UNL     1       3.505   2.899  21.142  0.00  0.00    +0.000 NA
ATOM     11  C   UNL     1       3.358   3.338  19.873  0.00  0.00    +0.000 A 
ATOM     12  C   UNL     1       4.517   3.609  19.142  0.00  0.00    +0.000 A 
BRANCH  12  13
ATOM     13  O   UNL     1       5.716   3.314  19.768  0.00  0.00    +0.000 OA
ATOM     14  H   UNL     1       5.653   2.344  19.938  0.00  0.00    +0.000 HD
ENDBRANCH  12  13
ENDBRANCH   1   2
BRANCH   1  15
ATOM     15  C   UNL     1       6.417   5.768  17.362  0.00  0.00    +0.000 A 
ATOM     16  C   UNL     1       5.932   6.971  16.827  0.00  0.00    +0.000 A 
ATOM     17  C   UNL     1       6.590   8.180  17.080  0.00  0.00    +0.000 A 
ATOM     18  C   UNL     1       7.728   8.220  17.886  0.00  0.00    +0.000 A 
ATOM     19  C   UNL     1       8.220   7.035  18.429  0.00  0.00    +0.000 A 
ATOM     20  C   UNL     1       7.569   5.820  18.168  0.00  0.00    +0.000 A 
BRANCH  18  21
ATOM     21  O   UNL     1       8.297   9.457  18.021  0.00  0.00    +0.000 OA
ATOM     22  C   UNL     1       9.118   9.641  19.168  0.00  0.00    +0.000 C 
ENDBRANCH  18  21
ENDBRANCH   1  15
BRANCH   1  25
ATOM     23  C   UNL     1       6.475   4.454  14.625  0.00  0.00    +0.000 C 
ATOM     24  O   UNL     1       7.663   4.631  14.851  0.00  0.00    +0.000 OA
ATOM     25  N   UNL     1       5.514   4.351  15.599  0.00  0.00    +0.000 N 
ATOM     26  H   UNL     1       4.547   4.236  15.336  0.00  0.00    +0.000 HD
BRANCH  23  28
ATOM     27  C   UNL     1       6.569   3.187  12.438  0.00  0.00    +0.000 C 
ATOM     28  C   UNL     1       5.885   4.280  13.235  0.00  0.00    +0.000 C 
ENDBRANCH  23  28
ENDBRANCH   1  25
TORSDOF 6
ENDMDL
MODEL 6
REMARK VINA RESULT:      -6.8      3.185      5.099
REMARK  Name = 
REMARK  8 active torsions:
REMARK  status: ('A' for Active; 'I' for Inactive)
REMARK    1  A    between atoms: C_1  and  C_2
REMARK    2  A    between atoms: C_2  and  C_3
REMARK    3  A    between atoms: N_5  and  C_6
REMARK    4  A    between atoms: C_6  and  C_7
REMARK    5  A    between atoms: C_6  and  C_15
REMARK    6  A    between atoms: C_10  and  O_11
REMARK    7  A    between atoms: O_11  and  C_12
REMARK    8  A    between atoms: C_25  and  O_26
REMARK                            x       y       z     vdW  Elec       q    Type
REMARK                         _______ _______ _______ _____ _____    ______ ____
ROOT
ATOM      1  C   UNL     1       5.148   6.056  16.093  0.00  0.00    +0.000 C 
ENDROOT
BRANCH   1   2
ATOM      2  C   UNL     1       4.331   5.237  17.096  0.00  0.00    +0.000 A 
ATOM      3  C   UNL     1       4.389   3.837  17.043  0.00  0.00    +0.000 A 
ATOM      4  C   UNL     1       3.693   3.053  17.973  0.00  0.00    +0.000 A 
ATOM      5 CL   UNL     1       3.805   1.332  17.805  0.00  0.00    +0.000 Cl
ATOM      6  C   UNL     1       2.909   3.643  18.994  0.00  0.00    +0.000 A 
ATOM      7  C   UNL     1       2.278   2.949  20.051  0.00  0.00    +0.000 A 
ATOM      8  C   UNL     1       1.498   3.631  20.981  0.00  0.00    +0.000 A 
ATOM      9  C   UNL     1       1.323   4.987  20.806  0.00  0.00    +0.000 A 
ATOM     10  N   UNL     1       1.957   5.703  19.852  0.00  0.00    +0.000 NA
ATOM     11  C   UNL     1       2.760   5.039  18.992  0.00  0.00    +0.000 A 
ATOM     12  C   UNL     1       3.499   5.796  18.081  0.00  0.00    +0.000 A 
BRANCH  12  13
ATOM     13  O   UNL     1       3.403   7.171  18.211  0.00  0.00    +0.000 OA
ATOM     14  H   UNL     1       3.794   7.509  17.371  0.00  0.00    +0.000 HD
ENDBRANCH  12  13
ENDBRANCH   1   2
BRANCH   1  15
ATOM     15  C   UNL     1       5.727   5.223  14.947  0.00  0.00    +0.000 A 
ATOM     16  C   UNL     1       7.057   5.373  14.527  0.00  0.00    +0.000 A 
ATOM     17  C   UNL     1       7.540   4.667  13.420  0.00  0.00    +0.000 A 
ATOM     18  C   UNL     1       6.716   3.782  12.723  0.00  0.00    +0.000 A 
ATOM     19  C   UNL     1       5.393   3.618  13.129  0.00  0.00    +0.000 A 
ATOM     20  C   UNL     1       4.904   4.334  14.232  0.00  0.00    +0.000 A 
BRANCH  18  21
ATOM     21  O   UNL     1       7.298   3.186  11.637  0.00  0.00    +0.000 OA
ATOM     22  C   UNL     1       6.809   1.892  11.303  0.00  0.00    +0.000 C 
ENDBRANCH  18  21
ENDBRANCH   1  15
BRANCH   1  25
ATOM     23  C   UNL     1       7.055   6.250  17.694  0.00  0.00    +0.000 C 
ATOM     24  O   UNL     1       6.994   5.097  18.092  0.00  0.00    +0.000 OA
ATOM     25  N   UNL     1       6.211   6.785  16.753  0.00  0.00    +0.000 N 
ATOM     26  H   UNL     1       6.302   7.756  16.495  0.00  0.00    +0.000 HD
BRANCH  23  28
ATOM     27  C   UNL     1       7.809   8.664  17.663  0.00  0.00    +0.000 C 
ATOM     28  C   UNL     1       8.099   7.258  18.148  0.00  0.00    +0.000 C 
ENDBRANCH  23  28
ENDBRANCH   1  25
TORSDOF 6
ENDMDL
MODEL 7
REMARK VINA RESULT:      -6.7      1.069      1.131
REMARK  Name = 
REMARK  8 active torsions:
REMARK  status: ('A' for Active; 'I' for Inactive)
REMARK    1  A    between atoms: C_1  and  C_2
REMARK    2  A    between atoms: C_2  and  C_3
REMARK    3  A    between atoms: N_5  and  C_6
REMARK    4  A    between atoms: C_6  and  C_7
REMARK    5  A    between atoms: C_6  and  C_15
REMARK    6  A    between atoms: C_10  and  O_11
REMARK    7  A    between atoms: O_11  and  C_12
REMARK    8  A    between atoms: C_25  and  O_26
REMARK                            x       y       z     vdW  Elec       q    Type
REMARK                         _______ _______ _______ _____ _____    ______ ____
ROOT
ATOM      1  C   UNL     1       3.122   5.759  19.296  0.00  0.00    +0.000 C 
ENDROOT
BRANCH   1   2
ATOM      2  C   UNL     1       2.398   7.091  19.510  0.00  0.00    +0.000 A 
ATOM      3  C   UNL     1       2.447   8.065  18.503  0.00  0.00    +0.000 A 
ATOM      4  C   UNL     1       1.758   9.278  18.642  0.00  0.00    +0.000 A 
ATOM      5 CL   UNL     1       1.906  10.429  17.355  0.00  0.00    +0.000 Cl
ATOM      6  C   UNL     1       0.993   9.562  19.799  0.00  0.00    +0.000 A 
ATOM      7  C   UNL     1       0.163  10.691  19.979  0.00  0.00    +0.000 A 
ATOM      8  C   UNL     1      -0.517  10.888  21.177  0.00  0.00    +0.000 A 
ATOM      9  C   UNL     1      -0.314   9.977  22.192  0.00  0.00    +0.000 A 
ATOM     10  N   UNL     1       0.416   8.850  22.046  0.00  0.00    +0.000 NA
ATOM     11  C   UNL     1       1.023   8.639  20.857  0.00  0.00    +0.000 A 
ATOM     12  C   UNL     1       1.681   7.421  20.673  0.00  0.00    +0.000 A 
BRANCH  12  13
ATOM     13  O   UNL     1       1.570   6.505  21.705  0.00  0.00    +0.000 OA
ATOM     14  H   UNL     1       1.358   5.661  21.241  0.00  0.00    +0.000 HD
ENDBRANCH  12  13
ENDBRANCH   1   2
BRANCH   1  15
ATOM     15  C   UNL     1       3.999   5.732  18.041  0.00  0.00    +0.000 A 
ATOM     16  C   UNL     1       3.857   4.733  17.066  0.00  0.00    +0.000 A 
ATOM     17  C   UNL     1       4.728   4.675  15.973  0.00  0.00    +0.000 A 
ATOM     18  C   UNL     1       5.741   5.621  15.816  0.00  0.00    +0.000 A 
ATOM     19  C   UNL     1       5.893   6.622  16.773  0.00  0.00    +0.000 A 
ATOM     20  C   UNL     1       5.028   6.675  17.876  0.00  0.00    +0.000 A 
BRANCH  18  21
ATOM     21  O   UNL     1       6.547   5.428  14.726  0.00  0.00    +0.000 OA
ATOM     22  C   UNL     1       6.428   4.166  14.081  0.00  0.00    +0.000 C 
ENDBRANCH  18  21
ENDBRANCH   1  15
BRANCH   1  25
ATOM     23  C   UNL     1       1.992   3.768  20.295  0.00  0.00    +0.000 C 
ATOM     24  O   UNL     1       2.596   3.809  21.356  0.00  0.00    +0.000 OA
ATOM     25  N   UNL     1       2.189   4.652  19.264  0.00  0.00    +0.000 N 
ATOM     26  H   UNL     1       1.675   4.538  18.403  0.00  0.00    +0.000 HD
BRANCH  23  28
ATOM     27  C   UNL     1       0.986   2.244  18.545  0.00  0.00    +0.000 C 
ATOM     28  C   UNL     1       0.903   2.759  19.968  0.00  0.00    +0.000 C 
ENDBRANCH  23  28
ENDBRANCH   1  25
TORSDOF 6
ENDMDL
MODEL 8
REMARK VINA RESULT:      -6.7      5.026      7.633
REMARK  Name = 
REMARK  8 active torsions:
REMARK  status: ('A' for Active; 'I' for Inactive)
REMARK    1  A    between atoms: C_1  and  C_2
REMARK    2  A    between atoms: C_2  and  C_3
REMARK    3  A    between atoms: N_5  and  C_6
REMARK    4  A    between atoms: C_6  and  C_7
REMARK    5  A    between atoms: C_6  and  C_15
REMARK    6  A    between atoms: C_10  and  O_11
REMARK    7  A    between atoms: O_11  and  C_12
REMARK    8  A    between atoms: C_25  and  O_26
REMARK                            x       y       z     vdW  Elec       q    Type
REMARK                         _______ _______ _______ _____ _____    ______ ____
ROOT
ATOM      1  C   UNL     1      -0.449  11.277  18.839  0.00  0.00    +0.000 C 
ENDROOT
BRANCH   1   2
ATOM      2  C   UNL     1       0.253  12.638  18.843  0.00  0.00    +0.000 A 
ATOM      3  C   UNL     1       1.618  12.703  18.527  0.00  0.00    +0.000 A 
ATOM      4  C   UNL     1       2.285  13.935  18.475  0.00  0.00    +0.000 A 
ATOM      5 CL   UNL     1       3.978  13.907  18.104  0.00  0.00    +0.000 Cl
ATOM      6  C   UNL     1       1.609  15.150  18.739  0.00  0.00    +0.000 A 
ATOM      7  C   UNL     1       2.155  16.444  18.586  0.00  0.00    +0.000 A 
ATOM      8  C   UNL     1       1.408  17.573  18.912  0.00  0.00    +0.000 A 
ATOM      9  C   UNL     1       0.146  17.382  19.432  0.00  0.00    +0.000 A 
ATOM     10  N   UNL     1      -0.443  16.171  19.535  0.00  0.00    +0.000 NA
ATOM     11  C   UNL     1       0.271  15.087  19.159  0.00  0.00    +0.000 A 
ATOM     12  C   UNL     1      -0.380  13.851  19.159  0.00  0.00    +0.000 A 
BRANCH  12  13
ATOM     13  O   UNL     1      -1.730  13.873  19.463  0.00  0.00    +0.000 OA
ATOM     14  H   UNL     1      -1.753  13.646  20.423  0.00  0.00    +0.000 HD
ENDBRANCH  12  13
ENDBRANCH   1   2
BRANCH   1  15
ATOM     15  C   UNL     1       0.509  10.091  18.981  0.00  0.00    +0.000 A 
ATOM     16  C   UNL     1       1.137   9.515  17.866  0.00  0.00    +0.000 A 
ATOM     17  C   UNL     1       1.937   8.377  18.008  0.00  0.00    +0.000 A 
ATOM     18  C   UNL     1       2.145   7.802  19.262  0.00  0.00    +0.000 A 
ATOM     19  C   UNL     1       1.533   8.363  20.380  0.00  0.00    +0.000 A 
ATOM     20  C   UNL     1       0.721   9.499  20.238  0.00  0.00    +0.000 A 
BRANCH  18  21
ATOM     21  O   UNL     1       2.915   6.670  19.257  0.00  0.00    +0.000 OA
ATOM     22  C   UNL     1       3.551   6.356  18.024  0.00  0.00    +0.000 C 
ENDBRANCH  18  21
ENDBRANCH   1  15
BRANCH   1  25
ATOM     23  C   UNL     1      -2.623  11.275  17.609  0.00  0.00    +0.000 C 
ATOM     24  O   UNL     1      -3.307  11.573  18.577  0.00  0.00    +0.000 OA
ATOM     25  N   UNL     1      -1.262  11.109  17.652  0.00  0.00    +0.000 N 
ATOM     26  H   UNL     1      -0.766  10.832  16.818  0.00  0.00    +0.000 HD
BRANCH  23  28
ATOM     27  C   UNL     1      -2.587   9.869  15.508  0.00  0.00    +0.000 C 
ATOM     28  C   UNL     1      -3.168  11.084  16.203  0.00  0.00    +0.000 C 
ENDBRANCH  23  28
ENDBRANCH   1  25
TORSDOF 6
ENDMDL
MODEL 9
REMARK VINA RESULT:      -6.6      3.377      5.372
REMARK  Name = 
REMARK  8 active torsions:
REMARK  status: ('A' for Active; 'I' for Inactive)
REMARK    1  A    between atoms: C_1  and  C_2
REMARK    2  A    between atoms: C_2  and  C_3
REMARK    3  A    between atoms: N_5  and  C_6
REMARK    4  A    between atoms: C_6  and  C_7
REMARK    5  A    between atoms: C_6  and  C_15
REMARK    6  A    between atoms: C_10  and  O_11
REMARK    7  A    between atoms: O_11  and  C_12
REMARK    8  A    between atoms: C_25  and  O_26
REMARK                            x       y       z     vdW  Elec       q    Type
REMARK                         _______ _______ _______ _____ _____    ______ ____
ROOT
ATOM      1  C   UNL     1       5.377   5.796  16.097  0.00  0.00    +0.000 C 
ENDROOT
BRANCH   1   2
ATOM      2  C   UNL     1       4.503   4.993  17.065  0.00  0.00    +0.000 A 
ATOM      3  C   UNL     1       4.595   3.594  17.068  0.00  0.00    +0.000 A 
ATOM      4  C   UNL     1       3.846   2.826  17.971  0.00  0.00    +0.000 A 
ATOM      5 CL   UNL     1       4.008   1.104  17.876  0.00  0.00    +0.000 Cl
ATOM      6  C   UNL     1       2.973   3.433  18.905  0.00  0.00    +0.000 A 
ATOM      7  C   UNL     1       2.278   2.762  19.937  0.00  0.00    +0.000 A 
ATOM      8  C   UNL     1       1.413   3.457  20.778  0.00  0.00    +0.000 A 
ATOM      9  C   UNL     1       1.223   4.802  20.540  0.00  0.00    +0.000 A 
ATOM     10  N   UNL     1       1.913   5.498  19.611  0.00  0.00    +0.000 NA
ATOM     11  C   UNL     1       2.794   4.825  18.840  0.00  0.00    +0.000 A 
ATOM     12  C   UNL     1       3.585   5.567  17.961  0.00  0.00    +0.000 A 
BRANCH  12  13
ATOM     13  O   UNL     1       3.450   6.943  18.032  0.00  0.00    +0.000 OA
ATOM     14  H   UNL     1       4.231   7.223  18.564  0.00  0.00    +0.000 HD
ENDBRANCH  12  13
ENDBRANCH   1   2
BRANCH   1  15
ATOM     15  C   UNL     1       5.741   5.033  14.821  0.00  0.00    +0.000 A 
ATOM     16  C   UNL     1       4.784   4.296  14.105  0.00  0.00    +0.000 A 
ATOM     17  C   UNL     1       5.157   3.534  12.994  0.00  0.00    +0.000 A 
ATOM     18  C   UNL     1       6.482   3.506  12.559  0.00  0.00    +0.000 A 
ATOM     19  C   UNL     1       7.444   4.234  13.255  0.00  0.00    +0.000 A 
ATOM     20  C   UNL     1       7.074   4.991  14.377  0.00  0.00    +0.000 A 
BRANCH  18  21
ATOM     21  O   UNL     1       6.720   2.691  11.485  0.00  0.00    +0.000 OA
ATOM     22  C   UNL     1       5.879   1.548  11.373  0.00  0.00    +0.000 C 
ENDBRANCH  18  21
ENDBRANCH   1  15
BRANCH   1  25
ATOM     23  C   UNL     1       6.704   7.473  17.387  0.00  0.00    +0.000 C 
ATOM     24  O   UNL     1       5.805   8.296  17.471  0.00  0.00    +0.000 OA
ATOM     25  N   UNL     1       6.583   6.266  16.746  0.00  0.00    +0.000 N 
ATOM     26  H   UNL     1       7.380   5.649  16.689  0.00  0.00    +0.000 HD
BRANCH  23  28
ATOM     27  C   UNL     1       8.461   9.094  18.212  0.00  0.00    +0.000 C 
ATOM     28  C   UNL     1       8.079   7.641  18.013  0.00  0.00    +0.000 C 
ENDBRANCH  23  28
ENDBRANCH   1  25
TORSDOF 6
ENDMDL
