MODEL 1
REMARK VINA RESULT:      -7.5      0.000      0.000
REMARK  Name = 
REMARK  3 active torsions:
REMARK  status: ('A' for Active; 'I' for Inactive)
REMARK    1  A    between atoms: C_5  and  C_6
REMARK    2  A    between atoms: N_10  and  N_11
REMARK    3  A    between atoms: C_12  and  C_13
REMARK                            x       y       z     vdW  Elec       q    Type
REMARK                         _______ _______ _______ _____ _____    ______ ____
ROOT
ATOM      1  C   UNL     1       2.780   5.966  19.595  0.00  0.00    +0.000 A 
ATOM      2  C   UNL     1       2.131   4.837  20.053  0.00  0.00    +0.000 A 
ATOM      3  S   UNL     1       3.188   3.490  19.985  0.00  0.00    +0.000 S 
ATOM      4  C   UNL     1       4.446   4.510  19.387  0.00  0.00    +0.000 A 
ATOM      5  N   UNL     1       5.667   3.982  19.112  0.00  0.00    +0.000 N 
ATOM      6  N   UNL     1       4.092   5.763  19.210  0.00  0.00    +0.000 NA
ATOM      7  H   UNL     1       5.779   2.996  19.341  0.00  0.00    +0.000 HD
ENDROOT
BRANCH   1  12
ATOM      8 CL   UNL     1       0.329  11.394  19.023  0.00  0.00    +0.000 Cl
ATOM      9  C   UNL     1       1.025   9.830  19.193  0.00  0.00    +0.000 A 
ATOM     10  C   UNL     1       0.985   9.184  20.428  0.00  0.00    +0.000 A 
ATOM     11  C   UNL     1       1.553   7.915  20.569  0.00  0.00    +0.000 A 
ATOM     12  C   UNL     1       2.165   7.283  19.478  0.00  0.00    +0.000 A 
ATOM     13  C   UNL     1       2.203   7.951  18.243  0.00  0.00    +0.000 A 
ATOM     14  C   UNL     1       1.631   9.218  18.099  0.00  0.00    +0.000 A 
ENDBRANCH   1  12
BRANCH   5  15
ATOM     15  N   UNL     1       6.804   4.736  19.134  0.00  0.00    +0.000 NA
ATOM     16  C   UNL     1       7.326   5.102  17.998  0.00  0.00    +0.000 C 
BRANCH  16  17
ATOM     17  C   UNL     1       6.771   4.942  16.672  0.00  0.00    +0.000 A 
ATOM     18  C   UNL     1       6.958   3.940  15.740  0.00  0.00    +0.000 A 
ATOM     19  C   UNL     1       6.199   4.151  14.553  0.00  0.00    +0.000 A 
ATOM     20  C   UNL     1       5.443   5.299  14.624  0.00  0.00    +0.000 A 
ATOM     21  S   UNL     1       5.641   6.105  16.120  0.00  0.00    +0.000 S 
ENDBRANCH  16  17
ENDBRANCH   5  15
TORSDOF 3
ENDMDL
MODEL 2
REMARK VINA RESULT:      -7.4      0.202      1.097
REMARK  Name = 
REMARK  3 active torsions:
REMARK  status: ('A' for Active; 'I' for Inactive)
REMARK    1  A    between atoms: C_5  and  C_6
REMARK    2  A    between atoms: N_10  and  N_11
REMARK    3  A    between atoms: C_12  and  C_13
REMARK                            x       y       z     vdW  Elec       q    Type
REMARK                         _______ _______ _______ _____ _____    ______ ____
ROOT
ATOM      1  C   UNL     1       2.796   5.915  19.685  0.00  0.00    +0.000 A 
ATOM      2  C   UNL     1       2.154   4.770  20.112  0.00  0.00    +0.000 A 
ATOM      3  S   UNL     1       3.213   3.429  19.987  0.00  0.00    +0.000 S 
ATOM      4  C   UNL     1       4.462   4.471  19.410  0.00  0.00    +0.000 A 
ATOM      5  N   UNL     1       5.681   3.955  19.104  0.00  0.00    +0.000 N 
ATOM      6  N   UNL     1       4.104   5.728  19.279  0.00  0.00    +0.000 NA
ATOM      7  H   UNL     1       5.798   2.962  19.300  0.00  0.00    +0.000 HD
ENDROOT
BRANCH   1  12
ATOM      8 CL   UNL     1       0.181  11.293  19.499  0.00  0.00    +0.000 Cl
ATOM      9  C   UNL     1       0.942   9.751  19.548  0.00  0.00    +0.000 A 
ATOM     10  C   UNL     1       1.594   9.264  18.416  0.00  0.00    +0.000 A 
ATOM     11  C   UNL     1       2.210   8.010  18.452  0.00  0.00    +0.000 A 
ATOM     12  C   UNL     1       2.177   7.233  19.619  0.00  0.00    +0.000 A 
ATOM     13  C   UNL     1       1.509   7.736  20.747  0.00  0.00    +0.000 A 
ATOM     14  C   UNL     1       0.897   8.992  20.715  0.00  0.00    +0.000 A 
ENDBRANCH   1  12
BRANCH   5  15
ATOM     15  N   UNL     1       6.817   4.711  19.139  0.00  0.00    +0.000 NA
ATOM     16  C   UNL     1       7.335   5.103  18.010  0.00  0.00    +0.000 C 
BRANCH  16  17
ATOM     17  C   UNL     1       6.775   4.972  16.683  0.00  0.00    +0.000 A 
ATOM     18  C   UNL     1       6.956   3.988  15.730  0.00  0.00    +0.000 A 
ATOM     19  C   UNL     1       6.194   4.225  14.550  0.00  0.00    +0.000 A 
ATOM     20  C   UNL     1       5.441   5.375  14.646  0.00  0.00    +0.000 A 
ATOM     21  S   UNL     1       5.647   6.149  16.157  0.00  0.00    +0.000 S 
ENDBRANCH  16  17
ENDBRANCH   5  15
TORSDOF 3
ENDMDL
MODEL 3
REMARK VINA RESULT:      -6.9      3.305      4.774
REMARK  Name = 
REMARK  3 active torsions:
REMARK  status: ('A' for Active; 'I' for Inactive)
REMARK    1  A    between atoms: C_5  and  C_6
REMARK    2  A    between atoms: N_10  and  N_11
REMARK    3  A    between atoms: C_12  and  C_13
REMARK                            x       y       z     vdW  Elec       q    Type
REMARK                         _______ _______ _______ _____ _____    ______ ____
ROOT
ATOM      1  C   UNL     1       0.985   8.876  20.335  0.00  0.00    +0.000 A 
ATOM      2  C   UNL     1       1.420   9.051  19.037  0.00  0.00    +0.000 A 
ATOM      3  S   UNL     1       2.396   7.724  18.566  0.00  0.00    +0.000 S 
ATOM      4  C   UNL     1       2.140   6.991  20.107  0.00  0.00    +0.000 A 
ATOM      5  N   UNL     1       2.708   5.788  20.384  0.00  0.00    +0.000 N 
ATOM      6  N   UNL     1       1.411   7.706  20.936  0.00  0.00    +0.000 NA
ATOM      7  H   UNL     1       3.215   5.356  19.613  0.00  0.00    +0.000 HD
ENDROOT
BRANCH   1  12
ATOM      8 CL   UNL     1      -2.405  12.719  23.423  0.00  0.00    +0.000 Cl
ATOM      9  C   UNL     1      -1.424  11.623  22.531  0.00  0.00    +0.000 A 
ATOM     10  C   UNL     1      -1.126  11.888  21.195  0.00  0.00    +0.000 A 
ATOM     11  C   UNL     1      -0.333  10.997  20.467  0.00  0.00    +0.000 A 
ATOM     12  C   UNL     1       0.168   9.834  21.069  0.00  0.00    +0.000 A 
ATOM     13  C   UNL     1      -0.149   9.578  22.414  0.00  0.00    +0.000 A 
ATOM     14  C   UNL     1      -0.938  10.471  23.144  0.00  0.00    +0.000 A 
ENDBRANCH   1  12
BRANCH   5  15
ATOM     15  N   UNL     1       2.181   4.933  21.308  0.00  0.00    +0.000 NA
ATOM     16  C   UNL     1       1.969   3.697  20.958  0.00  0.00    +0.000 C 
BRANCH  16  17
ATOM     17  C   UNL     1       2.364   3.041  19.731  0.00  0.00    +0.000 A 
ATOM     18  C   UNL     1       1.688   2.903  18.534  0.00  0.00    +0.000 A 
ATOM     19  C   UNL     1       2.448   2.199  17.557  0.00  0.00    +0.000 A 
ATOM     20  C   UNL     1       3.687   1.835  18.033  0.00  0.00    +0.000 A 
ATOM     21  S   UNL     1       3.931   2.356  19.644  0.00  0.00    +0.000 S 
ENDBRANCH  16  17
ENDBRANCH   5  15
TORSDOF 3
ENDMDL
MODEL 4
REMARK VINA RESULT:      -6.8      3.308      4.724
REMARK  Name = 
REMARK  3 active torsions:
REMARK  status: ('A' for Active; 'I' for Inactive)
REMARK    1  A    between atoms: C_5  and  C_6
REMARK    2  A    between atoms: N_10  and  N_11
REMARK    3  A    between atoms: C_12  and  C_13
REMARK                            x       y       z     vdW  Elec       q    Type
REMARK                         _______ _______ _______ _____ _____    ______ ____
ROOT
ATOM      1  C   UNL     1       0.909   8.945  20.393  0.00  0.00    +0.000 A 
ATOM      2  C   UNL     1       1.330   9.141  19.094  0.00  0.00    +0.000 A 
ATOM      3  S   UNL     1       2.312   7.829  18.594  0.00  0.00    +0.000 S 
ATOM      4  C   UNL     1       2.079   7.073  20.128  0.00  0.00    +0.000 A 
ATOM      5  N   UNL     1       2.659   5.872  20.382  0.00  0.00    +0.000 N 
ATOM      6  N   UNL     1       1.352   7.770  20.973  0.00  0.00    +0.000 NA
ATOM      7  H   UNL     1       3.163   5.455  19.601  0.00  0.00    +0.000 HD
ENDROOT
BRANCH   1  12
ATOM      8 CL   UNL     1      -2.409  12.893  23.424  0.00  0.00    +0.000 Cl
ATOM      9  C   UNL     1      -1.462  11.750  22.556  0.00  0.00    +0.000 A 
ATOM     10  C   UNL     1      -1.063  10.567  23.177  0.00  0.00    +0.000 A 
ATOM     11  C   UNL     1      -0.290   9.637  22.475  0.00  0.00    +0.000 A 
ATOM     12  C   UNL     1       0.091   9.885  21.148  0.00  0.00    +0.000 A 
ATOM     13  C   UNL     1      -0.313  11.086  20.542  0.00  0.00    +0.000 A 
ATOM     14  C   UNL     1      -1.091  12.013  21.240  0.00  0.00    +0.000 A 
ENDBRANCH   1  12
BRANCH   5  15
ATOM     15  N   UNL     1       2.149   5.000  21.301  0.00  0.00    +0.000 NA
ATOM     16  C   UNL     1       1.935   3.769  20.933  0.00  0.00    +0.000 C 
BRANCH  16  17
ATOM     17  C   UNL     1       2.312   3.135  19.688  0.00  0.00    +0.000 A 
ATOM     18  C   UNL     1       1.625   3.033  18.493  0.00  0.00    +0.000 A 
ATOM     19  C   UNL     1       2.369   2.340  17.495  0.00  0.00    +0.000 A 
ATOM     20  C   UNL     1       3.607   1.950  17.955  0.00  0.00    +0.000 A 
ATOM     21  S   UNL     1       3.869   2.432  19.574  0.00  0.00    +0.000 S 
ENDBRANCH  16  17
ENDBRANCH   5  15
TORSDOF 3
ENDMDL
MODEL 5
REMARK VINA RESULT:      -6.7      2.409      4.433
REMARK  Name = 
REMARK  3 active torsions:
REMARK  status: ('A' for Active; 'I' for Inactive)
REMARK    1  A    between atoms: C_5  and  C_6
REMARK    2  A    between atoms: N_10  and  N_11
REMARK    3  A    between atoms: C_12  and  C_13
REMARK                            x       y       z     vdW  Elec       q    Type
REMARK                         _______ _______ _______ _____ _____    ______ ____
ROOT
ATOM      1  C   UNL     1       3.136   6.982  18.013  0.00  0.00    +0.000 A 
ATOM      2  C   UNL     1       4.418   7.214  17.560  0.00  0.00    +0.000 A 
ATOM      3  S   UNL     1       5.122   5.746  17.026  0.00  0.00    +0.000 S 
ATOM      4  C   UNL     1       3.659   4.911  17.399  0.00  0.00    +0.000 A 
ATOM      5  N   UNL     1       3.570   3.574  17.173  0.00  0.00    +0.000 N 
ATOM      6  N   UNL     1       2.721   5.666  17.926  0.00  0.00    +0.000 NA
ATOM      7  H   UNL     1       4.381   3.151  16.725  0.00  0.00    +0.000 HD
ENDROOT
BRANCH   1  12
ATOM      8 CL   UNL     1      -0.491  11.091  20.412  0.00  0.00    +0.000 Cl
ATOM      9  C   UNL     1       0.557   9.918  19.717  0.00  0.00    +0.000 A 
ATOM     10  C   UNL     1       0.908  10.012  18.372  0.00  0.00    +0.000 A 
ATOM     11  C   UNL     1       1.758   9.057  17.804  0.00  0.00    +0.000 A 
ATOM     12  C   UNL     1       2.261   8.002  18.577  0.00  0.00    +0.000 A 
ATOM     13  C   UNL     1       1.890   7.918  19.930  0.00  0.00    +0.000 A 
ATOM     14  C   UNL     1       1.046   8.874  20.500  0.00  0.00    +0.000 A 
ENDBRANCH   1  12
BRANCH   5  15
ATOM     15  N   UNL     1       2.373   2.955  16.953  0.00  0.00    +0.000 NA
ATOM     16  C   UNL     1       1.734   2.463  17.976  0.00  0.00    +0.000 C 
BRANCH  16  17
ATOM     17  C   UNL     1       2.052   2.616  19.379  0.00  0.00    +0.000 A 
ATOM     18  C   UNL     1       3.130   2.151  20.107  0.00  0.00    +0.000 A 
ATOM     19  C   UNL     1       3.075   2.546  21.475  0.00  0.00    +0.000 A 
ATOM     20  C   UNL     1       1.966   3.316  21.744  0.00  0.00    +0.000 A 
ATOM     21  S   UNL     1       1.009   3.567  20.349  0.00  0.00    +0.000 S 
ENDBRANCH  16  17
ENDBRANCH   5  15
TORSDOF 3
ENDMDL
MODEL 6
REMARK VINA RESULT:      -6.6      5.429      7.760
REMARK  Name = 
REMARK  3 active torsions:
REMARK  status: ('A' for Active; 'I' for Inactive)
REMARK    1  A    between atoms: C_5  and  C_6
REMARK    2  A    between atoms: N_10  and  N_11
REMARK    3  A    between atoms: C_12  and  C_13
REMARK                            x       y       z     vdW  Elec       q    Type
REMARK                         _______ _______ _______ _____ _____    ______ ____
ROOT
ATOM      1  C   UNL     1       7.232   5.706  16.714  0.00  0.00    +0.000 A 
ATOM      2  C   UNL     1       7.425   5.062  17.919  0.00  0.00    +0.000 A 
ATOM      3  S   UNL     1       8.005   6.174  19.087  0.00  0.00    +0.000 S 
ATOM      4  C   UNL     1       7.922   7.441  17.918  0.00  0.00    +0.000 A 
ATOM      5  N   UNL     1       8.284   8.704  18.266  0.00  0.00    +0.000 N 
ATOM      6  N   UNL     1       7.529   7.056  16.724  0.00  0.00    +0.000 NA
ATOM      7  H   UNL     1       8.532   8.833  19.246  0.00  0.00    +0.000 HD
ENDROOT
BRANCH   1  12
ATOM      8 CL   UNL     1       5.330   2.945  11.759  0.00  0.00    +0.000 Cl
ATOM      9  C   UNL     1       5.879   3.748  13.178  0.00  0.00    +0.000 A 
ATOM     10  C   UNL     1       7.064   4.481  13.144  0.00  0.00    +0.000 A 
ATOM     11  C   UNL     1       7.514   5.132  14.297  0.00  0.00    +0.000 A 
ATOM     12  C   UNL     1       6.783   5.052  15.491  0.00  0.00    +0.000 A 
ATOM     13  C   UNL     1       5.596   4.303  15.508  0.00  0.00    +0.000 A 
ATOM     14  C   UNL     1       5.142   3.656  14.355  0.00  0.00    +0.000 A 
ENDBRANCH   1  12
BRANCH   5  15
ATOM     15  N   UNL     1       7.794   9.802  17.622  0.00  0.00    +0.000 NA
ATOM     16  C   UNL     1       8.370  10.951  17.831  0.00  0.00    +0.000 C 
BRANCH  16  17
ATOM     17  C   UNL     1       9.592  11.213  18.560  0.00  0.00    +0.000 A 
ATOM     18  C   UNL     1      10.891  11.351  18.109  0.00  0.00    +0.000 A 
ATOM     19  C   UNL     1      11.807  11.631  19.163  0.00  0.00    +0.000 A 
ATOM     20  C   UNL     1      11.176  11.715  20.384  0.00  0.00    +0.000 A 
ATOM     21  S   UNL     1       9.489  11.471  20.250  0.00  0.00    +0.000 S 
ENDBRANCH  16  17
ENDBRANCH   5  15
TORSDOF 3
ENDMDL
MODEL 7
REMARK VINA RESULT:      -6.6      1.454      2.467
REMARK  Name = 
REMARK  3 active torsions:
REMARK  status: ('A' for Active; 'I' for Inactive)
REMARK    1  A    between atoms: C_5  and  C_6
REMARK    2  A    between atoms: N_10  and  N_11
REMARK    3  A    between atoms: C_12  and  C_13
REMARK                            x       y       z     vdW  Elec       q    Type
REMARK                         _______ _______ _______ _____ _____    ______ ____
ROOT
ATOM      1  C   UNL     1       2.997   6.130  18.790  0.00  0.00    +0.000 A 
ATOM      2  C   UNL     1       3.211   5.255  19.836  0.00  0.00    +0.000 A 
ATOM      3  S   UNL     1       3.985   3.838  19.262  0.00  0.00    +0.000 S 
ATOM      4  C   UNL     1       4.016   4.503  17.670  0.00  0.00    +0.000 A 
ATOM      5  N   UNL     1       4.566   3.790  16.652  0.00  0.00    +0.000 N 
ATOM      6  N   UNL     1       3.450   5.685  17.562  0.00  0.00    +0.000 NA
ATOM      7  H   UNL     1       4.992   2.904  16.920  0.00  0.00    +0.000 HD
ENDROOT
BRANCH   1  12
ATOM      8 CL   UNL     1       0.171  11.369  19.386  0.00  0.00    +0.000 Cl
ATOM      9  C   UNL     1       0.991   9.868  19.209  0.00  0.00    +0.000 A 
ATOM     10  C   UNL     1       1.530   9.514  17.973  0.00  0.00    +0.000 A 
ATOM     11  C   UNL     1       2.194   8.293  17.826  0.00  0.00    +0.000 A 
ATOM     12  C   UNL     1       2.324   7.417  18.913  0.00  0.00    +0.000 A 
ATOM     13  C   UNL     1       1.769   7.787  20.149  0.00  0.00    +0.000 A 
ATOM     14  C   UNL     1       1.109   9.009  20.299  0.00  0.00    +0.000 A 
ENDBRANCH   1  12
BRANCH   5  15
ATOM     15  N   UNL     1       5.081   4.392  15.541  0.00  0.00    +0.000 NA
ATOM     16  C   UNL     1       6.082   5.211  15.688  0.00  0.00    +0.000 C 
BRANCH  16  17
ATOM     17  C   UNL     1       6.850   5.470  16.888  0.00  0.00    +0.000 A 
ATOM     18  C   UNL     1       7.571   4.607  17.691  0.00  0.00    +0.000 A 
ATOM     19  C   UNL     1       8.208   5.277  18.775  0.00  0.00    +0.000 A 
ATOM     20  C   UNL     1       7.968   6.632  18.755  0.00  0.00    +0.000 A 
ATOM     21  S   UNL     1       6.991   7.089  17.427  0.00  0.00    +0.000 S 
ENDBRANCH  16  17
ENDBRANCH   5  15
TORSDOF 3
ENDMDL
MODEL 8
REMARK VINA RESULT:      -6.6      3.167      4.434
REMARK  Name = 
REMARK  3 active torsions:
REMARK  status: ('A' for Active; 'I' for Inactive)
REMARK    1  A    between atoms: C_5  and  C_6
REMARK    2  A    between atoms: N_10  and  N_11
REMARK    3  A    between atoms: C_12  and  C_13
REMARK                            x       y       z     vdW  Elec       q    Type
REMARK                         _______ _______ _______ _____ _____    ______ ____
ROOT
ATOM      1  C   UNL     1       1.365   9.009  19.090  0.00  0.00    +0.000 A 
ATOM      2  C   UNL     1       2.059   8.927  17.900  0.00  0.00    +0.000 A 
ATOM      3  S   UNL     1       3.065   7.541  17.906  0.00  0.00    +0.000 S 
ATOM      4  C   UNL     1       2.479   7.125  19.475  0.00  0.00    +0.000 A 
ATOM      5  N   UNL     1       2.939   6.004  20.091  0.00  0.00    +0.000 N 
ATOM      6  N   UNL     1       1.622   7.983  19.981  0.00  0.00    +0.000 NA
ATOM      7  H   UNL     1       3.577   5.432  19.539  0.00  0.00    +0.000 HD
ENDROOT
BRANCH   1  12
ATOM      8 CL   UNL     1      -2.424  13.446  20.414  0.00  0.00    +0.000 Cl
ATOM      9  C   UNL     1      -1.335  12.166  20.044  0.00  0.00    +0.000 A 
ATOM     10  C   UNL     1      -0.283  11.879  20.912  0.00  0.00    +0.000 A 
ATOM     11  C   UNL     1       0.605  10.841  20.612  0.00  0.00    +0.000 A 
ATOM     12  C   UNL     1       0.448  10.086  19.441  0.00  0.00    +0.000 A 
ATOM     13  C   UNL     1      -0.613  10.395  18.574  0.00  0.00    +0.000 A 
ATOM     14  C   UNL     1      -1.505  11.428  18.875  0.00  0.00    +0.000 A 
ENDBRANCH   1  12
BRANCH   5  15
ATOM     15  N   UNL     1       2.208   5.345  21.036  0.00  0.00    +0.000 NA
ATOM     16  C   UNL     1       1.854   4.115  20.798  0.00  0.00    +0.000 C 
BRANCH  16  17
ATOM     17  C   UNL     1       2.264   3.269  19.698  0.00  0.00    +0.000 A 
ATOM     18  C   UNL     1       1.649   3.016  18.487  0.00  0.00    +0.000 A 
ATOM     19  C   UNL     1       2.405   2.131  17.666  0.00  0.00    +0.000 A 
ATOM     20  C   UNL     1       3.582   1.749  18.270  0.00  0.00    +0.000 A 
ATOM     21  S   UNL     1       3.774   2.468  19.810  0.00  0.00    +0.000 S 
ENDBRANCH  16  17
ENDBRANCH   5  15
TORSDOF 3
ENDMDL
MODEL 9
REMARK VINA RESULT:      -6.6      1.451      2.222
REMARK  Name = 
REMARK  3 active torsions:
REMARK  status: ('A' for Active; 'I' for Inactive)
REMARK    1  A    between atoms: C_5  and  C_6
REMARK    2  A    between atoms: N_10  and  N_11
REMARK    3  A    between atoms: C_12  and  C_13
REMARK                            x       y       z     vdW  Elec       q    Type
REMARK                         _______ _______ _______ _____ _____    ______ ____
ROOT
ATOM      1  C   UNL     1       2.992   6.071  18.833  0.00  0.00    +0.000 A 
ATOM      2  C   UNL     1       3.227   5.185  19.865  0.00  0.00    +0.000 A 
ATOM      3  S   UNL     1       4.024   3.792  19.267  0.00  0.00    +0.000 S 
ATOM      4  C   UNL     1       4.035   4.480  17.684  0.00  0.00    +0.000 A 
ATOM      5  N   UNL     1       4.592   3.792  16.654  0.00  0.00    +0.000 N 
ATOM      6  N   UNL     1       3.447   5.652  17.596  0.00  0.00    +0.000 NA
ATOM      7  H   UNL     1       5.036   2.910  16.906  0.00  0.00    +0.000 HD
ENDROOT
BRANCH   1  12
ATOM      8 CL   UNL     1       0.198  11.337  19.336  0.00  0.00    +0.000 Cl
ATOM      9  C   UNL     1       0.993   9.818  19.197  0.00  0.00    +0.000 A 
ATOM     10  C   UNL     1       1.099   8.987  20.311  0.00  0.00    +0.000 A 
ATOM     11  C   UNL     1       1.748   7.753  20.202  0.00  0.00    +0.000 A 
ATOM     12  C   UNL     1       2.296   7.344  18.978  0.00  0.00    +0.000 A 
ATOM     13  C   UNL     1       2.187   8.197  17.868  0.00  0.00    +0.000 A 
ATOM     14  C   UNL     1       1.534   9.428  17.975  0.00  0.00    +0.000 A 
ENDBRANCH   1  12
BRANCH   5  15
ATOM     15  N   UNL     1       5.090   4.419  15.549  0.00  0.00    +0.000 NA
ATOM     16  C   UNL     1       6.081   5.249  15.702  0.00  0.00    +0.000 C 
BRANCH  16  17
ATOM     17  C   UNL     1       6.854   5.500  16.900  0.00  0.00    +0.000 A 
ATOM     18  C   UNL     1       7.548   4.625  17.714  0.00  0.00    +0.000 A 
ATOM     19  C   UNL     1       8.203   5.288  18.791  0.00  0.00    +0.000 A 
ATOM     20  C   UNL     1       8.003   6.650  18.755  0.00  0.00    +0.000 A 
ATOM     21  S   UNL     1       7.042   7.120  17.421  0.00  0.00    +0.000 S 
ENDBRANCH  16  17
ENDBRANCH   5  15
TORSDOF 3
ENDMDL
