MODEL 1
REMARK VINA RESULT:      -7.0      0.000      0.000
REMARK  Name = 
REMARK  7 active torsions:
REMARK  status: ('A' for Active; 'I' for Inactive)
REMARK    1  A    between atoms: C_1  and  O_2
REMARK    2  A    between atoms: O_2  and  C_3
REMARK    3  A    between atoms: C_5  and  C_6
REMARK    4  A    between atoms: N_7  and  N_8
REMARK    5  A    between atoms: C_9  and  C_11
REMARK    6  A    between atoms: C_11  and  C_12
REMARK    7  A    between atoms: C_20  and  O_21
REMARK                            x       y       z     vdW  Elec       q    Type
REMARK                         _______ _______ _______ _____ _____    ______ ____
ROOT
ATOM      1  N   UNL     1       7.672   8.019  17.261  0.00  0.00    +0.000 N 
ATOM      2  C   UNL     1       7.541   6.862  18.018  0.00  0.00    +0.000 C 
ATOM      3  O   UNL     1       8.229   6.614  19.014  0.00  0.00    +0.000 OA
ATOM      4  H   UNL     1       7.088   8.197  16.445  0.00  0.00    +0.000 HD
ENDROOT
BRANCH   1   6
ATOM      5  C   UNL     1       8.326   9.936  18.307  0.00  0.00    +0.000 C 
ATOM      6  N   UNL     1       8.652   8.894  17.613  0.00  0.00    +0.000 NA
BRANCH   5   9
ATOM      7  C   UNL     1      10.285  12.443  20.368  0.00  0.00    +0.000 A 
ATOM      8  C   UNL     1       9.311  11.521  19.964  0.00  0.00    +0.000 A 
ATOM      9  C   UNL     1       9.373  10.904  18.708  0.00  0.00    +0.000 A 
ATOM     10  C   UNL     1      10.417  11.202  17.836  0.00  0.00    +0.000 A 
ATOM     11  C   UNL     1      11.394  12.123  18.227  0.00  0.00    +0.000 A 
ATOM     12  C   UNL     1      11.328  12.741  19.484  0.00  0.00    +0.000 A 
BRANCH   7  14
ATOM     13  C   UNL     1       9.180  14.042  21.769  0.00  0.00    +0.000 C 
ATOM     14  O   UNL     1      10.063  12.940  21.623  0.00  0.00    +0.000 OA
ENDBRANCH   7  14
BRANCH  12  15
ATOM     15  O   UNL     1      12.305  13.639  19.815  0.00  0.00    +0.000 OA
ATOM     16  H   UNL     1      11.946  14.296  20.432  0.00  0.00    +0.000 HD
ENDBRANCH  12  15
ENDBRANCH   5   9
ENDBRANCH   1   6
BRANCH   2  17
ATOM     17  C   UNL     1       6.426   5.908  17.645  0.00  0.00    +0.000 C 
BRANCH  17  18
ATOM     18  C   UNL     1       6.600   5.318  16.294  0.00  0.00    +0.000 A 
ATOM     19  N   UNL     1       7.481   5.734  15.407  0.00  0.00    +0.000 NA
ATOM     20  N   UNL     1       7.403   5.025  14.228  0.00  0.00    +0.000 NA
ATOM     21  C   UNL     1       6.454   4.116  14.245  0.00  0.00    +0.000 A 
ATOM     22  N   UNL     1       6.158   3.303  13.216  0.00  0.00    +0.000 N 
ATOM     23  S   UNL     1       5.604   4.034  15.736  0.00  0.00    +0.000 S 
ATOM     24  H   UNL     1       6.849   3.232  12.476  0.00  0.00    +0.000 HD
ATOM     25  H   UNL     1       5.630   2.456  13.389  0.00  0.00    +0.000 HD
ENDBRANCH  17  18
ENDBRANCH   2  17
TORSDOF 6
ENDMDL
MODEL 2
REMARK VINA RESULT:      -6.8      1.031      1.969
REMARK  Name = 
REMARK  7 active torsions:
REMARK  status: ('A' for Active; 'I' for Inactive)
REMARK    1  A    between atoms: C_1  and  O_2
REMARK    2  A    between atoms: O_2  and  C_3
REMARK    3  A    between atoms: C_5  and  C_6
REMARK    4  A    between atoms: N_7  and  N_8
REMARK    5  A    between atoms: C_9  and  C_11
REMARK    6  A    between atoms: C_11  and  C_12
REMARK    7  A    between atoms: C_20  and  O_21
REMARK                            x       y       z     vdW  Elec       q    Type
REMARK                         _______ _______ _______ _____ _____    ______ ____
ROOT
ATOM      1  N   UNL     1       7.173   7.919  17.235  0.00  0.00    +0.000 N 
ATOM      2  C   UNL     1       7.488   6.789  17.978  0.00  0.00    +0.000 C 
ATOM      3  O   UNL     1       8.283   6.792  18.924  0.00  0.00    +0.000 OA
ATOM      4  H   UNL     1       6.511   7.886  16.460  0.00  0.00    +0.000 HD
ENDROOT
BRANCH   1   6
ATOM      5  C   UNL     1       8.542   9.111  18.613  0.00  0.00    +0.000 C 
ATOM      6  N   UNL     1       7.822   9.075  17.539  0.00  0.00    +0.000 NA
BRANCH   5   9
ATOM      7  C   UNL     1      10.297  12.455  18.272  0.00  0.00    +0.000 A 
ATOM      8  C   UNL     1       9.609  11.273  17.967  0.00  0.00    +0.000 A 
ATOM      9  C   UNL     1       9.265  10.354  18.967  0.00  0.00    +0.000 A 
ATOM     10  C   UNL     1       9.604  10.610  20.294  0.00  0.00    +0.000 A 
ATOM     11  C   UNL     1      10.292  11.786  20.610  0.00  0.00    +0.000 A 
ATOM     12  C   UNL     1      10.637  12.702  19.606  0.00  0.00    +0.000 A 
BRANCH   7  14
ATOM     13  C   UNL     1      11.860  13.246  16.639  0.00  0.00    +0.000 C 
ATOM     14  O   UNL     1      10.545  13.228  17.170  0.00  0.00    +0.000 OA
ENDBRANCH   7  14
BRANCH  12  15
ATOM     15  O   UNL     1      11.315  13.833  19.969  0.00  0.00    +0.000 OA
ATOM     16  H   UNL     1      10.748  14.384  20.531  0.00  0.00    +0.000 HD
ENDBRANCH  12  15
ENDBRANCH   5   9
ENDBRANCH   1   6
BRANCH   2  17
ATOM     17  C   UNL     1       6.738   5.514  17.659  0.00  0.00    +0.000 C 
BRANCH  17  18
ATOM     18  C   UNL     1       6.837   5.128  16.228  0.00  0.00    +0.000 A 
ATOM     19  N   UNL     1       7.594   5.744  15.342  0.00  0.00    +0.000 NA
ATOM     20  N   UNL     1       7.469   5.192  14.085  0.00  0.00    +0.000 NA
ATOM     21  C   UNL     1       6.608   4.200  14.048  0.00  0.00    +0.000 A 
ATOM     22  N   UNL     1       6.290   3.507  12.942  0.00  0.00    +0.000 N 
ATOM     23  S   UNL     1       5.909   3.838  15.576  0.00  0.00    +0.000 S 
ATOM     24  H   UNL     1       6.914   3.603  12.148  0.00  0.00    +0.000 HD
ATOM     25  H   UNL     1       5.856   2.597  13.036  0.00  0.00    +0.000 HD
ENDBRANCH  17  18
ENDBRANCH   2  17
TORSDOF 6
ENDMDL
MODEL 3
REMARK VINA RESULT:      -6.7      4.188      8.488
REMARK  Name = 
REMARK  7 active torsions:
REMARK  status: ('A' for Active; 'I' for Inactive)
REMARK    1  A    between atoms: C_1  and  O_2
REMARK    2  A    between atoms: O_2  and  C_3
REMARK    3  A    between atoms: C_5  and  C_6
REMARK    4  A    between atoms: N_7  and  N_8
REMARK    5  A    between atoms: C_9  and  C_11
REMARK    6  A    between atoms: C_11  and  C_12
REMARK    7  A    between atoms: C_20  and  O_21
REMARK                            x       y       z     vdW  Elec       q    Type
REMARK                         _______ _______ _______ _____ _____    ______ ____
ROOT
ATOM      1  N   UNL     1       9.504  10.829  19.192  0.00  0.00    +0.000 N 
ATOM      2  C   UNL     1       9.419  11.486  20.413  0.00  0.00    +0.000 C 
ATOM      3  O   UNL     1       8.990  10.959  21.444  0.00  0.00    +0.000 OA
ATOM      4  H   UNL     1       9.865  11.290  18.357  0.00  0.00    +0.000 HD
ENDROOT
BRANCH   1   6
ATOM      5  C   UNL     1       8.409   9.183  18.058  0.00  0.00    +0.000 C 
ATOM      6  N   UNL     1       9.034   9.555  19.128  0.00  0.00    +0.000 NA
BRANCH   5   9
ATOM      7  C   UNL     1       6.585   6.126  16.752  0.00  0.00    +0.000 A 
ATOM      8  C   UNL     1       7.092   7.427  16.869  0.00  0.00    +0.000 A 
ATOM      9  C   UNL     1       7.891   7.799  17.959  0.00  0.00    +0.000 A 
ATOM     10  C   UNL     1       8.194   6.868  18.950  0.00  0.00    +0.000 A 
ATOM     11  C   UNL     1       7.692   5.568  18.844  0.00  0.00    +0.000 A 
ATOM     12  C   UNL     1       6.891   5.199  17.753  0.00  0.00    +0.000 A 
BRANCH   7  14
ATOM     13  C   UNL     1       6.289   5.033  14.641  0.00  0.00    +0.000 C 
ATOM     14  O   UNL     1       5.830   5.947  15.625  0.00  0.00    +0.000 OA
ENDBRANCH   7  14
BRANCH  12  15
ATOM     15  O   UNL     1       6.420   3.916  17.702  0.00  0.00    +0.000 OA
ATOM     16  H   UNL     1       5.699   3.810  18.343  0.00  0.00    +0.000 HD
ENDBRANCH  12  15
ENDBRANCH   5   9
ENDBRANCH   1   6
BRANCH   2  17
ATOM     17  C   UNL     1       9.976  12.892  20.487  0.00  0.00    +0.000 C 
BRANCH  17  18
ATOM     18  C   UNL     1      10.521  13.366  19.190  0.00  0.00    +0.000 A 
ATOM     19  N   UNL     1      11.612  12.893  18.623  0.00  0.00    +0.000 NA
ATOM     20  N   UNL     1      11.900  13.536  17.439  0.00  0.00    +0.000 NA
ATOM     21  C   UNL     1      11.042  14.491  17.158  0.00  0.00    +0.000 A 
ATOM     22  N   UNL     1      11.107  15.281  16.072  0.00  0.00    +0.000 N 
ATOM     23  S   UNL     1       9.781  14.646  18.315  0.00  0.00    +0.000 S 
ATOM     24  H   UNL     1      11.715  14.974  15.320  0.00  0.00    +0.000 HD
ATOM     25  H   UNL     1      10.280  15.783  15.774  0.00  0.00    +0.000 HD
ENDBRANCH  17  18
ENDBRANCH   2  17
TORSDOF 6
ENDMDL
MODEL 4
REMARK VINA RESULT:      -6.7      2.864      3.075
REMARK  Name = 
REMARK  7 active torsions:
REMARK  status: ('A' for Active; 'I' for Inactive)
REMARK    1  A    between atoms: C_1  and  O_2
REMARK    2  A    between atoms: O_2  and  C_3
REMARK    3  A    between atoms: C_5  and  C_6
REMARK    4  A    between atoms: N_7  and  N_8
REMARK    5  A    between atoms: C_9  and  C_11
REMARK    6  A    between atoms: C_11  and  C_12
REMARK    7  A    between atoms: C_20  and  O_21
REMARK                            x       y       z     vdW  Elec       q    Type
REMARK                         _______ _______ _______ _____ _____    ______ ____
ROOT
ATOM      1  N   UNL     1       8.507   8.004  18.844  0.00  0.00    +0.000 N 
ATOM      2  C   UNL     1       7.818   7.095  18.051  0.00  0.00    +0.000 C 
ATOM      3  O   UNL     1       7.448   7.338  16.898  0.00  0.00    +0.000 OA
ATOM      4  H   UNL     1       8.801   7.774  19.793  0.00  0.00    +0.000 HD
ENDROOT
BRANCH   1   6
ATOM      5  C   UNL     1       9.389  10.095  19.052  0.00  0.00    +0.000 C 
ATOM      6  N   UNL     1       8.733   9.243  18.332  0.00  0.00    +0.000 NA
BRANCH   5   9
ATOM      7  C   UNL     1       8.992  13.790  18.303  0.00  0.00    +0.000 A 
ATOM      8  C   UNL     1       8.768  12.500  18.799  0.00  0.00    +0.000 A 
ATOM      9  C   UNL     1       9.654  11.451  18.518  0.00  0.00    +0.000 A 
ATOM     10  C   UNL     1      10.782  11.683  17.734  0.00  0.00    +0.000 A 
ATOM     11  C   UNL     1      11.014  12.967  17.232  0.00  0.00    +0.000 A 
ATOM     12  C   UNL     1      10.125  14.015  17.514  0.00  0.00    +0.000 A 
BRANCH   7  14
ATOM     13  C   UNL     1       6.913  14.879  17.824  0.00  0.00    +0.000 C 
ATOM     14  O   UNL     1       8.025  14.682  18.682  0.00  0.00    +0.000 OA
ENDBRANCH   7  14
BRANCH  12  15
ATOM     15  O   UNL     1      10.395  15.250  16.993  0.00  0.00    +0.000 OA
ATOM     16  H   UNL     1      11.207  15.207  16.464  0.00  0.00    +0.000 HD
ENDBRANCH  12  15
ENDBRANCH   5   9
ENDBRANCH   1   6
BRANCH   2  17
ATOM     17  C   UNL     1       7.600   5.706  18.611  0.00  0.00    +0.000 C 
BRANCH  17  18
ATOM     18  C   UNL     1       6.180   5.274  18.546  0.00  0.00    +0.000 A 
ATOM     19  N   UNL     1       5.312   5.420  19.526  0.00  0.00    +0.000 NA
ATOM     20  N   UNL     1       4.076   4.904  19.202  0.00  0.00    +0.000 NA
ATOM     21  C   UNL     1       4.050   4.360  18.007  0.00  0.00    +0.000 A 
ATOM     22  N   UNL     1       2.973   3.770  17.460  0.00  0.00    +0.000 N 
ATOM     23  S   UNL     1       5.543   4.478  17.164  0.00  0.00    +0.000 S 
ATOM     24  H   UNL     1       2.078   3.957  17.899  0.00  0.00    +0.000 HD
ATOM     25  H   UNL     1       2.938   3.636  16.457  0.00  0.00    +0.000 HD
ENDBRANCH  17  18
ENDBRANCH   2  17
TORSDOF 6
ENDMDL
MODEL 5
REMARK VINA RESULT:      -6.7      6.647      7.888
REMARK  Name = 
REMARK  7 active torsions:
REMARK  status: ('A' for Active; 'I' for Inactive)
REMARK    1  A    between atoms: C_1  and  O_2
REMARK    2  A    between atoms: O_2  and  C_3
REMARK    3  A    between atoms: C_5  and  C_6
REMARK    4  A    between atoms: N_7  and  N_8
REMARK    5  A    between atoms: C_9  and  C_11
REMARK    6  A    between atoms: C_11  and  C_12
REMARK    7  A    between atoms: C_20  and  O_21
REMARK                            x       y       z     vdW  Elec       q    Type
REMARK                         _______ _______ _______ _____ _____    ______ ____
ROOT
ATOM      1  N   UNL     1       3.257   5.917  19.654  0.00  0.00    +0.000 N 
ATOM      2  C   UNL     1       2.698   4.646  19.617  0.00  0.00    +0.000 C 
ATOM      3  O   UNL     1       1.495   4.424  19.789  0.00  0.00    +0.000 OA
ATOM      4  H   UNL     1       4.255   6.071  19.506  0.00  0.00    +0.000 HD
ENDROOT
BRANCH   1   6
ATOM      5  C   UNL     1       2.218   7.851  19.041  0.00  0.00    +0.000 C 
ATOM      6  N   UNL     1       2.436   6.959  19.953  0.00  0.00    +0.000 NA
BRANCH   5   9
ATOM      7  C   UNL     1       0.272  10.470  20.971  0.00  0.00    +0.000 A 
ATOM      8  C   UNL     1       1.116   9.396  20.663  0.00  0.00    +0.000 A 
ATOM      9  C   UNL     1       1.323   8.994  19.336  0.00  0.00    +0.000 A 
ATOM     10  C   UNL     1       0.687   9.667  18.297  0.00  0.00    +0.000 A 
ATOM     11  C   UNL     1      -0.160  10.740  18.593  0.00  0.00    +0.000 A 
ATOM     12  C   UNL     1      -0.368  11.139  19.922  0.00  0.00    +0.000 A 
BRANCH   7  14
ATOM     13  C   UNL     1      -0.347   9.713  23.158  0.00  0.00    +0.000 C 
ATOM     14  O   UNL     1       0.193  10.719  22.314  0.00  0.00    +0.000 OA
ENDBRANCH   7  14
BRANCH  12  15
ATOM     15  O   UNL     1      -1.210  12.190  20.156  0.00  0.00    +0.000 OA
ATOM     16  H   UNL     1      -1.139  12.830  19.431  0.00  0.00    +0.000 HD
ENDBRANCH  12  15
ENDBRANCH   5   9
ENDBRANCH   1   6
BRANCH   2  17
ATOM     17  C   UNL     1       3.609   3.495  19.249  0.00  0.00    +0.000 C 
BRANCH  17  18
ATOM     18  C   UNL     1       4.880   3.941  18.623  0.00  0.00    +0.000 A 
ATOM     19  N   UNL     1       5.949   4.318  19.295  0.00  0.00    +0.000 NA
ATOM     20  N   UNL     1       6.972   4.709  18.460  0.00  0.00    +0.000 NA
ATOM     21  C   UNL     1       6.644   4.645  17.189  0.00  0.00    +0.000 A 
ATOM     22  N   UNL     1       7.454   4.988  16.173  0.00  0.00    +0.000 N 
ATOM     23  S   UNL     1       5.053   4.056  16.918  0.00  0.00    +0.000 S 
ATOM     24  H   UNL     1       8.441   5.082  16.388  0.00  0.00    +0.000 HD
ATOM     25  H   UNL     1       7.251   4.649  15.241  0.00  0.00    +0.000 HD
ENDBRANCH  17  18
ENDBRANCH   2  17
TORSDOF 6
ENDMDL
MODEL 6
REMARK VINA RESULT:      -6.7      7.442     10.112
REMARK  Name = 
REMARK  7 active torsions:
REMARK  status: ('A' for Active; 'I' for Inactive)
REMARK    1  A    between atoms: C_1  and  O_2
REMARK    2  A    between atoms: O_2  and  C_3
REMARK    3  A    between atoms: C_5  and  C_6
REMARK    4  A    between atoms: N_7  and  N_8
REMARK    5  A    between atoms: C_9  and  C_11
REMARK    6  A    between atoms: C_11  and  C_12
REMARK    7  A    between atoms: C_20  and  O_21
REMARK                            x       y       z     vdW  Elec       q    Type
REMARK                         _______ _______ _______ _____ _____    ______ ____
ROOT
ATOM      1  N   UNL     1       1.611   8.998  19.110  0.00  0.00    +0.000 N 
ATOM      2  C   UNL     1       0.707   9.483  20.046  0.00  0.00    +0.000 C 
ATOM      3  O   UNL     1       0.403   8.878  21.079  0.00  0.00    +0.000 OA
ATOM      4  H   UNL     1       1.845   9.521  18.266  0.00  0.00    +0.000 HD
ENDROOT
BRANCH   1   6
ATOM      5  C   UNL     1       2.455   7.042  18.300  0.00  0.00    +0.000 C 
ATOM      6  N   UNL     1       2.143   7.765  19.326  0.00  0.00    +0.000 NA
BRANCH   5   9
ATOM      7  C   UNL     1       5.005   4.292  18.856  0.00  0.00    +0.000 A 
ATOM      8  C   UNL     1       4.425   5.552  18.665  0.00  0.00    +0.000 A 
ATOM      9  C   UNL     1       3.040   5.697  18.506  0.00  0.00    +0.000 A 
ATOM     10  C   UNL     1       2.215   4.575  18.538  0.00  0.00    +0.000 A 
ATOM     11  C   UNL     1       2.784   3.312  18.727  0.00  0.00    +0.000 A 
ATOM     12  C   UNL     1       4.170   3.170  18.884  0.00  0.00    +0.000 A 
BRANCH   7  14
ATOM     13  C   UNL     1       7.149   4.669  17.856  0.00  0.00    +0.000 C 
ATOM     14  O   UNL     1       6.366   4.347  18.994  0.00  0.00    +0.000 OA
ENDBRANCH   7  14
BRANCH  12  15
ATOM     15  O   UNL     1       4.676   1.912  19.058  0.00  0.00    +0.000 OA
ATOM     16  H   UNL     1       5.313   1.718  18.352  0.00  0.00    +0.000 HD
ENDBRANCH  12  15
ENDBRANCH   5   9
ENDBRANCH   1   6
BRANCH   2  17
ATOM     17  C   UNL     1       0.145  10.870  19.819  0.00  0.00    +0.000 C 
BRANCH  17  18
ATOM     18  C   UNL     1      -0.944  10.893  18.810  0.00  0.00    +0.000 A 
ATOM     19  N   UNL     1      -0.997  10.109  17.752  0.00  0.00    +0.000 NA
ATOM     20  N   UNL     1      -2.104  10.367  16.973  0.00  0.00    +0.000 NA
ATOM     21  C   UNL     1      -2.839  11.350  17.443  0.00  0.00    +0.000 A 
ATOM     22  N   UNL     1      -3.960  11.810  16.861  0.00  0.00    +0.000 N 
ATOM     23  S   UNL     1      -2.244  12.013  18.913  0.00  0.00    +0.000 S 
ATOM     24  H   UNL     1      -4.381  11.220  16.153  0.00  0.00    +0.000 HD
ATOM     25  H   UNL     1      -4.615  12.354  17.410  0.00  0.00    +0.000 HD
ENDBRANCH  17  18
ENDBRANCH   2  17
TORSDOF 6
ENDMDL
MODEL 7
REMARK VINA RESULT:      -6.6      2.784      3.296
REMARK  Name = 
REMARK  7 active torsions:
REMARK  status: ('A' for Active; 'I' for Inactive)
REMARK    1  A    between atoms: C_1  and  O_2
REMARK    2  A    between atoms: O_2  and  C_3
REMARK    3  A    between atoms: C_5  and  C_6
REMARK    4  A    between atoms: N_7  and  N_8
REMARK    5  A    between atoms: C_9  and  C_11
REMARK    6  A    between atoms: C_11  and  C_12
REMARK    7  A    between atoms: C_20  and  O_21
REMARK                            x       y       z     vdW  Elec       q    Type
REMARK                         _______ _______ _______ _____ _____    ______ ____
ROOT
ATOM      1  N   UNL     1       7.708   7.365  17.667  0.00  0.00    +0.000 N 
ATOM      2  C   UNL     1       7.604   6.133  18.300  0.00  0.00    +0.000 C 
ATOM      3  O   UNL     1       8.059   5.902  19.425  0.00  0.00    +0.000 OA
ATOM      4  H   UNL     1       7.321   7.526  16.737  0.00  0.00    +0.000 HD
ENDROOT
BRANCH   1   6
ATOM      5  C   UNL     1       8.259   9.564  17.895  0.00  0.00    +0.000 C 
ATOM      6  N   UNL     1       8.399   8.346  18.306  0.00  0.00    +0.000 NA
BRANCH   5   9
ATOM      7  C   UNL     1       9.915  12.915  18.532  0.00  0.00    +0.000 A 
ATOM      8  C   UNL     1       9.218  11.869  17.914  0.00  0.00    +0.000 A 
ATOM      9  C   UNL     1       8.995  10.654  18.576  0.00  0.00    +0.000 A 
ATOM     10  C   UNL     1       9.467  10.472  19.873  0.00  0.00    +0.000 A 
ATOM     11  C   UNL     1      10.167  11.508  20.500  0.00  0.00    +0.000 A 
ATOM     12  C   UNL     1      10.390  12.722  19.833  0.00  0.00    +0.000 A 
BRANCH   7  14
ATOM     13  C   UNL     1       9.213  15.145  18.011  0.00  0.00    +0.000 C 
ATOM     14  O   UNL     1      10.034  14.021  17.735  0.00  0.00    +0.000 OA
ENDBRANCH   7  14
BRANCH  12  15
ATOM     15  O   UNL     1      11.085  13.701  20.489  0.00  0.00    +0.000 OA
ATOM     16  H   UNL     1      10.983  13.583  21.447  0.00  0.00    +0.000 HD
ENDBRANCH  12  15
ENDBRANCH   5   9
ENDBRANCH   1   6
BRANCH   2  17
ATOM     17  C   UNL     1       6.804   5.055  17.600  0.00  0.00    +0.000 C 
BRANCH  17  18
ATOM     18  C   UNL     1       5.506   4.776  18.265  0.00  0.00    +0.000 A 
ATOM     19  N   UNL     1       5.310   3.813  19.143  0.00  0.00    +0.000 NA
ATOM     20  N   UNL     1       4.002   3.767  19.575  0.00  0.00    +0.000 NA
ATOM     21  C   UNL     1       3.243   4.670  18.996  0.00  0.00    +0.000 A 
ATOM     22  N   UNL     1       1.928   4.823  19.228  0.00  0.00    +0.000 N 
ATOM     23  S   UNL     1       4.093   5.683  17.898  0.00  0.00    +0.000 S 
ATOM     24  H   UNL     1       1.555   4.372  20.055  0.00  0.00    +0.000 HD
ATOM     25  H   UNL     1       1.480   5.697  18.979  0.00  0.00    +0.000 HD
ENDBRANCH  17  18
ENDBRANCH   2  17
TORSDOF 6
ENDMDL
MODEL 8
REMARK VINA RESULT:      -6.6      2.481      3.081
REMARK  Name = 
REMARK  7 active torsions:
REMARK  status: ('A' for Active; 'I' for Inactive)
REMARK    1  A    between atoms: C_1  and  O_2
REMARK    2  A    between atoms: O_2  and  C_3
REMARK    3  A    between atoms: C_5  and  C_6
REMARK    4  A    between atoms: N_7  and  N_8
REMARK    5  A    between atoms: C_9  and  C_11
REMARK    6  A    between atoms: C_11  and  C_12
REMARK    7  A    between atoms: C_20  and  O_21
REMARK                            x       y       z     vdW  Elec       q    Type
REMARK                         _______ _______ _______ _____ _____    ______ ____
ROOT
ATOM      1  N   UNL     1       7.529   7.600  17.410  0.00  0.00    +0.000 N 
ATOM      2  C   UNL     1       7.484   6.304  17.908  0.00  0.00    +0.000 C 
ATOM      3  O   UNL     1       8.000   5.966  18.979  0.00  0.00    +0.000 OA
ATOM      4  H   UNL     1       7.092   7.851  16.523  0.00  0.00    +0.000 HD
ENDROOT
BRANCH   1   6
ATOM      5  C   UNL     1       8.261   9.741  17.680  0.00  0.00    +0.000 C 
ATOM      6  N   UNL     1       8.228   8.525  18.120  0.00  0.00    +0.000 NA
BRANCH   5   9
ATOM      7  C   UNL     1       9.948  13.022  18.557  0.00  0.00    +0.000 A 
ATOM      8  C   UNL     1       9.238  12.031  17.866  0.00  0.00    +0.000 A 
ATOM      9  C   UNL     1       9.011  10.771  18.436  0.00  0.00    +0.000 A 
ATOM     10  C   UNL     1       9.492  10.487  19.712  0.00  0.00    +0.000 A 
ATOM     11  C   UNL     1      10.204  11.468  20.410  0.00  0.00    +0.000 A 
ATOM     12  C   UNL     1      10.432  12.727  19.836  0.00  0.00    +0.000 A 
BRANCH   7  14
ATOM     13  C   UNL     1      11.224  14.369  17.042  0.00  0.00    +0.000 C 
ATOM     14  O   UNL     1      10.069  14.185  17.846  0.00  0.00    +0.000 OA
ENDBRANCH   7  14
BRANCH  12  15
ATOM     15  O   UNL     1      11.139  13.648  20.558  0.00  0.00    +0.000 OA
ATOM     16  H   UNL     1      10.597  14.442  20.688  0.00  0.00    +0.000 HD
ENDBRANCH  12  15
ENDBRANCH   5   9
ENDBRANCH   1   6
BRANCH   2  17
ATOM     17  C   UNL     1       6.675   5.287  17.133  0.00  0.00    +0.000 C 
BRANCH  17  18
ATOM     18  C   UNL     1       5.224   5.343  17.446  0.00  0.00    +0.000 A 
ATOM     19  N   UNL     1       4.494   6.438  17.400  0.00  0.00    +0.000 NA
ATOM     20  N   UNL     1       3.187   6.203  17.768  0.00  0.00    +0.000 NA
ATOM     21  C   UNL     1       2.971   4.952  18.106  0.00  0.00    +0.000 A 
ATOM     22  N   UNL     1       1.788   4.467  18.521  0.00  0.00    +0.000 N 
ATOM     23  S   UNL     1       4.359   3.950  17.959  0.00  0.00    +0.000 S 
ATOM     24  H   UNL     1       0.972   5.042  18.345  0.00  0.00    +0.000 HD
ATOM     25  H   UNL     1       1.623   3.468  18.486  0.00  0.00    +0.000 HD
ENDBRANCH  17  18
ENDBRANCH   2  17
TORSDOF 6
ENDMDL
MODEL 9
REMARK VINA RESULT:      -6.6      2.446      2.680
REMARK  Name = 
REMARK  7 active torsions:
REMARK  status: ('A' for Active; 'I' for Inactive)
REMARK    1  A    between atoms: C_1  and  O_2
REMARK    2  A    between atoms: O_2  and  C_3
REMARK    3  A    between atoms: C_5  and  C_6
REMARK    4  A    between atoms: N_7  and  N_8
REMARK    5  A    between atoms: C_9  and  C_11
REMARK    6  A    between atoms: C_11  and  C_12
REMARK    7  A    between atoms: C_20  and  O_21
REMARK                            x       y       z     vdW  Elec       q    Type
REMARK                         _______ _______ _______ _____ _____    ______ ____
ROOT
ATOM      1  N   UNL     1       8.795   8.688  18.915  0.00  0.00    +0.000 N 
ATOM      2  C   UNL     1       8.123   7.719  18.181  0.00  0.00    +0.000 C 
ATOM      3  O   UNL     1       7.798   7.861  16.998  0.00  0.00    +0.000 OA
ATOM      4  H   UNL     1       9.052   8.541  19.891  0.00  0.00    +0.000 HD
ENDROOT
BRANCH   1   6
ATOM      5  C   UNL     1       9.826  10.720  18.906  0.00  0.00    +0.000 C 
ATOM      6  N   UNL     1       9.055   9.874  18.304  0.00  0.00    +0.000 NA
BRANCH   5   9
ATOM      7  C   UNL     1       9.539  14.351  17.854  0.00  0.00    +0.000 A 
ATOM      8  C   UNL     1       9.278  13.113  18.455  0.00  0.00    +0.000 A 
ATOM      9  C   UNL     1      10.131  12.018  18.261  0.00  0.00    +0.000 A 
ATOM     10  C   UNL     1      11.263  12.150  17.461  0.00  0.00    +0.000 A 
ATOM     11  C   UNL     1      11.532  13.381  16.854  0.00  0.00    +0.000 A 
ATOM     12  C   UNL     1      10.676  14.475  17.048  0.00  0.00    +0.000 A 
BRANCH   7  14
ATOM     13  C   UNL     1       7.334  14.872  18.632  0.00  0.00    +0.000 C 
ATOM     14  O   UNL     1       8.601  15.300  18.157  0.00  0.00    +0.000 OA
ENDBRANCH   7  14
BRANCH  12  15
ATOM     15  O   UNL     1      10.982  15.654  16.426  0.00  0.00    +0.000 OA
ATOM     16  H   UNL     1      10.173  16.175  16.304  0.00  0.00    +0.000 HD
ENDBRANCH  12  15
ENDBRANCH   5   9
ENDBRANCH   1   6
BRANCH   2  17
ATOM     17  C   UNL     1       7.867   6.387  18.854  0.00  0.00    +0.000 C 
BRANCH  17  18
ATOM     18  C   UNL     1       6.998   5.491  18.050  0.00  0.00    +0.000 A 
ATOM     19  N   UNL     1       7.411   4.780  17.020  0.00  0.00    +0.000 NA
ATOM     20  N   UNL     1       6.385   4.063  16.444  0.00  0.00    +0.000 NA
ATOM     21  C   UNL     1       5.228   4.270  17.030  0.00  0.00    +0.000 A 
ATOM     22  N   UNL     1       4.068   3.706  16.650  0.00  0.00    +0.000 N 
ATOM     23  S   UNL     1       5.317   5.340  18.372  0.00  0.00    +0.000 S 
ATOM     24  H   UNL     1       4.131   2.908  16.027  0.00  0.00    +0.000 HD
ATOM     25  H   UNL     1       3.293   3.680  17.302  0.00  0.00    +0.000 HD
ENDBRANCH  17  18
ENDBRANCH   2  17
TORSDOF 6
ENDMDL
