MODEL 1
REMARK VINA RESULT:      -7.1      0.000      0.000
REMARK  Name = 
REMARK  2 active torsions:
REMARK  status: ('A' for Active; 'I' for Inactive)
REMARK    1  A    between atoms: C_1  and  C_2
REMARK    2  A    between atoms: C_2  and  O_3
REMARK                            x       y       z     vdW  Elec       q    Type
REMARK                         _______ _______ _______ _____ _____    ______ ____
ROOT
ATOM      1  C   UNL     1       5.694   6.554  16.710  0.00  0.00    +0.000 C 
ATOM      2  C   UNL     1       6.086   5.192  16.136  0.00  0.00    +0.000 C 
ATOM      3  C   UNL     1       6.293   5.335  14.622  0.00  0.00    +0.000 C 
ATOM      4  C   UNL     1       7.644   5.226  13.937  0.00  0.00    +0.000 C 
ATOM      5  C   UNL     1       7.345   4.504  12.607  0.00  0.00    +0.000 C 
ATOM      6  C   UNL     1       6.128   3.600  12.842  0.00  0.00    +0.000 C 
ATOM      7  C   UNL     1       5.718   4.040  14.195  0.00  0.00    +0.000 C 
ATOM      8  N   UNL     1       4.951   3.429  15.032  0.00  0.00    +0.000 NA
ATOM      9  N   UNL     1       5.017   4.178  16.198  0.00  0.00    +0.000 N 
ATOM     10  C   UNL     1       4.282   3.889  17.323  0.00  0.00    +0.000 A 
ATOM     11  N   UNL     1       4.289   4.563  18.454  0.00  0.00    +0.000 NA
ATOM     12  C   UNL     1       3.334   4.070  19.339  0.00  0.00    +0.000 A 
ATOM     13  C   UNL     1       3.034   4.587  20.617  0.00  0.00    +0.000 A 
ATOM     14  C   UNL     1       2.018   4.003  21.390  0.00  0.00    +0.000 A 
ATOM     15  C   UNL     1       1.309   2.909  20.910  0.00  0.00    +0.000 A 
ATOM     16  C   UNL     1       1.595   2.371  19.652  0.00  0.00    +0.000 A 
ATOM     17  C   UNL     1       2.609   2.975  18.883  0.00  0.00    +0.000 A 
ATOM     18  S   UNL     1       3.159   2.558  17.318  0.00  0.00    +0.000 S 
ENDROOT
BRANCH   2  19
ATOM     19  O   UNL     1       7.285   4.705  16.733  0.00  0.00    +0.000 OA
ATOM     20  H   UNL     1       7.578   5.356  17.393  0.00  0.00    +0.000 HD
ENDBRANCH   2  19
TORSDOF 1
ENDMDL
MODEL 2
REMARK VINA RESULT:      -6.8      3.915      4.757
REMARK  Name = 
REMARK  2 active torsions:
REMARK  status: ('A' for Active; 'I' for Inactive)
REMARK    1  A    between atoms: C_1  and  C_2
REMARK    2  A    between atoms: C_2  and  O_3
REMARK                            x       y       z     vdW  Elec       q    Type
REMARK                         _______ _______ _______ _____ _____    ______ ____
ROOT
ATOM      1  C   UNL     1       4.359   5.035  19.728  0.00  0.00    +0.000 C 
ATOM      2  C   UNL     1       3.952   5.183  18.262  0.00  0.00    +0.000 C 
ATOM      3  C   UNL     1       5.180   4.921  17.380  0.00  0.00    +0.000 C 
ATOM      4  C   UNL     1       5.338   3.705  16.484  0.00  0.00    +0.000 C 
ATOM      5  C   UNL     1       6.055   4.241  15.228  0.00  0.00    +0.000 C 
ATOM      6  C   UNL     1       5.651   5.713  15.064  0.00  0.00    +0.000 C 
ATOM      7  C   UNL     1       4.927   5.939  16.336  0.00  0.00    +0.000 C 
ATOM      8  N   UNL     1       4.103   6.889  16.624  0.00  0.00    +0.000 NA
ATOM      9  N   UNL     1       3.587   6.556  17.868  0.00  0.00    +0.000 N 
ATOM     10  C   UNL     1       2.710   7.357  18.560  0.00  0.00    +0.000 A 
ATOM     11  N   UNL     1       2.193   7.107  19.745  0.00  0.00    +0.000 NA
ATOM     12  C   UNL     1       1.444   8.187  20.204  0.00  0.00    +0.000 A 
ATOM     13  C   UNL     1       0.795   8.282  21.454  0.00  0.00    +0.000 A 
ATOM     14  C   UNL     1       0.098   9.450  21.796  0.00  0.00    +0.000 A 
ATOM     15  C   UNL     1       0.030  10.516  20.907  0.00  0.00    +0.000 A 
ATOM     16  C   UNL     1       0.655  10.442  19.659  0.00  0.00    +0.000 A 
ATOM     17  C   UNL     1       1.360   9.267  19.334  0.00  0.00    +0.000 A 
ATOM     18  S   UNL     1       2.232   8.900  17.909  0.00  0.00    +0.000 S 
ENDROOT
BRANCH   2  19
ATOM     19  O   UNL     1       2.919   4.263  17.916  0.00  0.00    +0.000 OA
ATOM     20  H   UNL     1       2.997   4.068  16.967  0.00  0.00    +0.000 HD
ENDBRANCH   2  19
TORSDOF 1
ENDMDL
MODEL 3
REMARK VINA RESULT:      -6.5      4.489      5.664
REMARK  Name = 
REMARK  2 active torsions:
REMARK  status: ('A' for Active; 'I' for Inactive)
REMARK    1  A    between atoms: C_1  and  C_2
REMARK    2  A    between atoms: C_2  and  O_3
REMARK                            x       y       z     vdW  Elec       q    Type
REMARK                         _______ _______ _______ _____ _____    ______ ____
ROOT
ATOM      1  C   UNL     1       3.190   5.240  20.271  0.00  0.00    +0.000 C 
ATOM      2  C   UNL     1       2.970   5.671  18.821  0.00  0.00    +0.000 C 
ATOM      3  C   UNL     1       4.241   5.366  18.017  0.00  0.00    +0.000 C 
ATOM      4  C   UNL     1       4.331   4.291  16.946  0.00  0.00    +0.000 C 
ATOM      5  C   UNL     1       5.247   4.900  15.865  0.00  0.00    +0.000 C 
ATOM      6  C   UNL     1       5.065   6.423  15.916  0.00  0.00    +0.000 C 
ATOM      7  C   UNL     1       4.243   6.558  17.141  0.00  0.00    +0.000 C 
ATOM      8  N   UNL     1       3.529   7.566  17.512  0.00  0.00    +0.000 NA
ATOM      9  N   UNL     1       2.839   7.128  18.633  0.00  0.00    +0.000 N 
ATOM     10  C   UNL     1       2.008   7.935  19.371  0.00  0.00    +0.000 A 
ATOM     11  N   UNL     1       1.335   7.587  20.448  0.00  0.00    +0.000 NA
ATOM     12  C   UNL     1       0.693   8.684  21.016  0.00  0.00    +0.000 A 
ATOM     13  C   UNL     1      -0.070   8.683  22.204  0.00  0.00    +0.000 A 
ATOM     14  C   UNL     1      -0.637   9.877  22.675  0.00  0.00    +0.000 A 
ATOM     15  C   UNL     1      -0.462  11.065  21.975  0.00  0.00    +0.000 A 
ATOM     16  C   UNL     1       0.280  11.090  20.791  0.00  0.00    +0.000 A 
ATOM     17  C   UNL     1       0.852   9.886  20.335  0.00  0.00    +0.000 A 
ATOM     18  S   UNL     1       1.817   9.615  18.950  0.00  0.00    +0.000 S 
ENDROOT
BRANCH   2  19
ATOM     19  O   UNL     1       1.866   4.981  18.238  0.00  0.00    +0.000 OA
ATOM     20  H   UNL     1       1.598   4.274  18.849  0.00  0.00    +0.000 HD
ENDBRANCH   2  19
TORSDOF 1
ENDMDL
MODEL 4
REMARK VINA RESULT:      -6.5      5.903      8.197
REMARK  Name = 
REMARK  2 active torsions:
REMARK  status: ('A' for Active; 'I' for Inactive)
REMARK    1  A    between atoms: C_1  and  C_2
REMARK    2  A    between atoms: C_2  and  O_3
REMARK                            x       y       z     vdW  Elec       q    Type
REMARK                         _______ _______ _______ _____ _____    ______ ____
ROOT
ATOM      1  C   UNL     1      -0.340   8.516  21.589  0.00  0.00    +0.000 C 
ATOM      2  C   UNL     1       0.430   9.697  20.998  0.00  0.00    +0.000 C 
ATOM      3  C   UNL     1      -0.565  10.814  20.655  0.00  0.00    +0.000 C 
ATOM      4  C   UNL     1      -0.642  12.139  21.394  0.00  0.00    +0.000 C 
ATOM      5  C   UNL     1      -0.958  13.175  20.296  0.00  0.00    +0.000 C 
ATOM      6  C   UNL     1      -0.353  12.652  18.986  0.00  0.00    +0.000 C 
ATOM      7  C   UNL     1       0.057  11.290  19.400  0.00  0.00    +0.000 C 
ATOM      8  N   UNL     1       0.892  10.499  18.817  0.00  0.00    +0.000 NA
ATOM      9  N   UNL     1       1.042   9.427  19.684  0.00  0.00    +0.000 N 
ATOM     10  C   UNL     1       1.811   8.325  19.395  0.00  0.00    +0.000 A 
ATOM     11  N   UNL     1       1.986   7.272  20.166  0.00  0.00    +0.000 NA
ATOM     12  C   UNL     1       2.723   6.288  19.513  0.00  0.00    +0.000 A 
ATOM     13  C   UNL     1       3.050   5.013  20.022  0.00  0.00    +0.000 A 
ATOM     14  C   UNL     1       3.777   4.107  19.234  0.00  0.00    +0.000 A 
ATOM     15  C   UNL     1       4.187   4.459  17.954  0.00  0.00    +0.000 A 
ATOM     16  C   UNL     1       3.886   5.719  17.431  0.00  0.00    +0.000 A 
ATOM     17  C   UNL     1       3.147   6.614  18.230  0.00  0.00    +0.000 A 
ATOM     18  S   UNL     1       2.615   8.196  17.856  0.00  0.00    +0.000 S 
ENDROOT
BRANCH   2  19
ATOM     19  O   UNL     1       1.399  10.195  21.918  0.00  0.00    +0.000 OA
ATOM     20  H   UNL     1       1.119  11.084  22.196  0.00  0.00    +0.000 HD
ENDBRANCH   2  19
TORSDOF 1
ENDMDL
MODEL 5
REMARK VINA RESULT:      -6.5      5.500      7.742
REMARK  Name = 
REMARK  2 active torsions:
REMARK  status: ('A' for Active; 'I' for Inactive)
REMARK    1  A    between atoms: C_1  and  C_2
REMARK    2  A    between atoms: C_2  and  O_3
REMARK                            x       y       z     vdW  Elec       q    Type
REMARK                         _______ _______ _______ _____ _____    ______ ____
ROOT
ATOM      1  C   UNL     1      -0.532   8.502  21.838  0.00  0.00    +0.000 C 
ATOM      2  C   UNL     1       0.529   9.419  21.231  0.00  0.00    +0.000 C 
ATOM      3  C   UNL     1      -0.163  10.665  20.661  0.00  0.00    +0.000 C 
ATOM      4  C   UNL     1      -0.024  12.058  21.249  0.00  0.00    +0.000 C 
ATOM      5  C   UNL     1       0.001  12.994  20.024  0.00  0.00    +0.000 C 
ATOM      6  C   UNL     1       0.603  12.202  18.856  0.00  0.00    +0.000 C 
ATOM      7  C   UNL     1       0.667  10.847  19.449  0.00  0.00    +0.000 C 
ATOM      8  N   UNL     1       1.364   9.836  19.053  0.00  0.00    +0.000 NA
ATOM      9  N   UNL     1       1.194   8.871  20.035  0.00  0.00    +0.000 N 
ATOM     10  C   UNL     1       1.731   7.609  19.953  0.00  0.00    +0.000 A 
ATOM     11  N   UNL     1       1.598   6.645  20.840  0.00  0.00    +0.000 NA
ATOM     12  C   UNL     1       2.165   5.459  20.382  0.00  0.00    +0.000 A 
ATOM     13  C   UNL     1       2.158   4.216  21.051  0.00  0.00    +0.000 A 
ATOM     14  C   UNL     1       2.745   3.092  20.451  0.00  0.00    +0.000 A 
ATOM     15  C   UNL     1       3.345   3.193  19.202  0.00  0.00    +0.000 A 
ATOM     16  C   UNL     1       3.375   4.414  18.524  0.00  0.00    +0.000 A 
ATOM     17  C   UNL     1       2.773   5.532  19.134  0.00  0.00    +0.000 A 
ATOM     18  S   UNL     1       2.635   7.131  18.543  0.00  0.00    +0.000 S 
ENDROOT
BRANCH   2  19
ATOM     19  O   UNL     1       1.488   9.819  22.208  0.00  0.00    +0.000 OA
ATOM     20  H   UNL     1       2.374   9.700  21.825  0.00  0.00    +0.000 HD
ENDBRANCH   2  19
TORSDOF 1
ENDMDL
MODEL 6
REMARK VINA RESULT:      -6.4      5.308      7.921
REMARK  Name = 
REMARK  2 active torsions:
REMARK  status: ('A' for Active; 'I' for Inactive)
REMARK    1  A    between atoms: C_1  and  C_2
REMARK    2  A    between atoms: C_2  and  O_3
REMARK                            x       y       z     vdW  Elec       q    Type
REMARK                         _______ _______ _______ _____ _____    ______ ____
ROOT
ATOM      1  C   UNL     1       2.318  10.892  18.033  0.00  0.00    +0.000 C 
ATOM      2  C   UNL     1       1.158  10.149  18.695  0.00  0.00    +0.000 C 
ATOM      3  C   UNL     1       0.629  10.998  19.860  0.00  0.00    +0.000 C 
ATOM      4  C   UNL     1      -0.728  11.681  19.864  0.00  0.00    +0.000 C 
ATOM      5  C   UNL     1      -1.219  11.554  21.321  0.00  0.00    +0.000 C 
ATOM      6  C   UNL     1      -0.604  10.273  21.900  0.00  0.00    +0.000 C 
ATOM      7  C   UNL     1       0.336   9.907  20.816  0.00  0.00    +0.000 C 
ATOM      8  N   UNL     1       0.898   8.766  20.602  0.00  0.00    +0.000 NA
ATOM      9  N   UNL     1       1.548   8.905  19.384  0.00  0.00    +0.000 N 
ATOM     10  C   UNL     1       2.326   7.918  18.828  0.00  0.00    +0.000 A 
ATOM     11  N   UNL     1       2.976   7.989  17.685  0.00  0.00    +0.000 NA
ATOM     12  C   UNL     1       3.766   6.860  17.485  0.00  0.00    +0.000 A 
ATOM     13  C   UNL     1       4.632   6.628  16.395  0.00  0.00    +0.000 A 
ATOM     14  C   UNL     1       5.394   5.451  16.342  0.00  0.00    +0.000 A 
ATOM     15  C   UNL     1       5.296   4.501  17.352  0.00  0.00    +0.000 A 
ATOM     16  C   UNL     1       4.437   4.703  18.436  0.00  0.00    +0.000 A 
ATOM     17  C   UNL     1       3.686   5.894  18.482  0.00  0.00    +0.000 A 
ATOM     18  S   UNL     1       2.584   6.421  19.679  0.00  0.00    +0.000 S 
ENDROOT
BRANCH   2  19
ATOM     19  O   UNL     1       0.101   9.909  17.769  0.00  0.00    +0.000 OA
ATOM     20  H   UNL     1       0.076   8.954  17.584  0.00  0.00    +0.000 HD
ENDBRANCH   2  19
TORSDOF 1
ENDMDL
MODEL 7
REMARK VINA RESULT:      -6.1      1.890      6.813
REMARK  Name = 
REMARK  2 active torsions:
REMARK  status: ('A' for Active; 'I' for Inactive)
REMARK    1  A    between atoms: C_1  and  C_2
REMARK    2  A    between atoms: C_2  and  O_3
REMARK                            x       y       z     vdW  Elec       q    Type
REMARK                         _______ _______ _______ _____ _____    ______ ____
ROOT
ATOM      1  C   UNL     1       1.460   3.817  17.081  0.00  0.00    +0.000 C 
ATOM      2  C   UNL     1       2.263   3.170  18.209  0.00  0.00    +0.000 C 
ATOM      3  C   UNL     1       1.592   3.507  19.548  0.00  0.00    +0.000 C 
ATOM      4  C   UNL     1       0.878   2.489  20.420  0.00  0.00    +0.000 C 
ATOM      5  C   UNL     1       1.218   2.912  21.864  0.00  0.00    +0.000 C 
ATOM      6  C   UNL     1       2.591   3.595  21.829  0.00  0.00    +0.000 C 
ATOM      7  C   UNL     1       2.811   3.692  20.367  0.00  0.00    +0.000 C 
ATOM      8  N   UNL     1       3.919   3.893  19.741  0.00  0.00    +0.000 NA
ATOM      9  N   UNL     1       3.611   3.737  18.398  0.00  0.00    +0.000 N 
ATOM     10  C   UNL     1       4.520   3.934  17.387  0.00  0.00    +0.000 A 
ATOM     11  N   UNL     1       4.290   3.814  16.095  0.00  0.00    +0.000 NA
ATOM     12  C   UNL     1       5.397   4.209  15.349  0.00  0.00    +0.000 A 
ATOM     13  C   UNL     1       5.481   4.259  13.941  0.00  0.00    +0.000 A 
ATOM     14  C   UNL     1       6.657   4.710  13.323  0.00  0.00    +0.000 A 
ATOM     15  C   UNL     1       7.750   5.100  14.088  0.00  0.00    +0.000 A 
ATOM     16  C   UNL     1       7.696   5.049  15.483  0.00  0.00    +0.000 A 
ATOM     17  C   UNL     1       6.505   4.605  16.090  0.00  0.00    +0.000 A 
ATOM     18  S   UNL     1       6.140   4.459  17.755  0.00  0.00    +0.000 S 
ENDROOT
BRANCH   2  19
ATOM     19  O   UNL     1       2.323   1.754  18.055  0.00  0.00    +0.000 OA
ATOM     20  H   UNL     1       1.411   1.418  18.015  0.00  0.00    +0.000 HD
ENDBRANCH   2  19
TORSDOF 1
ENDMDL
MODEL 8
REMARK VINA RESULT:      -6.1      4.314      6.121
REMARK  Name = 
REMARK  2 active torsions:
REMARK  status: ('A' for Active; 'I' for Inactive)
REMARK    1  A    between atoms: C_1  and  C_2
REMARK    2  A    between atoms: C_2  and  O_3
REMARK                            x       y       z     vdW  Elec       q    Type
REMARK                         _______ _______ _______ _____ _____    ______ ____
ROOT
ATOM      1  C   UNL     1       2.329   4.454  21.588  0.00  0.00    +0.000 C 
ATOM      2  C   UNL     1       2.095   4.444  20.078  0.00  0.00    +0.000 C 
ATOM      3  C   UNL     1       3.189   3.598  19.414  0.00  0.00    +0.000 C 
ATOM      4  C   UNL     1       2.939   2.252  18.754  0.00  0.00    +0.000 C 
ATOM      5  C   UNL     1       3.877   2.243  17.530  0.00  0.00    +0.000 C 
ATOM      6  C   UNL     1       4.058   3.699  17.081  0.00  0.00    +0.000 C 
ATOM      7  C   UNL     1       3.395   4.413  18.196  0.00  0.00    +0.000 C 
ATOM      8  N   UNL     1       2.966   5.629  18.220  0.00  0.00    +0.000 NA
ATOM      9  N   UNL     1       2.290   5.752  19.425  0.00  0.00    +0.000 N 
ATOM     10  C   UNL     1       1.732   6.930  19.860  0.00  0.00    +0.000 A 
ATOM     11  N   UNL     1       1.090   7.117  20.994  0.00  0.00    +0.000 NA
ATOM     12  C   UNL     1       0.768   8.460  21.174  0.00  0.00    +0.000 A 
ATOM     13  C   UNL     1       0.127   9.022  22.299  0.00  0.00    +0.000 A 
ATOM     14  C   UNL     1      -0.107  10.405  22.355  0.00  0.00    +0.000 A 
ATOM     15  C   UNL     1       0.280  11.228  21.305  0.00  0.00    +0.000 A 
ATOM     16  C   UNL     1       0.906  10.694  20.175  0.00  0.00    +0.000 A 
ATOM     17  C   UNL     1       1.144   9.306  20.137  0.00  0.00    +0.000 A 
ATOM     18  S   UNL     1       1.901   8.382  18.913  0.00  0.00    +0.000 S 
ENDROOT
BRANCH   2  19
ATOM     19  O   UNL     1       0.817   3.900  19.756  0.00  0.00    +0.000 OA
ATOM     20  H   UNL     1       0.150   4.591  19.908  0.00  0.00    +0.000 HD
ENDBRANCH   2  19
TORSDOF 1
ENDMDL
MODEL 9
REMARK VINA RESULT:      -6.1      6.054      8.794
REMARK  Name = 
REMARK  2 active torsions:
REMARK  status: ('A' for Active; 'I' for Inactive)
REMARK    1  A    between atoms: C_1  and  C_2
REMARK    2  A    between atoms: C_2  and  O_3
REMARK                            x       y       z     vdW  Elec       q    Type
REMARK                         _______ _______ _______ _____ _____    ______ ____
ROOT
ATOM      1  C   UNL     1       1.384  11.349  19.044  0.00  0.00    +0.000 C 
ATOM      2  C   UNL     1       0.298  10.589  19.806  0.00  0.00    +0.000 C 
ATOM      3  C   UNL     1      -0.145  11.434  21.008  0.00  0.00    +0.000 C 
ATOM      4  C   UNL     1      -1.509  12.093  21.127  0.00  0.00    +0.000 C 
ATOM      5  C   UNL     1      -1.870  11.965  22.620  0.00  0.00    +0.000 C 
ATOM      6  C   UNL     1      -1.184  10.698  23.150  0.00  0.00    +0.000 C 
ATOM      7  C   UNL     1      -0.335  10.343  21.990  0.00  0.00    +0.000 C 
ATOM      8  N   UNL     1       0.229   9.212  21.733  0.00  0.00    +0.000 NA
ATOM      9  N   UNL     1       0.768   9.356  20.463  0.00  0.00    +0.000 N 
ATOM     10  C   UNL     1       1.514   8.381  19.845  0.00  0.00    +0.000 A 
ATOM     11  N   UNL     1       2.063   8.457  18.651  0.00  0.00    +0.000 NA
ATOM     12  C   UNL     1       2.853   7.341  18.388  0.00  0.00    +0.000 A 
ATOM     13  C   UNL     1       3.627   7.119  17.229  0.00  0.00    +0.000 A 
ATOM     14  C   UNL     1       4.402   5.956  17.114  0.00  0.00    +0.000 A 
ATOM     15  C   UNL     1       4.409   5.010  18.133  0.00  0.00    +0.000 A 
ATOM     16  C   UNL     1       3.642   5.201  19.286  0.00  0.00    +0.000 A 
ATOM     17  C   UNL     1       2.877   6.379  19.391  0.00  0.00    +0.000 A 
ATOM     18  S   UNL     1       1.871   6.893  20.676  0.00  0.00    +0.000 S 
ENDROOT
BRANCH   2  19
ATOM     19  O   UNL     1      -0.829  10.325  18.974  0.00  0.00    +0.000 OA
ATOM     20  H   UNL     1      -0.676   9.478  18.522  0.00  0.00    +0.000 HD
ENDBRANCH   2  19
TORSDOF 1
ENDMDL
