MODEL 1
REMARK VINA RESULT:      -8.0      0.000      0.000
REMARK  Name = 
REMARK  11 active torsions:
REMARK  status: ('A' for Active; 'I' for Inactive)
REMARK    1  A    between atoms: C_1  and  O_2
REMARK    2  A    between atoms: O_2  and  C_3
REMARK    3  A    between atoms: C_3  and  C_5
REMARK    4  A    between atoms: C_8  and  N_9
REMARK    5  A    between atoms: C_10  and  C_12
REMARK    6  A    between atoms: C_12  and  C_13
REMARK    7  A    between atoms: N_16  and  C_17
REMARK    8  A    between atoms: N_20  and  C_21
REMARK    9  A    between atoms: C_21  and  C_22
REMARK   10  A    between atoms: C_25  and  O_26
REMARK   11  A    between atoms: O_26  and  C_27
REMARK                            x       y       z     vdW  Elec       q    Type
REMARK                         _______ _______ _______ _____ _____    ______ ____
ROOT
ATOM      1  C   UNL     1       3.183   5.796  19.612  0.00  0.00    +0.000 C 
ATOM      2  C   UNL     1       1.949   4.947  19.912  0.00  0.00    +0.000 C 
ATOM      3  O   UNL     1       0.789   5.337  19.856  0.00  0.00    +0.000 OA
ATOM      4  N   UNL     1       2.361   3.696  20.288  0.00  0.00    +0.000 N 
ATOM      5  C   UNL     1       1.455   2.714  20.853  0.00  0.00    +0.000 C 
ATOM      6  C   UNL     1       3.697   3.523  20.008  0.00  0.00    +0.000 C 
ATOM      7  S   UNL     1       4.568   2.119  20.228  0.00  0.00    +0.000 S 
ATOM      8  N   UNL     1       4.179   4.732  19.486  0.00  0.00    +0.000 N 
ENDROOT
BRANCH   1   9
ATOM      9  C   UNL     1       2.984   6.719  18.420  0.00  0.00    +0.000 C 
BRANCH   9  11
ATOM     10  N   UNL     1       1.807   7.938  20.168  0.00  0.00    +0.000 N 
ATOM     11  C   UNL     1       2.036   7.842  18.808  0.00  0.00    +0.000 C 
ATOM     12  O   UNL     1       1.573   8.574  17.933  0.00  0.00    +0.000 OA
ATOM     13  H   UNL     1       2.392   7.379  20.775  0.00  0.00    +0.000 HD
BRANCH  10  17
ATOM     14  C   UNL     1      -0.488  10.813  22.269  0.00  0.00    +0.000 A 
ATOM     15  C   UNL     1       0.031  11.129  21.010  0.00  0.00    +0.000 A 
ATOM     16  C   UNL     1       0.782  10.189  20.292  0.00  0.00    +0.000 A 
ATOM     17  C   UNL     1       1.024   8.919  20.819  0.00  0.00    +0.000 A 
ATOM     18  C   UNL     1       0.473   8.591  22.066  0.00  0.00    +0.000 A 
ATOM     19  C   UNL     1      -0.268   9.533  22.793  0.00  0.00    +0.000 A 
BRANCH  14  20
ATOM     20  C   UNL     1      -1.254  11.861  22.999  0.00  0.00    +0.000 C 
ATOM     21  O   UNL     1      -2.430  11.746  23.308  0.00  0.00    +0.000 OA
BRANCH  20  23
ATOM     22  C   UNL     1      -1.191  14.140  23.518  0.00  0.00    +0.000 C 
ATOM     23  O   UNL     1      -0.468  12.936  23.253  0.00  0.00    +0.000 OA
ENDBRANCH  20  23
ENDBRANCH  14  20
ENDBRANCH  10  17
ENDBRANCH   9  11
ENDBRANCH   1   9
BRANCH   8  24
ATOM     24  C   UNL     1       5.568   5.015  19.116  0.00  0.00    +0.000 C 
BRANCH  24  25
ATOM     25  C   UNL     1       5.895   4.762  17.658  0.00  0.00    +0.000 A 
ATOM     26  C   UNL     1       4.975   4.236  16.742  0.00  0.00    +0.000 A 
ATOM     27  C   UNL     1       5.309   4.100  15.392  0.00  0.00    +0.000 A 
ATOM     28  C   UNL     1       6.568   4.481  14.932  0.00  0.00    +0.000 A 
ATOM     29  C   UNL     1       7.520   4.930  15.844  0.00  0.00    +0.000 A 
ATOM     30  C   UNL     1       7.185   5.070  17.196  0.00  0.00    +0.000 A 
BRANCH  28  31
ATOM     31  O   UNL     1       6.776   4.338  13.589  0.00  0.00    +0.000 OA
ATOM     32  C   UNL     1       5.797   3.556  12.912  0.00  0.00    +0.000 C 
ENDBRANCH  28  31
ENDBRANCH  24  25
ENDBRANCH   8  24
TORSDOF 8
ENDMDL
MODEL 2
REMARK VINA RESULT:      -7.9      5.267      8.090
REMARK  Name = 
REMARK  11 active torsions:
REMARK  status: ('A' for Active; 'I' for Inactive)
REMARK    1  A    between atoms: C_1  and  O_2
REMARK    2  A    between atoms: O_2  and  C_3
REMARK    3  A    between atoms: C_3  and  C_5
REMARK    4  A    between atoms: C_8  and  N_9
REMARK    5  A    between atoms: C_10  and  C_12
REMARK    6  A    between atoms: C_12  and  C_13
REMARK    7  A    between atoms: N_16  and  C_17
REMARK    8  A    between atoms: N_20  and  C_21
REMARK    9  A    between atoms: C_21  and  C_22
REMARK   10  A    between atoms: C_25  and  O_26
REMARK   11  A    between atoms: O_26  and  C_27
REMARK                            x       y       z     vdW  Elec       q    Type
REMARK                         _______ _______ _______ _____ _____    ______ ____
ROOT
ATOM      1  C   UNL     1       6.334   6.275  17.200  0.00  0.00    +0.000 C 
ATOM      2  C   UNL     1       6.723   5.489  15.951  0.00  0.00    +0.000 C 
ATOM      3  O   UNL     1       7.718   5.691  15.266  0.00  0.00    +0.000 OA
ATOM      4  N   UNL     1       5.755   4.550  15.707  0.00  0.00    +0.000 N 
ATOM      5  C   UNL     1       5.703   3.787  14.475  0.00  0.00    +0.000 C 
ATOM      6  C   UNL     1       4.916   4.429  16.791  0.00  0.00    +0.000 C 
ATOM      7  S   UNL     1       3.663   3.340  16.940  0.00  0.00    +0.000 S 
ATOM      8  N   UNL     1       5.324   5.369  17.748  0.00  0.00    +0.000 N 
ENDROOT
BRANCH   1   9
ATOM      9  C   UNL     1       7.529   6.609  18.078  0.00  0.00    +0.000 C 
BRANCH   9  11
ATOM     10  N   UNL     1       8.706   8.556  18.948  0.00  0.00    +0.000 N 
ATOM     11  C   UNL     1       7.810   8.101  17.997  0.00  0.00    +0.000 C 
ATOM     12  O   UNL     1       7.267   8.773  17.121  0.00  0.00    +0.000 OA
ATOM     13  H   UNL     1       9.199   7.857  19.488  0.00  0.00    +0.000 HD
BRANCH  10  17
ATOM     14  C   UNL     1      10.113  12.545  19.170  0.00  0.00    +0.000 A 
ATOM     15  C   UNL     1       9.821  11.848  20.346  0.00  0.00    +0.000 A 
ATOM     16  C   UNL     1       9.367  10.525  20.297  0.00  0.00    +0.000 A 
ATOM     17  C   UNL     1       9.199   9.875  19.072  0.00  0.00    +0.000 A 
ATOM     18  C   UNL     1       9.525  10.562  17.895  0.00  0.00    +0.000 A 
ATOM     19  C   UNL     1       9.967  11.892  17.940  0.00  0.00    +0.000 A 
BRANCH  14  20
ATOM     20  C   UNL     1      10.564  13.960  19.282  0.00  0.00    +0.000 C 
ATOM     21  O   UNL     1      11.440  14.330  20.048  0.00  0.00    +0.000 OA
BRANCH  20  23
ATOM     22  C   UNL     1       8.631  15.237  18.964  0.00  0.00    +0.000 C 
ATOM     23  O   UNL     1       9.866  14.752  18.432  0.00  0.00    +0.000 OA
ENDBRANCH  20  23
ENDBRANCH  14  20
ENDBRANCH  10  17
ENDBRANCH   9  11
ENDBRANCH   1   9
BRANCH   8  24
ATOM     24  C   UNL     1       4.665   5.631  19.030  0.00  0.00    +0.000 C 
BRANCH  24  25
ATOM     25  C   UNL     1       3.548   6.652  18.967  0.00  0.00    +0.000 A 
ATOM     26  C   UNL     1       2.631   6.856  20.007  0.00  0.00    +0.000 A 
ATOM     27  C   UNL     1       1.671   7.869  19.924  0.00  0.00    +0.000 A 
ATOM     28  C   UNL     1       1.605   8.691  18.802  0.00  0.00    +0.000 A 
ATOM     29  C   UNL     1       2.456   8.449  17.727  0.00  0.00    +0.000 A 
ATOM     30  C   UNL     1       3.421   7.438  17.811  0.00  0.00    +0.000 A 
BRANCH  28  31
ATOM     31  O   UNL     1       0.652   9.671  18.841  0.00  0.00    +0.000 OA
ATOM     32  C   UNL     1       0.405  10.213  20.135  0.00  0.00    +0.000 C 
ENDBRANCH  28  31
ENDBRANCH  24  25
ENDBRANCH   8  24
TORSDOF 8
ENDMDL
MODEL 3
REMARK VINA RESULT:      -7.9      2.250      2.910
REMARK  Name = 
REMARK  11 active torsions:
REMARK  status: ('A' for Active; 'I' for Inactive)
REMARK    1  A    between atoms: C_1  and  O_2
REMARK    2  A    between atoms: O_2  and  C_3
REMARK    3  A    between atoms: C_3  and  C_5
REMARK    4  A    between atoms: C_8  and  N_9
REMARK    5  A    between atoms: C_10  and  C_12
REMARK    6  A    between atoms: C_12  and  C_13
REMARK    7  A    between atoms: N_16  and  C_17
REMARK    8  A    between atoms: N_20  and  C_21
REMARK    9  A    between atoms: C_21  and  C_22
REMARK   10  A    between atoms: C_25  and  O_26
REMARK   11  A    between atoms: O_26  and  C_27
REMARK                            x       y       z     vdW  Elec       q    Type
REMARK                         _______ _______ _______ _____ _____    ______ ____
ROOT
ATOM      1  C   UNL     1       3.082   5.424  19.145  0.00  0.00    +0.000 C 
ATOM      2  C   UNL     1       2.153   4.833  20.203  0.00  0.00    +0.000 C 
ATOM      3  O   UNL     1       1.146   5.372  20.645  0.00  0.00    +0.000 OA
ATOM      4  N   UNL     1       2.658   3.622  20.599  0.00  0.00    +0.000 N 
ATOM      5  C   UNL     1       2.142   2.902  21.747  0.00  0.00    +0.000 C 
ATOM      6  C   UNL     1       3.649   3.209  19.740  0.00  0.00    +0.000 C 
ATOM      7  S   UNL     1       4.460   1.754  19.812  0.00  0.00    +0.000 S 
ATOM      8  N   UNL     1       3.832   4.221  18.787  0.00  0.00    +0.000 N 
ENDROOT
BRANCH   1   9
ATOM      9  C   UNL     1       2.326   6.138  18.035  0.00  0.00    +0.000 C 
BRANCH   9  11
ATOM     10  N   UNL     1       1.328   8.123  19.032  0.00  0.00    +0.000 N 
ATOM     11  C   UNL     1       2.380   7.638  18.276  0.00  0.00    +0.000 C 
ATOM     12  O   UNL     1       3.320   8.291  17.825  0.00  0.00    +0.000 OA
ATOM     13  H   UNL     1       0.727   7.441  19.476  0.00  0.00    +0.000 HD
BRANCH  10  17
ATOM     14  C   UNL     1       0.846  12.075  20.479  0.00  0.00    +0.000 A 
ATOM     15  C   UNL     1       1.164  11.865  19.134  0.00  0.00    +0.000 A 
ATOM     16  C   UNL     1       1.316  10.567  18.631  0.00  0.00    +0.000 A 
ATOM     17  C   UNL     1       1.150   9.457  19.463  0.00  0.00    +0.000 A 
ATOM     18  C   UNL     1       0.796   9.667  20.803  0.00  0.00    +0.000 A 
ATOM     19  C   UNL     1       0.657  10.966  21.313  0.00  0.00    +0.000 A 
BRANCH  14  20
ATOM     20  C   UNL     1       0.727  13.477  20.965  0.00  0.00    +0.000 C 
ATOM     21  O   UNL     1       1.233  13.878  22.001  0.00  0.00    +0.000 OA
BRANCH  20  23
ATOM     22  C   UNL     1      -1.374  14.403  20.518  0.00  0.00    +0.000 C 
ATOM     23  O   UNL     1      -0.017  14.218  20.107  0.00  0.00    +0.000 OA
ENDBRANCH  20  23
ENDBRANCH  14  20
ENDBRANCH  10  17
ENDBRANCH   9  11
ENDBRANCH   1   9
BRANCH   8  24
ATOM     24  C   UNL     1       4.838   4.225  17.721  0.00  0.00    +0.000 C 
BRANCH  24  25
ATOM     25  C   UNL     1       5.926   5.266  17.888  0.00  0.00    +0.000 A 
ATOM     26  C   UNL     1       6.051   6.390  17.061  0.00  0.00    +0.000 A 
ATOM     27  C   UNL     1       7.028   7.358  17.313  0.00  0.00    +0.000 A 
ATOM     28  C   UNL     1       7.901   7.219  18.389  0.00  0.00    +0.000 A 
ATOM     29  C   UNL     1       7.842   6.068  19.171  0.00  0.00    +0.000 A 
ATOM     30  C   UNL     1       6.861   5.100  18.923  0.00  0.00    +0.000 A 
BRANCH  28  31
ATOM     31  O   UNL     1       8.793   8.240  18.565  0.00  0.00    +0.000 OA
ATOM     32  C   UNL     1       8.361   9.502  18.066  0.00  0.00    +0.000 C 
ENDBRANCH  28  31
ENDBRANCH  24  25
ENDBRANCH   8  24
TORSDOF 8
ENDMDL
MODEL 4
REMARK VINA RESULT:      -7.8      5.387      8.101
REMARK  Name = 
REMARK  11 active torsions:
REMARK  status: ('A' for Active; 'I' for Inactive)
REMARK    1  A    between atoms: C_1  and  O_2
REMARK    2  A    between atoms: O_2  and  C_3
REMARK    3  A    between atoms: C_3  and  C_5
REMARK    4  A    between atoms: C_8  and  N_9
REMARK    5  A    between atoms: C_10  and  C_12
REMARK    6  A    between atoms: C_12  and  C_13
REMARK    7  A    between atoms: N_16  and  C_17
REMARK    8  A    between atoms: N_20  and  C_21
REMARK    9  A    between atoms: C_21  and  C_22
REMARK   10  A    between atoms: C_25  and  O_26
REMARK   11  A    between atoms: O_26  and  C_27
REMARK                            x       y       z     vdW  Elec       q    Type
REMARK                         _______ _______ _______ _____ _____    ______ ____
ROOT
ATOM      1  C   UNL     1       6.308   6.282  17.256  0.00  0.00    +0.000 C 
ATOM      2  C   UNL     1       6.710   5.534  15.986  0.00  0.00    +0.000 C 
ATOM      3  O   UNL     1       7.700   5.772  15.306  0.00  0.00    +0.000 OA
ATOM      4  N   UNL     1       5.758   4.585  15.719  0.00  0.00    +0.000 N 
ATOM      5  C   UNL     1       5.718   3.853  14.468  0.00  0.00    +0.000 C 
ATOM      6  C   UNL     1       4.924   4.421  16.801  0.00  0.00    +0.000 C 
ATOM      7  S   UNL     1       3.690   3.307  16.923  0.00  0.00    +0.000 S 
ATOM      8  N   UNL     1       5.316   5.344  17.782  0.00  0.00    +0.000 N 
ENDROOT
BRANCH   1   9
ATOM      9  C   UNL     1       7.499   6.614  18.141  0.00  0.00    +0.000 C 
BRANCH   9  11
ATOM     10  N   UNL     1       8.685   8.570  18.977  0.00  0.00    +0.000 N 
ATOM     11  C   UNL     1       7.834   8.090  17.997  0.00  0.00    +0.000 C 
ATOM     12  O   UNL     1       7.369   8.728  17.053  0.00  0.00    +0.000 OA
ATOM     13  H   UNL     1       9.120   7.888  19.583  0.00  0.00    +0.000 HD
BRANCH  10  17
ATOM     14  C   UNL     1      10.335  12.451  19.379  0.00  0.00    +0.000 A 
ATOM     15  C   UNL     1      10.143  11.909  18.104  0.00  0.00    +0.000 A 
ATOM     16  C   UNL     1       9.588  10.634  17.947  0.00  0.00    +0.000 A 
ATOM     17  C   UNL     1       9.213   9.879  19.061  0.00  0.00    +0.000 A 
ATOM     18  C   UNL     1       9.372  10.436  20.337  0.00  0.00    +0.000 A 
ATOM     19  C   UNL     1       9.941  11.708  20.499  0.00  0.00    +0.000 A 
BRANCH  14  20
ATOM     20  C   UNL     1      10.958  13.799  19.486  0.00  0.00    +0.000 C 
ATOM     21  O   UNL     1      12.112  14.038  19.165  0.00  0.00    +0.000 OA
BRANCH  20  23
ATOM     22  C   UNL     1       9.431  15.502  18.999  0.00  0.00    +0.000 C 
ATOM     23  O   UNL     1      10.072  14.695  19.988  0.00  0.00    +0.000 OA
ENDBRANCH  20  23
ENDBRANCH  14  20
ENDBRANCH  10  17
ENDBRANCH   9  11
ENDBRANCH   1   9
BRANCH   8  24
ATOM     24  C   UNL     1       4.655   5.561  19.071  0.00  0.00    +0.000 C 
BRANCH  24  25
ATOM     25  C   UNL     1       3.549   6.596  19.045  0.00  0.00    +0.000 A 
ATOM     26  C   UNL     1       2.648   6.787  20.101  0.00  0.00    +0.000 A 
ATOM     27  C   UNL     1       1.699   7.813  20.053  0.00  0.00    +0.000 A 
ATOM     28  C   UNL     1       1.627   8.660  18.950  0.00  0.00    +0.000 A 
ATOM     29  C   UNL     1       2.461   8.431  17.858  0.00  0.00    +0.000 A 
ATOM     30  C   UNL     1       3.416   7.407  17.907  0.00  0.00    +0.000 A 
BRANCH  28  31
ATOM     31  O   UNL     1       0.686   9.649  19.022  0.00  0.00    +0.000 OA
ATOM     32  C   UNL     1      -0.113   9.799  17.853  0.00  0.00    +0.000 C 
ENDBRANCH  28  31
ENDBRANCH  24  25
ENDBRANCH   8  24
TORSDOF 8
ENDMDL
MODEL 5
REMARK VINA RESULT:      -7.8      2.760      3.400
REMARK  Name = 
REMARK  11 active torsions:
REMARK  status: ('A' for Active; 'I' for Inactive)
REMARK    1  A    between atoms: C_1  and  O_2
REMARK    2  A    between atoms: O_2  and  C_3
REMARK    3  A    between atoms: C_3  and  C_5
REMARK    4  A    between atoms: C_8  and  N_9
REMARK    5  A    between atoms: C_10  and  C_12
REMARK    6  A    between atoms: C_12  and  C_13
REMARK    7  A    between atoms: N_16  and  C_17
REMARK    8  A    between atoms: N_20  and  C_21
REMARK    9  A    between atoms: C_21  and  C_22
REMARK   10  A    between atoms: C_25  and  O_26
REMARK   11  A    between atoms: O_26  and  C_27
REMARK                            x       y       z     vdW  Elec       q    Type
REMARK                         _______ _______ _______ _____ _____    ______ ____
ROOT
ATOM      1  C   UNL     1       2.819   5.280  18.882  0.00  0.00    +0.000 C 
ATOM      2  C   UNL     1       1.865   4.562  19.834  0.00  0.00    +0.000 C 
ATOM      3  O   UNL     1       0.918   5.078  20.414  0.00  0.00    +0.000 OA
ATOM      4  N   UNL     1       2.272   3.259  19.959  0.00  0.00    +0.000 N 
ATOM      5  C   UNL     1       1.720   2.363  20.957  0.00  0.00    +0.000 C 
ATOM      6  C   UNL     1       3.205   2.951  18.996  0.00  0.00    +0.000 C 
ATOM      7  S   UNL     1       3.889   1.452  18.742  0.00  0.00    +0.000 S 
ATOM      8  N   UNL     1       3.455   4.118  18.260  0.00  0.00    +0.000 N 
ENDROOT
BRANCH   1   9
ATOM      9  C   UNL     1       2.104   6.263  17.969  0.00  0.00    +0.000 C 
BRANCH   9  11
ATOM     10  N   UNL     1       1.515   8.623  17.848  0.00  0.00    +0.000 N 
ATOM     11  C   UNL     1       2.051   7.625  18.642  0.00  0.00    +0.000 C 
ATOM     12  O   UNL     1       2.448   7.744  19.801  0.00  0.00    +0.000 OA
ATOM     13  H   UNL     1       1.074   8.337  16.984  0.00  0.00    +0.000 HD
BRANCH  10  17
ATOM     14  C   UNL     1       0.939  12.694  18.868  0.00  0.00    +0.000 A 
ATOM     15  C   UNL     1      -0.099  11.778  19.065  0.00  0.00    +0.000 A 
ATOM     16  C   UNL     1       0.074  10.425  18.747  0.00  0.00    +0.000 A 
ATOM     17  C   UNL     1       1.286   9.965  18.229  0.00  0.00    +0.000 A 
ATOM     18  C   UNL     1       2.338  10.877  18.065  0.00  0.00    +0.000 A 
ATOM     19  C   UNL     1       2.165  12.234  18.371  0.00  0.00    +0.000 A 
BRANCH  14  20
ATOM     20  C   UNL     1       0.689  14.124  19.197  0.00  0.00    +0.000 C 
ATOM     21  O   UNL     1      -0.168  14.803  18.651  0.00  0.00    +0.000 OA
BRANCH  20  23
ATOM     22  C   UNL     1       1.011  14.467  21.488  0.00  0.00    +0.000 C 
ATOM     23  O   UNL     1       1.541  14.548  20.163  0.00  0.00    +0.000 OA
ENDBRANCH  20  23
ENDBRANCH  14  20
ENDBRANCH  10  17
ENDBRANCH   9  11
ENDBRANCH   1   9
BRANCH   8  24
ATOM     24  C   UNL     1       4.434   4.259  17.179  0.00  0.00    +0.000 C 
BRANCH  24  25
ATOM     25  C   UNL     1       5.570   5.214  17.481  0.00  0.00    +0.000 A 
ATOM     26  C   UNL     1       5.724   6.454  16.846  0.00  0.00    +0.000 A 
ATOM     27  C   UNL     1       6.749   7.328  17.224  0.00  0.00    +0.000 A 
ATOM     28  C   UNL     1       7.639   6.979  18.236  0.00  0.00    +0.000 A 
ATOM     29  C   UNL     1       7.549   5.717  18.820  0.00  0.00    +0.000 A 
ATOM     30  C   UNL     1       6.521   4.843  18.445  0.00  0.00    +0.000 A 
BRANCH  28  31
ATOM     31  O   UNL     1       8.579   7.921  18.549  0.00  0.00    +0.000 OA
ATOM     32  C   UNL     1       8.304   9.227  18.051  0.00  0.00    +0.000 C 
ENDBRANCH  28  31
ENDBRANCH  24  25
ENDBRANCH   8  24
TORSDOF 8
ENDMDL
MODEL 6
REMARK VINA RESULT:      -7.7      2.715      3.396
REMARK  Name = 
REMARK  11 active torsions:
REMARK  status: ('A' for Active; 'I' for Inactive)
REMARK    1  A    between atoms: C_1  and  O_2
REMARK    2  A    between atoms: O_2  and  C_3
REMARK    3  A    between atoms: C_3  and  C_5
REMARK    4  A    between atoms: C_8  and  N_9
REMARK    5  A    between atoms: C_10  and  C_12
REMARK    6  A    between atoms: C_12  and  C_13
REMARK    7  A    between atoms: N_16  and  C_17
REMARK    8  A    between atoms: N_20  and  C_21
REMARK    9  A    between atoms: C_21  and  C_22
REMARK   10  A    between atoms: C_25  and  O_26
REMARK   11  A    between atoms: O_26  and  C_27
REMARK                            x       y       z     vdW  Elec       q    Type
REMARK                         _______ _______ _______ _____ _____    ______ ____
ROOT
ATOM      1  C   UNL     1       2.815   5.301  18.970  0.00  0.00    +0.000 C 
ATOM      2  C   UNL     1       1.879   4.577  19.935  0.00  0.00    +0.000 C 
ATOM      3  O   UNL     1       0.937   5.088  20.528  0.00  0.00    +0.000 OA
ATOM      4  N   UNL     1       2.294   3.276  20.053  0.00  0.00    +0.000 N 
ATOM      5  C   UNL     1       1.761   2.377  21.059  0.00  0.00    +0.000 C 
ATOM      6  C   UNL     1       3.216   2.974  19.078  0.00  0.00    +0.000 C 
ATOM      7  S   UNL     1       3.904   1.479  18.814  0.00  0.00    +0.000 S 
ATOM      8  N   UNL     1       3.449   4.143  18.339  0.00  0.00    +0.000 N 
ENDROOT
BRANCH   1   9
ATOM      9  C   UNL     1       2.082   6.281  18.068  0.00  0.00    +0.000 C 
BRANCH   9  11
ATOM     10  N   UNL     1       1.608   8.664  17.905  0.00  0.00    +0.000 N 
ATOM     11  C   UNL     1       2.049   7.647  18.733  0.00  0.00    +0.000 C 
ATOM     12  O   UNL     1       2.380   7.755  19.914  0.00  0.00    +0.000 OA
ATOM     13  H   UNL     1       1.208   8.393  17.016  0.00  0.00    +0.000 HD
BRANCH  10  17
ATOM     14  C   UNL     1       0.943  12.665  19.126  0.00  0.00    +0.000 A 
ATOM     15  C   UNL     1       2.111  12.339  18.430  0.00  0.00    +0.000 A 
ATOM     16  C   UNL     1       2.346  11.026  18.006  0.00  0.00    +0.000 A 
ATOM     17  C   UNL     1       1.417  10.017  18.268  0.00  0.00    +0.000 A 
ATOM     18  C   UNL     1       0.229  10.351  18.934  0.00  0.00    +0.000 A 
ATOM     19  C   UNL     1      -0.003  11.663  19.372  0.00  0.00    +0.000 A 
BRANCH  14  20
ATOM     20  C   UNL     1       0.761  14.072  19.577  0.00  0.00    +0.000 C 
ATOM     21  O   UNL     1       1.105  14.479  20.676  0.00  0.00    +0.000 OA
BRANCH  20  23
ATOM     22  C   UNL     1      -0.023  16.186  18.954  0.00  0.00    +0.000 C 
ATOM     23  O   UNL     1       0.163  14.811  18.610  0.00  0.00    +0.000 OA
ENDBRANCH  20  23
ENDBRANCH  14  20
ENDBRANCH  10  17
ENDBRANCH   9  11
ENDBRANCH   1   9
BRANCH   8  24
ATOM     24  C   UNL     1       4.412   4.290  17.245  0.00  0.00    +0.000 C 
BRANCH  24  25
ATOM     25  C   UNL     1       5.553   5.244  17.536  0.00  0.00    +0.000 A 
ATOM     26  C   UNL     1       5.731   6.460  16.863  0.00  0.00    +0.000 A 
ATOM     27  C   UNL     1       6.758   7.335  17.230  0.00  0.00    +0.000 A 
ATOM     28  C   UNL     1       7.627   7.011  18.269  0.00  0.00    +0.000 A 
ATOM     29  C   UNL     1       7.513   5.771  18.893  0.00  0.00    +0.000 A 
ATOM     30  C   UNL     1       6.483   4.895  18.529  0.00  0.00    +0.000 A 
BRANCH  28  31
ATOM     31  O   UNL     1       8.571   7.954  18.568  0.00  0.00    +0.000 OA
ATOM     32  C   UNL     1       8.310   9.250  18.037  0.00  0.00    +0.000 C 
ENDBRANCH  28  31
ENDBRANCH  24  25
ENDBRANCH   8  24
TORSDOF 8
ENDMDL
MODEL 7
REMARK VINA RESULT:      -7.7      0.496      1.169
REMARK  Name = 
REMARK  11 active torsions:
REMARK  status: ('A' for Active; 'I' for Inactive)
REMARK    1  A    between atoms: C_1  and  O_2
REMARK    2  A    between atoms: O_2  and  C_3
REMARK    3  A    between atoms: C_3  and  C_5
REMARK    4  A    between atoms: C_8  and  N_9
REMARK    5  A    between atoms: C_10  and  C_12
REMARK    6  A    between atoms: C_12  and  C_13
REMARK    7  A    between atoms: N_16  and  C_17
REMARK    8  A    between atoms: N_20  and  C_21
REMARK    9  A    between atoms: C_21  and  C_22
REMARK   10  A    between atoms: C_25  and  O_26
REMARK   11  A    between atoms: O_26  and  C_27
REMARK                            x       y       z     vdW  Elec       q    Type
REMARK                         _______ _______ _______ _____ _____    ______ ____
ROOT
ATOM      1  C   UNL     1       3.126   5.827  19.674  0.00  0.00    +0.000 C 
ATOM      2  C   UNL     1       1.896   4.962  19.937  0.00  0.00    +0.000 C 
ATOM      3  O   UNL     1       0.734   5.337  19.859  0.00  0.00    +0.000 OA
ATOM      4  N   UNL     1       2.315   3.711  20.312  0.00  0.00    +0.000 N 
ATOM      5  C   UNL     1       1.408   2.714  20.847  0.00  0.00    +0.000 C 
ATOM      6  C   UNL     1       3.658   3.557  20.060  0.00  0.00    +0.000 C 
ATOM      7  S   UNL     1       4.542   2.161  20.288  0.00  0.00    +0.000 S 
ATOM      8  N   UNL     1       4.138   4.776  19.560  0.00  0.00    +0.000 N 
ENDROOT
BRANCH   1   9
ATOM      9  C   UNL     1       2.943   6.758  18.486  0.00  0.00    +0.000 C 
BRANCH   9  11
ATOM     10  N   UNL     1       1.882   8.095  20.222  0.00  0.00    +0.000 N 
ATOM     11  C   UNL     1       1.973   7.866  18.862  0.00  0.00    +0.000 C 
ATOM     12  O   UNL     1       1.374   8.475  17.974  0.00  0.00    +0.000 OA
ATOM     13  H   UNL     1       2.562   7.635  20.813  0.00  0.00    +0.000 HD
BRANCH  10  17
ATOM     14  C   UNL     1      -0.398  11.023  22.266  0.00  0.00    +0.000 A 
ATOM     15  C   UNL     1       0.271  11.366  21.087  0.00  0.00    +0.000 A 
ATOM     16  C   UNL     1       1.020  10.411  20.389  0.00  0.00    +0.000 A 
ATOM     17  C   UNL     1       1.111   9.098  20.855  0.00  0.00    +0.000 A 
ATOM     18  C   UNL     1       0.412   8.745  22.017  0.00  0.00    +0.000 A 
ATOM     19  C   UNL     1      -0.329   9.702  22.726  0.00  0.00    +0.000 A 
BRANCH  14  20
ATOM     20  C   UNL     1      -1.154  12.086  22.982  0.00  0.00    +0.000 C 
ATOM     21  O   UNL     1      -0.637  13.099  23.429  0.00  0.00    +0.000 OA
BRANCH  20  23
ATOM     22  C   UNL     1      -3.330  12.603  22.296  0.00  0.00    +0.000 C 
ATOM     23  O   UNL     1      -2.468  11.763  23.067  0.00  0.00    +0.000 OA
ENDBRANCH  20  23
ENDBRANCH  14  20
ENDBRANCH  10  17
ENDBRANCH   9  11
ENDBRANCH   1   9
BRANCH   8  24
ATOM     24  C   UNL     1       5.532   5.079  19.224  0.00  0.00    +0.000 C 
BRANCH  24  25
ATOM     25  C   UNL     1       5.855   4.997  17.747  0.00  0.00    +0.000 A 
ATOM     26  C   UNL     1       6.866   5.751  17.136  0.00  0.00    +0.000 A 
ATOM     27  C   UNL     1       7.171   5.574  15.783  0.00  0.00    +0.000 A 
ATOM     28  C   UNL     1       6.470   4.648  15.015  0.00  0.00    +0.000 A 
ATOM     29  C   UNL     1       5.409   3.950  15.587  0.00  0.00    +0.000 A 
ATOM     30  C   UNL     1       5.105   4.123  16.943  0.00  0.00    +0.000 A 
BRANCH  28  31
ATOM     31  O   UNL     1       6.873   4.531  13.714  0.00  0.00    +0.000 OA
ATOM     32  C   UNL     1       6.092   3.640  12.924  0.00  0.00    +0.000 C 
ENDBRANCH  28  31
ENDBRANCH  24  25
ENDBRANCH   8  24
TORSDOF 8
ENDMDL
MODEL 8
REMARK VINA RESULT:      -7.6      1.809      2.317
REMARK  Name = 
REMARK  11 active torsions:
REMARK  status: ('A' for Active; 'I' for Inactive)
REMARK    1  A    between atoms: C_1  and  O_2
REMARK    2  A    between atoms: O_2  and  C_3
REMARK    3  A    between atoms: C_3  and  C_5
REMARK    4  A    between atoms: C_8  and  N_9
REMARK    5  A    between atoms: C_10  and  C_12
REMARK    6  A    between atoms: C_12  and  C_13
REMARK    7  A    between atoms: N_16  and  C_17
REMARK    8  A    between atoms: N_20  and  C_21
REMARK    9  A    between atoms: C_21  and  C_22
REMARK   10  A    between atoms: C_25  and  O_26
REMARK   11  A    between atoms: O_26  and  C_27
REMARK                            x       y       z     vdW  Elec       q    Type
REMARK                         _______ _______ _______ _____ _____    ______ ____
ROOT
ATOM      1  C   UNL     1       2.898   5.693  19.769  0.00  0.00    +0.000 C 
ATOM      2  C   UNL     1       1.785   4.682  20.033  0.00  0.00    +0.000 C 
ATOM      3  O   UNL     1       0.586   4.931  20.036  0.00  0.00    +0.000 OA
ATOM      4  N   UNL     1       2.355   3.465  20.304  0.00  0.00    +0.000 N 
ATOM      5  C   UNL     1       1.592   2.343  20.815  0.00  0.00    +0.000 C 
ATOM      6  C   UNL     1       3.692   3.477  19.979  0.00  0.00    +0.000 C 
ATOM      7  S   UNL     1       4.731   2.176  20.070  0.00  0.00    +0.000 S 
ATOM      8  N   UNL     1       4.010   4.770  19.538  0.00  0.00    +0.000 N 
ENDROOT
BRANCH   1   9
ATOM      9  C   UNL     1       2.551   6.668  18.655  0.00  0.00    +0.000 C 
BRANCH   9  11
ATOM     10  N   UNL     1       1.694   8.924  18.332  0.00  0.00    +0.000 N 
ATOM     11  C   UNL     1       2.028   7.959  19.264  0.00  0.00    +0.000 C 
ATOM     12  O   UNL     1       1.920   8.052  20.487  0.00  0.00    +0.000 OA
ATOM     13  H   UNL     1       1.674   8.639  17.361  0.00  0.00    +0.000 HD
BRANCH  10  17
ATOM     14  C   UNL     1       0.111  12.790  19.037  0.00  0.00    +0.000 A 
ATOM     15  C   UNL     1      -0.725  11.673  19.128  0.00  0.00    +0.000 A 
ATOM     16  C   UNL     1      -0.220  10.385  18.911  0.00  0.00    +0.000 A 
ATOM     17  C   UNL     1       1.128  10.191  18.602  0.00  0.00    +0.000 A 
ATOM     18  C   UNL     1       1.973  11.308  18.546  0.00  0.00    +0.000 A 
ATOM     19  C   UNL     1       1.469  12.600  18.749  0.00  0.00    +0.000 A 
BRANCH  14  20
ATOM     20  C   UNL     1      -0.486  14.137  19.248  0.00  0.00    +0.000 C 
ATOM     21  O   UNL     1      -0.313  15.079  18.490  0.00  0.00    +0.000 OA
BRANCH  20  23
ATOM     22  C   UNL     1      -0.453  14.263  21.583  0.00  0.00    +0.000 C 
ATOM     23  O   UNL     1      -1.225  14.159  20.385  0.00  0.00    +0.000 OA
ENDBRANCH  20  23
ENDBRANCH  14  20
ENDBRANCH  10  17
ENDBRANCH   9  11
ENDBRANCH   1   9
BRANCH   8  24
ATOM     24  C   UNL     1       5.342   5.244  19.156  0.00  0.00    +0.000 C 
BRANCH  24  25
ATOM     25  C   UNL     1       5.716   4.977  17.713  0.00  0.00    +0.000 A 
ATOM     26  C   UNL     1       4.773   4.847  16.684  0.00  0.00    +0.000 A 
ATOM     27  C   UNL     1       5.182   4.680  15.357  0.00  0.00    +0.000 A 
ATOM     28  C   UNL     1       6.536   4.634  15.034  0.00  0.00    +0.000 A 
ATOM     29  C   UNL     1       7.483   4.680  16.054  0.00  0.00    +0.000 A 
ATOM     30  C   UNL     1       7.075   4.852  17.383  0.00  0.00    +0.000 A 
BRANCH  28  31
ATOM     31  O   UNL     1       6.823   4.504  13.704  0.00  0.00    +0.000 OA
ATOM     32  C   UNL     1       6.044   3.529  13.018  0.00  0.00    +0.000 C 
ENDBRANCH  28  31
ENDBRANCH  24  25
ENDBRANCH   8  24
TORSDOF 8
ENDMDL
MODEL 9
REMARK VINA RESULT:      -7.6      2.015      2.328
REMARK  Name = 
REMARK  11 active torsions:
REMARK  status: ('A' for Active; 'I' for Inactive)
REMARK    1  A    between atoms: C_1  and  O_2
REMARK    2  A    between atoms: O_2  and  C_3
REMARK    3  A    between atoms: C_3  and  C_5
REMARK    4  A    between atoms: C_8  and  N_9
REMARK    5  A    between atoms: C_10  and  C_12
REMARK    6  A    between atoms: C_12  and  C_13
REMARK    7  A    between atoms: N_16  and  C_17
REMARK    8  A    between atoms: N_20  and  C_21
REMARK    9  A    between atoms: C_21  and  C_22
REMARK   10  A    between atoms: C_25  and  O_26
REMARK   11  A    between atoms: O_26  and  C_27
REMARK                            x       y       z     vdW  Elec       q    Type
REMARK                         _______ _______ _______ _____ _____    ______ ____
ROOT
ATOM      1  C   UNL     1       2.873   5.661  19.837  0.00  0.00    +0.000 C 
ATOM      2  C   UNL     1       1.750   4.688  20.187  0.00  0.00    +0.000 C 
ATOM      3  O   UNL     1       0.558   4.966  20.233  0.00  0.00    +0.000 OA
ATOM      4  N   UNL     1       2.303   3.468  20.477  0.00  0.00    +0.000 N 
ATOM      5  C   UNL     1       1.537   2.385  21.062  0.00  0.00    +0.000 C 
ATOM      6  C   UNL     1       3.624   3.435  20.094  0.00  0.00    +0.000 C 
ATOM      7  S   UNL     1       4.636   2.113  20.189  0.00  0.00    +0.000 S 
ATOM      8  N   UNL     1       3.951   4.703  19.592  0.00  0.00    +0.000 N 
ENDROOT
BRANCH   1   9
ATOM      9  C   UNL     1       2.499   6.604  18.704  0.00  0.00    +0.000 C 
BRANCH   9  11
ATOM     10  N   UNL     1       1.696   8.873  18.335  0.00  0.00    +0.000 N 
ATOM     11  C   UNL     1       2.025   7.925  19.287  0.00  0.00    +0.000 C 
ATOM     12  O   UNL     1       1.948   8.056  20.509  0.00  0.00    +0.000 OA
ATOM     13  H   UNL     1       1.647   8.561  17.373  0.00  0.00    +0.000 HD
BRANCH  10  17
ATOM     14  C   UNL     1       0.015  12.666  19.186  0.00  0.00    +0.000 A 
ATOM     15  C   UNL     1       1.349  12.577  18.778  0.00  0.00    +0.000 A 
ATOM     16  C   UNL     1       1.922  11.335  18.479  0.00  0.00    +0.000 A 
ATOM     17  C   UNL     1       1.171  10.162  18.581  0.00  0.00    +0.000 A 
ATOM     18  C   UNL     1      -0.177  10.255  18.956  0.00  0.00    +0.000 A 
ATOM     19  C   UNL     1      -0.750  11.496  19.268  0.00  0.00    +0.000 A 
BRANCH  14  20
ATOM     20  C   UNL     1      -0.532  14.011  19.518  0.00  0.00    +0.000 C 
ATOM     21  O   UNL     1      -1.617  14.185  20.051  0.00  0.00    +0.000 OA
BRANCH  20  23
ATOM     22  C   UNL     1      -0.293  16.131  18.561  0.00  0.00    +0.000 C 
ATOM     23  O   UNL     1       0.333  14.985  19.142  0.00  0.00    +0.000 OA
ENDBRANCH  20  23
ENDBRANCH  14  20
ENDBRANCH  10  17
ENDBRANCH   9  11
ENDBRANCH   1   9
BRANCH   8  24
ATOM     24  C   UNL     1       5.276   5.130  19.136  0.00  0.00    +0.000 C 
BRANCH  24  25
ATOM     25  C   UNL     1       5.597   4.762  17.702  0.00  0.00    +0.000 A 
ATOM     26  C   UNL     1       4.622   4.394  16.764  0.00  0.00    +0.000 A 
ATOM     27  C   UNL     1       4.970   4.142  15.434  0.00  0.00    +0.000 A 
ATOM     28  C   UNL     1       6.295   4.246  15.017  0.00  0.00    +0.000 A 
ATOM     29  C   UNL     1       7.285   4.531  15.953  0.00  0.00    +0.000 A 
ATOM     30  C   UNL     1       6.937   4.788  17.286  0.00  0.00    +0.000 A 
BRANCH  28  31
ATOM     31  O   UNL     1       6.518   4.013  13.688  0.00  0.00    +0.000 OA
ATOM     32  C   UNL     1       7.432   4.913  13.069  0.00  0.00    +0.000 C 
ENDBRANCH  28  31
ENDBRANCH  24  25
ENDBRANCH   8  24
TORSDOF 8
ENDMDL
