MODEL 1
REMARK VINA RESULT:      -6.9      0.000      0.000
REMARK  Name = 
REMARK  8 active torsions:
REMARK  status: ('A' for Active; 'I' for Inactive)
REMARK    1  A    between atoms: C_3  and  C_4
REMARK    2  A    between atoms: C_4  and  N_5
REMARK    3  A    between atoms: N_10  and  C_11
REMARK    4  A    between atoms: C_11  and  C_12
REMARK    5  A    between atoms: C_16  and  C_17
REMARK    6  A    between atoms: C_17  and  O_18
REMARK    7  A    between atoms: O_18  and  C_19
REMARK    8  A    between atoms: C_19  and  C_20
REMARK                            x       y       z     vdW  Elec       q    Type
REMARK                         _______ _______ _______ _____ _____    ______ ____
ROOT
ATOM      1  N   UNL     1       5.015   4.524  19.627  0.00  0.00    +0.000 NA
ATOM      2  C   UNL     1       6.475   4.723  19.358  0.00  0.00    +0.000 C 
ATOM      3  C   UNL     1       6.687   4.938  17.902  0.00  0.00    +0.000 A 
ATOM      4  N   UNL     1       7.802   4.535  17.248  0.00  0.00    +0.000 NA
ATOM      5  N   UNL     1       7.582   4.686  15.948  0.00  0.00    +0.000 NA
ATOM      6  N   UNL     1       6.299   5.080  15.790  0.00  0.00    +0.000 N 
ATOM      7  C   UNL     1       5.763   5.427  17.001  0.00  0.00    +0.000 A 
ATOM      8  C   UNL     1       4.395   5.916  17.335  0.00  0.00    +0.000 C 
ATOM      9  C   UNL     1       4.261   5.689  18.928  0.00  0.00    +0.000 C 
ENDROOT
BRANCH   1  10
ATOM     10  C   UNL     1       4.690   3.078  19.431  0.00  0.00    +0.000 C 
BRANCH  10  13
ATOM     11  C   UNL     1       1.015   2.448  19.034  0.00  0.00    +0.000 A 
ATOM     12  C   UNL     1       2.071   2.773  19.861  0.00  0.00    +0.000 A 
ATOM     13  C   UNL     1       3.260   2.722  19.069  0.00  0.00    +0.000 A 
ATOM     14  C   UNL     1       2.799   2.461  17.785  0.00  0.00    +0.000 A 
ATOM     15  O   UNL     1       1.456   2.266  17.767  0.00  0.00    +0.000 OA
ENDBRANCH  10  13
ENDBRANCH   1  10
BRANCH   6  16
ATOM     16  C   UNL     1       5.618   4.906  14.514  0.00  0.00    +0.000 C 
BRANCH  16  17
ATOM     17  C   UNL     1       6.107   3.748  13.676  0.00  0.00    +0.000 C 
ATOM     18  C   UNL     1       5.532   3.386  12.378  0.00  0.00    +0.000 C 
ATOM     19  C   UNL     1       6.903   4.041  12.377  0.00  0.00    +0.000 C 
ENDBRANCH  16  17
ENDBRANCH   6  16
BRANCH   8  20
ATOM     20  C   UNL     1       4.038   7.322  16.708  0.00  0.00    +0.000 C 
BRANCH  20  21
ATOM     21  O   UNL     1       2.717   7.691  17.199  0.00  0.00    +0.000 OA
BRANCH  21  22
ATOM     22  C   UNL     1       2.590   8.963  17.852  0.00  0.00    +0.000 C 
BRANCH  22  23
ATOM     23  C   UNL     1       1.292   8.986  18.638  0.00  0.00    +0.000 C 
ATOM     24  C   UNL     1       0.975  10.089  19.623  0.00  0.00    +0.000 C 
ATOM     25  C   UNL     1       0.199   9.997  18.342  0.00  0.00    +0.000 C 
ENDBRANCH  22  23
ENDBRANCH  21  22
ENDBRANCH  20  21
ENDBRANCH   8  20
TORSDOF 8
ENDMDL
MODEL 2
REMARK VINA RESULT:      -6.6      2.163      6.032
REMARK  Name = 
REMARK  8 active torsions:
REMARK  status: ('A' for Active; 'I' for Inactive)
REMARK    1  A    between atoms: C_3  and  C_4
REMARK    2  A    between atoms: C_4  and  N_5
REMARK    3  A    between atoms: N_10  and  C_11
REMARK    4  A    between atoms: C_11  and  C_12
REMARK    5  A    between atoms: C_16  and  C_17
REMARK    6  A    between atoms: C_17  and  O_18
REMARK    7  A    between atoms: O_18  and  C_19
REMARK    8  A    between atoms: C_19  and  C_20
REMARK                            x       y       z     vdW  Elec       q    Type
REMARK                         _______ _______ _______ _____ _____    ______ ____
ROOT
ATOM      1  N   UNL     1       6.472   3.868  15.023  0.00  0.00    +0.000 NA
ATOM      2  C   UNL     1       7.269   4.919  15.733  0.00  0.00    +0.000 C 
ATOM      3  C   UNL     1       6.364   5.742  16.579  0.00  0.00    +0.000 A 
ATOM      4  N   UNL     1       6.574   7.056  16.828  0.00  0.00    +0.000 NA
ATOM      5  N   UNL     1       5.488   7.529  17.428  0.00  0.00    +0.000 NA
ATOM      6  N   UNL     1       4.568   6.539  17.456  0.00  0.00    +0.000 N 
ATOM      7  C   UNL     1       5.147   5.351  17.100  0.00  0.00    +0.000 A 
ATOM      8  C   UNL     1       4.545   3.993  16.984  0.00  0.00    +0.000 C 
ATOM      9  C   UNL     1       5.601   3.155  16.094  0.00  0.00    +0.000 C 
ENDROOT
BRANCH   1  10
ATOM     10  C   UNL     1       5.932   4.458  13.760  0.00  0.00    +0.000 C 
BRANCH  10  13
ATOM     11  C   UNL     1       5.700   1.819  11.105  0.00  0.00    +0.000 A 
ATOM     12  C   UNL     1       6.441   2.429  12.097  0.00  0.00    +0.000 A 
ATOM     13  C   UNL     1       5.659   3.513  12.604  0.00  0.00    +0.000 A 
ATOM     14  C   UNL     1       4.450   3.401  11.928  0.00  0.00    +0.000 A 
ATOM     15  O   UNL     1       4.483   2.406  11.007  0.00  0.00    +0.000 OA
ENDBRANCH  10  13
ENDBRANCH   1  10
BRANCH   6  16
ATOM     16  C   UNL     1       3.154   6.842  17.630  0.00  0.00    +0.000 C 
BRANCH  16  17
ATOM     17  C   UNL     1       2.843   8.272  18.008  0.00  0.00    +0.000 C 
ATOM     18  C   UNL     1       1.588   8.946  17.667  0.00  0.00    +0.000 C 
ATOM     19  C   UNL     1       1.796   8.547  19.119  0.00  0.00    +0.000 C 
ENDBRANCH  16  17
ENDBRANCH   6  16
BRANCH   8  20
ATOM     20  C   UNL     1       4.021   3.396  18.350  0.00  0.00    +0.000 C 
BRANCH  20  21
ATOM     21  O   UNL     1       3.143   2.280  18.026  0.00  0.00    +0.000 OA
BRANCH  21  22
ATOM     22  C   UNL     1       2.071   2.000  18.939  0.00  0.00    +0.000 C 
BRANCH  22  23
ATOM     23  C   UNL     1       2.182   2.935  20.129  0.00  0.00    +0.000 C 
ATOM     24  C   UNL     1       1.052   3.860  20.524  0.00  0.00    +0.000 C 
ATOM     25  C   UNL     1       1.397   2.696  21.406  0.00  0.00    +0.000 C 
ENDBRANCH  22  23
ENDBRANCH  21  22
ENDBRANCH  20  21
ENDBRANCH   8  20
TORSDOF 8
ENDMDL
MODEL 3
REMARK VINA RESULT:      -6.4      2.363      5.677
REMARK  Name = 
REMARK  8 active torsions:
REMARK  status: ('A' for Active; 'I' for Inactive)
REMARK    1  A    between atoms: C_3  and  C_4
REMARK    2  A    between atoms: C_4  and  N_5
REMARK    3  A    between atoms: N_10  and  C_11
REMARK    4  A    between atoms: C_11  and  C_12
REMARK    5  A    between atoms: C_16  and  C_17
REMARK    6  A    between atoms: C_17  and  O_18
REMARK    7  A    between atoms: O_18  and  C_19
REMARK    8  A    between atoms: C_19  and  C_20
REMARK                            x       y       z     vdW  Elec       q    Type
REMARK                         _______ _______ _______ _____ _____    ______ ____
ROOT
ATOM      1  N   UNL     1       5.669   5.612  16.129  0.00  0.00    +0.000 NA
ATOM      2  C   UNL     1       5.042   4.274  15.883  0.00  0.00    +0.000 C 
ATOM      3  C   UNL     1       4.231   3.880  17.066  0.00  0.00    +0.000 A 
ATOM      4  N   UNL     1       4.069   2.595  17.458  0.00  0.00    +0.000 NA
ATOM      5  N   UNL     1       3.479   2.610  18.647  0.00  0.00    +0.000 NA
ATOM      6  N   UNL     1       3.370   3.899  19.038  0.00  0.00    +0.000 N 
ATOM      7  C   UNL     1       3.663   4.732  17.991  0.00  0.00    +0.000 A 
ATOM      8  C   UNL     1       3.682   6.221  17.933  0.00  0.00    +0.000 C 
ATOM      9  C   UNL     1       4.539   6.564  16.608  0.00  0.00    +0.000 C 
ENDROOT
BRANCH   1  10
ATOM     10  C   UNL     1       6.956   5.403  16.862  0.00  0.00    +0.000 C 
BRANCH  10  13
ATOM     11  C   UNL     1       8.259   8.713  18.052  0.00  0.00    +0.000 A 
ATOM     12  C   UNL     1       7.609   7.985  17.074  0.00  0.00    +0.000 A 
ATOM     13  C   UNL     1       7.610   6.619  17.493  0.00  0.00    +0.000 A 
ATOM     14  C   UNL     1       8.186   6.653  18.757  0.00  0.00    +0.000 A 
ATOM     15  O   UNL     1       8.604   7.903  19.081  0.00  0.00    +0.000 OA
ENDBRANCH  10  13
ENDBRANCH   1  10
BRANCH   6  16
ATOM     16  C   UNL     1       3.187   4.238  20.442  0.00  0.00    +0.000 C 
BRANCH  16  17
ATOM     17  C   UNL     1       1.770   4.129  20.953  0.00  0.00    +0.000 C 
ATOM     18  C   UNL     1       0.717   3.372  20.271  0.00  0.00    +0.000 C 
ATOM     19  C   UNL     1       1.284   2.783  21.552  0.00  0.00    +0.000 C 
ENDBRANCH  16  17
ENDBRANCH   6  16
BRANCH   8  20
ATOM     20  C   UNL     1       2.271   6.897  18.154  0.00  0.00    +0.000 C 
BRANCH  20  21
ATOM     21  O   UNL     1       2.507   8.304  18.451  0.00  0.00    +0.000 OA
BRANCH  21  22
ATOM     22  C   UNL     1       1.390   9.073  18.921  0.00  0.00    +0.000 C 
BRANCH  22  23
ATOM     23  C   UNL     1       1.369   9.036  20.438  0.00  0.00    +0.000 C 
ATOM     24  C   UNL     1       0.123   9.369  21.227  0.00  0.00    +0.000 C 
ATOM     25  C   UNL     1       0.623   7.955  21.198  0.00  0.00    +0.000 C 
ENDBRANCH  22  23
ENDBRANCH  21  22
ENDBRANCH  20  21
ENDBRANCH   8  20
TORSDOF 8
ENDMDL
MODEL 4
REMARK VINA RESULT:      -6.4      3.258      7.321
REMARK  Name = 
REMARK  8 active torsions:
REMARK  status: ('A' for Active; 'I' for Inactive)
REMARK    1  A    between atoms: C_3  and  C_4
REMARK    2  A    between atoms: C_4  and  N_5
REMARK    3  A    between atoms: N_10  and  C_11
REMARK    4  A    between atoms: C_11  and  C_12
REMARK    5  A    between atoms: C_16  and  C_17
REMARK    6  A    between atoms: C_17  and  O_18
REMARK    7  A    between atoms: O_18  and  C_19
REMARK    8  A    between atoms: C_19  and  C_20
REMARK                            x       y       z     vdW  Elec       q    Type
REMARK                         _______ _______ _______ _____ _____    ______ ____
ROOT
ATOM      1  N   UNL     1       7.733   7.096  17.100  0.00  0.00    +0.000 NA
ATOM      2  C   UNL     1       8.034   6.192  18.256  0.00  0.00    +0.000 C 
ATOM      3  C   UNL     1       6.810   5.430  18.623  0.00  0.00    +0.000 A 
ATOM      4  N   UNL     1       6.527   5.049  19.890  0.00  0.00    +0.000 NA
ATOM      5  N   UNL     1       5.283   4.585  19.901  0.00  0.00    +0.000 NA
ATOM      6  N   UNL     1       4.761   4.774  18.669  0.00  0.00    +0.000 N 
ATOM      7  C   UNL     1       5.749   5.132  17.792  0.00  0.00    +0.000 A 
ATOM      8  C   UNL     1       5.667   5.445  16.338  0.00  0.00    +0.000 C 
ATOM      9  C   UNL     1       7.041   6.229  16.012  0.00  0.00    +0.000 C 
ENDROOT
BRANCH   1  10
ATOM     10  C   UNL     1       7.173   8.376  17.634  0.00  0.00    +0.000 C 
BRANCH  10  13
ATOM     11  C   UNL     1       9.238  11.435  18.300  0.00  0.00    +0.000 A 
ATOM     12  C   UNL     1       8.225  10.831  17.582  0.00  0.00    +0.000 A 
ATOM     13  C   UNL     1       8.156   9.469  18.011  0.00  0.00    +0.000 A 
ATOM     14  C   UNL     1       9.086   9.392  19.040  0.00  0.00    +0.000 A 
ATOM     15  O   UNL     1       9.758  10.560  19.194  0.00  0.00    +0.000 OA
ENDBRANCH  10  13
ENDBRANCH   1  10
BRANCH   6  16
ATOM     16  C   UNL     1       3.319   4.793  18.467  0.00  0.00    +0.000 C 
BRANCH  16  17
ATOM     17  C   UNL     1       2.577   3.591  19.003  0.00  0.00    +0.000 C 
ATOM     18  C   UNL     1       1.342   3.681  19.784  0.00  0.00    +0.000 C 
ATOM     19  C   UNL     1       1.229   3.185  18.352  0.00  0.00    +0.000 C 
ENDBRANCH  16  17
ENDBRANCH   6  16
BRANCH   8  20
ATOM     20  C   UNL     1       5.225   4.226  15.435  0.00  0.00    +0.000 C 
BRANCH  20  21
ATOM     21  O   UNL     1       6.378   3.843  14.630  0.00  0.00    +0.000 OA
BRANCH  21  22
ATOM     22  C   UNL     1       6.274   4.020  13.209  0.00  0.00    +0.000 C 
BRANCH  22  23
ATOM     23  C   UNL     1       5.219   3.072  12.670  0.00  0.00    +0.000 C 
ATOM     24  C   UNL     1       4.509   3.330  11.360  0.00  0.00    +0.000 C 
ATOM     25  C   UNL     1       5.481   2.191  11.463  0.00  0.00    +0.000 C 
ENDBRANCH  22  23
ENDBRANCH  21  22
ENDBRANCH  20  21
ENDBRANCH   8  20
TORSDOF 8
ENDMDL
MODEL 5
REMARK VINA RESULT:      -6.3      2.112      5.251
REMARK  Name = 
REMARK  8 active torsions:
REMARK  status: ('A' for Active; 'I' for Inactive)
REMARK    1  A    between atoms: C_3  and  C_4
REMARK    2  A    between atoms: C_4  and  N_5
REMARK    3  A    between atoms: N_10  and  C_11
REMARK    4  A    between atoms: C_11  and  C_12
REMARK    5  A    between atoms: C_16  and  C_17
REMARK    6  A    between atoms: C_17  and  O_18
REMARK    7  A    between atoms: O_18  and  C_19
REMARK    8  A    between atoms: C_19  and  C_20
REMARK                            x       y       z     vdW  Elec       q    Type
REMARK                         _______ _______ _______ _____ _____    ______ ____
ROOT
ATOM      1  N   UNL     1       5.483   5.605  15.697  0.00  0.00    +0.000 NA
ATOM      2  C   UNL     1       4.593   4.433  15.421  0.00  0.00    +0.000 C 
ATOM      3  C   UNL     1       3.968   3.973  16.690  0.00  0.00    +0.000 A 
ATOM      4  N   UNL     1       3.659   2.679  16.938  0.00  0.00    +0.000 NA
ATOM      5  N   UNL     1       3.321   2.585  18.218  0.00  0.00    +0.000 NA
ATOM      6  N   UNL     1       3.521   3.794  18.788  0.00  0.00    +0.000 N 
ATOM      7  C   UNL     1       3.750   4.735  17.820  0.00  0.00    +0.000 A 
ATOM      8  C   UNL     1       4.022   6.194  17.954  0.00  0.00    +0.000 C 
ATOM      9  C   UNL     1       4.654   6.621  16.530  0.00  0.00    +0.000 C 
ENDROOT
BRANCH   1  10
ATOM     10  C   UNL     1       6.829   5.092  16.099  0.00  0.00    +0.000 C 
BRANCH  10  13
ATOM     11  C   UNL     1       8.128   6.773  19.190  0.00  0.00    +0.000 A 
ATOM     12  C   UNL     1       7.793   6.862  17.854  0.00  0.00    +0.000 A 
ATOM     13  C   UNL     1       7.389   5.557  17.431  0.00  0.00    +0.000 A 
ATOM     14  C   UNL     1       7.422   4.800  18.596  0.00  0.00    +0.000 A 
ATOM     15  O   UNL     1       7.895   5.519  19.645  0.00  0.00    +0.000 OA
ENDBRANCH  10  13
ENDBRANCH   1  10
BRANCH   6  16
ATOM     16  C   UNL     1       3.676   3.921  20.230  0.00  0.00    +0.000 C 
BRANCH  16  17
ATOM     17  C   UNL     1       2.398   4.172  20.996  0.00  0.00    +0.000 C 
ATOM     18  C   UNL     1       1.065   3.865  20.474  0.00  0.00    +0.000 C 
ATOM     19  C   UNL     1       1.612   2.963  21.568  0.00  0.00    +0.000 C 
ENDBRANCH  16  17
ENDBRANCH   6  16
BRANCH   8  20
ATOM     20  C   UNL     1       2.823   7.025  18.562  0.00  0.00    +0.000 C 
BRANCH  20  21
ATOM     21  O   UNL     1       2.368   7.947  17.530  0.00  0.00    +0.000 OA
BRANCH  21  22
ATOM     22  C   UNL     1       2.188   9.320  17.908  0.00  0.00    +0.000 C 
BRANCH  22  23
ATOM     23  C   UNL     1       0.949   9.433  18.778  0.00  0.00    +0.000 C 
ATOM     24  C   UNL     1       0.786  10.543  19.793  0.00  0.00    +0.000 C 
ATOM     25  C   UNL     1      -0.076  10.531  18.564  0.00  0.00    +0.000 C 
ENDBRANCH  22  23
ENDBRANCH  21  22
ENDBRANCH  20  21
ENDBRANCH   8  20
TORSDOF 8
ENDMDL
MODEL 6
REMARK VINA RESULT:      -6.3      2.486      5.746
REMARK  Name = 
REMARK  8 active torsions:
REMARK  status: ('A' for Active; 'I' for Inactive)
REMARK    1  A    between atoms: C_3  and  C_4
REMARK    2  A    between atoms: C_4  and  N_5
REMARK    3  A    between atoms: N_10  and  C_11
REMARK    4  A    between atoms: C_11  and  C_12
REMARK    5  A    between atoms: C_16  and  C_17
REMARK    6  A    between atoms: C_17  and  O_18
REMARK    7  A    between atoms: O_18  and  C_19
REMARK    8  A    between atoms: C_19  and  C_20
REMARK                            x       y       z     vdW  Elec       q    Type
REMARK                         _______ _______ _______ _____ _____    ______ ____
ROOT
ATOM      1  N   UNL     1       5.777   6.560  16.324  0.00  0.00    +0.000 NA
ATOM      2  C   UNL     1       5.294   5.249  15.782  0.00  0.00    +0.000 C 
ATOM      3  C   UNL     1       4.466   4.562  16.809  0.00  0.00    +0.000 A 
ATOM      4  N   UNL     1       4.409   3.216  16.934  0.00  0.00    +0.000 NA
ATOM      5  N   UNL     1       3.760   2.945  18.061  0.00  0.00    +0.000 NA
ATOM      6  N   UNL     1       3.510   4.117  18.684  0.00  0.00    +0.000 N 
ATOM      7  C   UNL     1       3.773   5.162  17.841  0.00  0.00    +0.000 A 
ATOM      8  C   UNL     1       3.652   6.629  18.072  0.00  0.00    +0.000 C 
ATOM      9  C   UNL     1       4.537   7.300  16.899  0.00  0.00    +0.000 C 
ENDROOT
BRANCH   1  10
ATOM     10  C   UNL     1       7.039   6.319  17.088  0.00  0.00    +0.000 C 
BRANCH  10  13
ATOM     11  C   UNL     1       8.389   9.612  18.272  0.00  0.00    +0.000 A 
ATOM     12  C   UNL     1       7.624   8.912  17.359  0.00  0.00    +0.000 A 
ATOM     13  C   UNL     1       7.738   7.525  17.689  0.00  0.00    +0.000 A 
ATOM     14  C   UNL     1       8.497   7.515  18.852  0.00  0.00    +0.000 A 
ATOM     15  O   UNL     1       8.914   8.762  19.186  0.00  0.00    +0.000 OA
ENDBRANCH  10  13
ENDBRANCH   1  10
BRANCH   6  16
ATOM     16  C   UNL     1       3.225   4.154  20.112  0.00  0.00    +0.000 C 
BRANCH  16  17
ATOM     17  C   UNL     1       1.764   4.052  20.482  0.00  0.00    +0.000 C 
ATOM     18  C   UNL     1       0.857   3.040  19.935  0.00  0.00    +0.000 C 
ATOM     19  C   UNL     1       1.293   2.880  21.383  0.00  0.00    +0.000 C 
ENDBRANCH  16  17
ENDBRANCH   6  16
BRANCH   8  20
ATOM     20  C   UNL     1       2.174   7.127  18.323  0.00  0.00    +0.000 C 
BRANCH  20  21
ATOM     21  O   UNL     1       2.206   8.584  18.346  0.00  0.00    +0.000 OA
BRANCH  21  22
ATOM     22  C   UNL     1       1.375   9.245  19.313  0.00  0.00    +0.000 C 
BRANCH  22  23
ATOM     23  C   UNL     1       0.361  10.107  18.584  0.00  0.00    +0.000 C 
ATOM     24  C   UNL     1      -0.818  10.728  19.299  0.00  0.00    +0.000 C 
ATOM     25  C   UNL     1       0.290  11.607  18.799  0.00  0.00    +0.000 C 
ENDBRANCH  22  23
ENDBRANCH  21  22
ENDBRANCH  20  21
ENDBRANCH   8  20
TORSDOF 8
ENDMDL
MODEL 7
REMARK VINA RESULT:      -6.3      3.192      7.208
REMARK  Name = 
REMARK  8 active torsions:
REMARK  status: ('A' for Active; 'I' for Inactive)
REMARK    1  A    between atoms: C_3  and  C_4
REMARK    2  A    between atoms: C_4  and  N_5
REMARK    3  A    between atoms: N_10  and  C_11
REMARK    4  A    between atoms: C_11  and  C_12
REMARK    5  A    between atoms: C_16  and  C_17
REMARK    6  A    between atoms: C_17  and  O_18
REMARK    7  A    between atoms: O_18  and  C_19
REMARK    8  A    between atoms: C_19  and  C_20
REMARK                            x       y       z     vdW  Elec       q    Type
REMARK                         _______ _______ _______ _____ _____    ______ ____
ROOT
ATOM      1  N   UNL     1       7.669   7.125  17.218  0.00  0.00    +0.000 NA
ATOM      2  C   UNL     1       7.794   6.232  18.415  0.00  0.00    +0.000 C 
ATOM      3  C   UNL     1       6.496   5.552  18.666  0.00  0.00    +0.000 A 
ATOM      4  N   UNL     1       6.061   5.218  19.903  0.00  0.00    +0.000 NA
ATOM      5  N   UNL     1       4.797   4.827  19.793  0.00  0.00    +0.000 NA
ATOM      6  N   UNL     1       4.417   5.018  18.510  0.00  0.00    +0.000 N 
ATOM      7  C   UNL     1       5.510   5.297  17.734  0.00  0.00    +0.000 A 
ATOM      8  C   UNL     1       5.596   5.580  16.274  0.00  0.00    +0.000 C 
ATOM      9  C   UNL     1       7.041   6.274  16.079  0.00  0.00    +0.000 C 
ENDROOT
BRANCH   1  10
ATOM     10  C   UNL     1       7.135   8.447  17.668  0.00  0.00    +0.000 C 
BRANCH  10  13
ATOM     11  C   UNL     1       9.836  10.584  19.153  0.00  0.00    +0.000 A 
ATOM     12  C   UNL     1       9.094   9.421  19.203  0.00  0.00    +0.000 A 
ATOM     13  C   UNL     1       8.137   9.484  18.142  0.00  0.00    +0.000 A 
ATOM     14  C   UNL     1       8.454  10.658  17.471  0.00  0.00    +0.000 A 
ATOM     15  O   UNL     1       9.452  11.335  18.094  0.00  0.00    +0.000 OA
ENDBRANCH  10  13
ENDBRANCH   1  10
BRANCH   6  16
ATOM     16  C   UNL     1       3.007   5.116  18.159  0.00  0.00    +0.000 C 
BRANCH  16  17
ATOM     17  C   UNL     1       2.412   3.877  17.531  0.00  0.00    +0.000 C 
ATOM     18  C   UNL     1       2.818   2.514  17.881  0.00  0.00    +0.000 C 
ATOM     19  C   UNL     1       1.460   2.988  18.373  0.00  0.00    +0.000 C 
ENDBRANCH  16  17
ENDBRANCH   6  16
BRANCH   8  20
ATOM     20  C   UNL     1       5.176   4.367  15.351  0.00  0.00    +0.000 C 
BRANCH  20  21
ATOM     21  O   UNL     1       5.695   4.638  14.017  0.00  0.00    +0.000 OA
BRANCH  21  22
ATOM     22  C   UNL     1       6.476   3.608  13.394  0.00  0.00    +0.000 C 
BRANCH  22  23
ATOM     23  C   UNL     1       6.000   3.426  11.964  0.00  0.00    +0.000 C 
ATOM     24  C   UNL     1       5.556   2.079  11.437  0.00  0.00    +0.000 C 
ATOM     25  C   UNL     1       4.541   3.166  11.638  0.00  0.00    +0.000 C 
ENDBRANCH  22  23
ENDBRANCH  21  22
ENDBRANCH  20  21
ENDBRANCH   8  20
TORSDOF 8
ENDMDL
MODEL 8
REMARK VINA RESULT:      -6.2      2.279      5.865
REMARK  Name = 
REMARK  8 active torsions:
REMARK  status: ('A' for Active; 'I' for Inactive)
REMARK    1  A    between atoms: C_3  and  C_4
REMARK    2  A    between atoms: C_4  and  N_5
REMARK    3  A    between atoms: N_10  and  C_11
REMARK    4  A    between atoms: C_11  and  C_12
REMARK    5  A    between atoms: C_16  and  C_17
REMARK    6  A    between atoms: C_17  and  O_18
REMARK    7  A    between atoms: O_18  and  C_19
REMARK    8  A    between atoms: C_19  and  C_20
REMARK                            x       y       z     vdW  Elec       q    Type
REMARK                         _______ _______ _______ _____ _____    ______ ____
ROOT
ATOM      1  N   UNL     1       6.538   3.701  15.340  0.00  0.00    +0.000 NA
ATOM      2  C   UNL     1       7.360   4.577  16.235  0.00  0.00    +0.000 C 
ATOM      3  C   UNL     1       6.497   5.635  16.824  0.00  0.00    +0.000 A 
ATOM      4  N   UNL     1       6.948   6.876  17.123  0.00  0.00    +0.000 NA
ATOM      5  N   UNL     1       5.892   7.623  17.426  0.00  0.00    +0.000 NA
ATOM      6  N   UNL     1       4.785   6.879  17.214  0.00  0.00    +0.000 N 
ATOM      7  C   UNL     1       5.132   5.570  17.013  0.00  0.00    +0.000 A 
ATOM      8  C   UNL     1       4.270   4.385  16.741  0.00  0.00    +0.000 C 
ATOM      9  C   UNL     1       5.282   3.274  16.149  0.00  0.00    +0.000 C 
ENDROOT
BRANCH   1  10
ATOM     10  C   UNL     1       6.489   4.326  13.983  0.00  0.00    +0.000 C 
BRANCH  10  13
ATOM     11  C   UNL     1       4.443   2.853  11.206  0.00  0.00    +0.000 A 
ATOM     12  C   UNL     1       4.561   3.793  12.211  0.00  0.00    +0.000 A 
ATOM     13  C   UNL     1       5.803   3.547  12.875  0.00  0.00    +0.000 A 
ATOM     14  C   UNL     1       6.384   2.523  12.137  0.00  0.00    +0.000 A 
ATOM     15  O   UNL     1       5.556   2.084  11.156  0.00  0.00    +0.000 OA
ENDBRANCH  10  13
ENDBRANCH   1  10
BRANCH   6  16
ATOM     16  C   UNL     1       3.488   7.512  17.020  0.00  0.00    +0.000 C 
BRANCH  16  17
ATOM     17  C   UNL     1       2.445   7.176  18.060  0.00  0.00    +0.000 C 
ATOM     18  C   UNL     1       2.732   7.063  19.492  0.00  0.00    +0.000 C 
ATOM     19  C   UNL     1       1.959   8.287  19.028  0.00  0.00    +0.000 C 
ENDBRANCH  16  17
ENDBRANCH   6  16
BRANCH   8  20
ATOM     20  C   UNL     1       3.294   4.007  17.925  0.00  0.00    +0.000 C 
BRANCH  20  21
ATOM     21  O   UNL     1       3.701   2.698  18.421  0.00  0.00    +0.000 OA
BRANCH  21  22
ATOM     22  C   UNL     1       3.493   2.430  19.816  0.00  0.00    +0.000 C 
BRANCH  22  23
ATOM     23  C   UNL     1       2.240   3.152  20.274  0.00  0.00    +0.000 C 
ATOM     24  C   UNL     1       1.388   2.629  21.410  0.00  0.00    +0.000 C 
ATOM     25  C   UNL     1       2.184   3.887  21.601  0.00  0.00    +0.000 C 
ENDBRANCH  22  23
ENDBRANCH  21  22
ENDBRANCH  20  21
ENDBRANCH   8  20
TORSDOF 8
ENDMDL
MODEL 9
REMARK VINA RESULT:      -6.2      2.907      5.499
REMARK  Name = 
REMARK  8 active torsions:
REMARK  status: ('A' for Active; 'I' for Inactive)
REMARK    1  A    between atoms: C_3  and  C_4
REMARK    2  A    between atoms: C_4  and  N_5
REMARK    3  A    between atoms: N_10  and  C_11
REMARK    4  A    between atoms: C_11  and  C_12
REMARK    5  A    between atoms: C_16  and  C_17
REMARK    6  A    between atoms: C_17  and  O_18
REMARK    7  A    between atoms: O_18  and  C_19
REMARK    8  A    between atoms: C_19  and  C_20
REMARK                            x       y       z     vdW  Elec       q    Type
REMARK                         _______ _______ _______ _____ _____    ______ ____
ROOT
ATOM      1  N   UNL     1       3.528   3.201  17.474  0.00  0.00    +0.000 NA
ATOM      2  C   UNL     1       2.746   4.478  17.521  0.00  0.00    +0.000 C 
ATOM      3  C   UNL     1       3.673   5.633  17.389  0.00  0.00    +0.000 A 
ATOM      4  N   UNL     1       3.456   6.829  17.985  0.00  0.00    +0.000 NA
ATOM      5  N   UNL     1       4.559   7.554  17.842  0.00  0.00    +0.000 NA
ATOM      6  N   UNL     1       5.492   6.775  17.253  0.00  0.00    +0.000 N 
ATOM      7  C   UNL     1       4.915   5.624  16.787  0.00  0.00    +0.000 A 
ATOM      8  C   UNL     1       5.530   4.469  16.074  0.00  0.00    +0.000 C 
ATOM      9  C   UNL     1       4.450   3.277  16.225  0.00  0.00    +0.000 C 
ENDROOT
BRANCH   1  10
ATOM     10  C   UNL     1       4.010   2.890  18.855  0.00  0.00    +0.000 C 
BRANCH  10  13
ATOM     11  C   UNL     1       1.321   2.635  21.457  0.00  0.00    +0.000 A 
ATOM     12  C   UNL     1       1.825   2.221  20.239  0.00  0.00    +0.000 A 
ATOM     13  C   UNL     1       3.005   2.989  19.988  0.00  0.00    +0.000 A 
ATOM     14  C   UNL     1       3.169   3.744  21.142  0.00  0.00    +0.000 A 
ATOM     15  O   UNL     1       2.144   3.557  22.011  0.00  0.00    +0.000 OA
ENDBRANCH  10  13
ENDBRANCH   1  10
BRANCH   6  16
ATOM     16  C   UNL     1       6.908   7.102  17.356  0.00  0.00    +0.000 C 
BRANCH  16  17
ATOM     17  C   UNL     1       7.626   6.492  18.538  0.00  0.00    +0.000 C 
ATOM     18  C   UNL     1       7.015   5.516  19.444  0.00  0.00    +0.000 C 
ATOM     19  C   UNL     1       8.064   5.005  18.469  0.00  0.00    +0.000 C 
ENDBRANCH  16  17
ENDBRANCH   6  16
BRANCH   8  20
ATOM     20  C   UNL     1       6.116   4.822  14.650  0.00  0.00    +0.000 C 
BRANCH  20  21
ATOM     21  O   UNL     1       6.295   3.567  13.932  0.00  0.00    +0.000 OA
BRANCH  21  22
ATOM     22  C   UNL     1       6.133   3.596  12.506  0.00  0.00    +0.000 C 
BRANCH  22  23
ATOM     23  C   UNL     1       4.696   3.244  12.166  0.00  0.00    +0.000 C 
ATOM     24  C   UNL     1       3.991   3.840  10.968  0.00  0.00    +0.000 C 
ATOM     25  C   UNL     1       4.349   2.382  10.967  0.00  0.00    +0.000 C 
ENDBRANCH  22  23
ENDBRANCH  21  22
ENDBRANCH  20  21
ENDBRANCH   8  20
TORSDOF 8
ENDMDL
