MODEL 1
REMARK VINA RESULT:      -7.5      0.000      0.000
REMARK  Name = 
REMARK  7 active torsions:
REMARK  status: ('A' for Active; 'I' for Inactive)
REMARK    1  A    between atoms: C_1  and  C_2
REMARK    2  A    between atoms: C_2  and  C_3
REMARK    3  A    between atoms: C_3  and  C_4
REMARK    4  A    between atoms: C_4  and  N_5
REMARK    5  A    between atoms: N_10  and  C_11
REMARK    6  A    between atoms: N_20  and  C_21
REMARK    7  A    between atoms: C_24  and  N_25
REMARK                            x       y       z     vdW  Elec       q    Type
REMARK                         _______ _______ _______ _____ _____    ______ ____
ROOT
ATOM      1  N   UNL     1       1.896   5.751  20.854  0.00  0.00    +0.000 N 
ATOM      2  C   UNL     1       1.165   6.782  21.374  0.00  0.00    +0.000 A 
ATOM      3  N   UNL     1       1.225   7.849  20.615  0.00  0.00    +0.000 NA
ATOM      4  C   UNL     1       2.029   7.488  19.547  0.00  0.00    +0.000 A 
ATOM      5  C   UNL     1       2.456   8.174  18.399  0.00  0.00    +0.000 A 
ATOM      6  N   UNL     1       2.097   9.497  18.090  0.00  0.00    +0.000 N 
ATOM      7  N   UNL     1       3.304   7.525  17.553  0.00  0.00    +0.000 NA
ATOM      8  C   UNL     1       3.682   6.255  17.815  0.00  0.00    +0.000 A 
ATOM      9  N   UNL     1       4.583   5.622  16.975  0.00  0.00    +0.000 N 
ATOM     10  N   UNL     1       3.283   5.515  18.863  0.00  0.00    +0.000 NA
ATOM     11  C   UNL     1       2.469   6.186  19.689  0.00  0.00    +0.000 A 
ATOM     12  H   UNL     1       2.527   9.782  17.219  0.00  0.00    +0.000 HD
ATOM     13  H   UNL     1       4.952   4.816  17.468  0.00  0.00    +0.000 HD
ENDROOT
BRANCH   6  14
ATOM     14  C   UNL     1       0.867  10.128  18.353  0.00  0.00    +0.000 A 
ATOM     15  C   UNL     1       0.837  11.223  19.226  0.00  0.00    +0.000 A 
ATOM     16  C   UNL     1      -0.373  11.855  19.538  0.00  0.00    +0.000 A 
ATOM     17  C   UNL     1      -1.559  11.405  18.962  0.00  0.00    +0.000 A 
ATOM     18 CL   UNL     1      -3.049  12.173  19.350  0.00  0.00    +0.000 Cl
ATOM     19  C   UNL     1      -1.547  10.338  18.072  0.00  0.00    +0.000 A 
ATOM     20  C   UNL     1      -0.336   9.709  17.766  0.00  0.00    +0.000 A 
ENDBRANCH   6  14
BRANCH   9  21
ATOM     21  C   UNL     1       5.514   6.424  16.189  0.00  0.00    +0.000 C 
ATOM     22  C   UNL     1       6.986   6.129  16.520  0.00  0.00    +0.000 C 
ATOM     23  C   UNL     1       7.449   4.757  16.027  0.00  0.00    +0.000 C 
ATOM     24  C   UNL     1       7.203   4.552  14.529  0.00  0.00    +0.000 C 
ATOM     25  C   UNL     1       5.734   4.825  14.186  0.00  0.00    +0.000 C 
ATOM     26  C   UNL     1       5.234   6.185  14.690  0.00  0.00    +0.000 C 
BRANCH  24  27
ATOM     27  N   UNL     1       8.102   5.396  13.740  0.00  0.00    +0.000 NA
ATOM     28  H   UNL     1       7.585   6.101  13.219  0.00  0.00    +0.000 HD
ATOM     29  H   UNL     1       8.584   4.829  13.043  0.00  0.00    +0.000 HD
ENDBRANCH  24  27
ENDBRANCH   9  21
BRANCH   1  30
ATOM     30  C   UNL     1       2.011   4.435  21.444  0.00  0.00    +0.000 C 
BRANCH  30  31
ATOM     31  C   UNL     1       1.060   3.394  20.854  0.00  0.00    +0.000 C 
BRANCH  31  33
ATOM     32  C   UNL     1       1.032   2.333  18.575  0.00  0.00    +0.000 C 
ATOM     33  C   UNL     1       1.754   2.410  19.911  0.00  0.00    +0.000 C 
ENDBRANCH  31  33
ENDBRANCH  30  31
ENDBRANCH   1  30
TORSDOF 6
ENDMDL
MODEL 2
REMARK VINA RESULT:      -6.4      4.964     10.592
REMARK  Name = 
REMARK  7 active torsions:
REMARK  status: ('A' for Active; 'I' for Inactive)
REMARK    1  A    between atoms: C_1  and  C_2
REMARK    2  A    between atoms: C_2  and  C_3
REMARK    3  A    between atoms: C_3  and  C_4
REMARK    4  A    between atoms: C_4  and  N_5
REMARK    5  A    between atoms: N_10  and  C_11
REMARK    6  A    between atoms: N_20  and  C_21
REMARK    7  A    between atoms: C_24  and  N_25
REMARK                            x       y       z     vdW  Elec       q    Type
REMARK                         _______ _______ _______ _____ _____    ______ ____
ROOT
ATOM      1  N   UNL     1      -3.666  11.150  17.814  0.00  0.00    +0.000 N 
ATOM      2  C   UNL     1      -2.745  10.447  17.090  0.00  0.00    +0.000 A 
ATOM      3  N   UNL     1      -1.556  10.497  17.640  0.00  0.00    +0.000 NA
ATOM      4  C   UNL     1      -1.718  11.266  18.781  0.00  0.00    +0.000 A 
ATOM      5  C   UNL     1      -0.834  11.667  19.795  0.00  0.00    +0.000 A 
ATOM      6  N   UNL     1       0.525  11.315  19.843  0.00  0.00    +0.000 N 
ATOM      7  N   UNL     1      -1.320  12.482  20.772  0.00  0.00    +0.000 NA
ATOM      8  C   UNL     1      -2.620  12.853  20.761  0.00  0.00    +0.000 A 
ATOM      9  N   UNL     1      -3.092  13.721  21.731  0.00  0.00    +0.000 N 
ATOM     10  N   UNL     1      -3.538  12.475  19.856  0.00  0.00    +0.000 NA
ATOM     11  C   UNL     1      -3.027  11.694  18.896  0.00  0.00    +0.000 A 
ATOM     12  H   UNL     1       0.964  11.723  20.660  0.00  0.00    +0.000 HD
ATOM     13  H   UNL     1      -3.977  14.094  21.407  0.00  0.00    +0.000 HD
ENDROOT
BRANCH   6  14
ATOM     14  C   UNL     1       1.105  10.100  19.430  0.00  0.00    +0.000 A 
ATOM     15  C   UNL     1       1.119   9.017  20.318  0.00  0.00    +0.000 A 
ATOM     16  C   UNL     1       1.718   7.804  19.956  0.00  0.00    +0.000 A 
ATOM     17  C   UNL     1       2.288   7.663  18.693  0.00  0.00    +0.000 A 
ATOM     18 CL   UNL     1       3.032   6.177  18.247  0.00  0.00    +0.000 Cl
ATOM     19  C   UNL     1       2.260   8.716  17.787  0.00  0.00    +0.000 A 
ATOM     20  C   UNL     1       1.664   9.926  18.156  0.00  0.00    +0.000 A 
ENDBRANCH   6  14
BRANCH   9  21
ATOM     21  C   UNL     1      -2.164  14.638  22.384  0.00  0.00    +0.000 C 
ATOM     22  C   UNL     1      -2.645  16.099  22.353  0.00  0.00    +0.000 C 
ATOM     23  C   UNL     1      -3.844  16.354  23.267  0.00  0.00    +0.000 C 
ATOM     24  C   UNL     1      -3.589  15.922  24.715  0.00  0.00    +0.000 C 
ATOM     25  C   UNL     1      -3.127  14.461  24.762  0.00  0.00    +0.000 C 
ATOM     26  C   UNL     1      -1.939  14.169  23.837  0.00  0.00    +0.000 C 
BRANCH  24  27
ATOM     27  N   UNL     1      -2.618  16.812  25.354  0.00  0.00    +0.000 NA
ATOM     28  H   UNL     1      -2.241  17.484  24.690  0.00  0.00    +0.000 HD
ATOM     29  H   UNL     1      -1.822  16.271  25.690  0.00  0.00    +0.000 HD
ENDBRANCH  24  27
ENDBRANCH   9  21
BRANCH   1  30
ATOM     30  C   UNL     1      -5.069  11.266  17.481  0.00  0.00    +0.000 C 
BRANCH  30  31
ATOM     31  C   UNL     1      -6.008  10.536  18.442  0.00  0.00    +0.000 C 
BRANCH  31  33
ATOM     32  C   UNL     1      -7.451  10.928  20.463  0.00  0.00    +0.000 C 
ATOM     33  C   UNL     1      -7.034  11.460  19.100  0.00  0.00    +0.000 C 
ENDBRANCH  31  33
ENDBRANCH  30  31
ENDBRANCH   1  30
TORSDOF 6
ENDMDL
MODEL 3
REMARK VINA RESULT:      -6.3      4.938     10.649
REMARK  Name = 
REMARK  7 active torsions:
REMARK  status: ('A' for Active; 'I' for Inactive)
REMARK    1  A    between atoms: C_1  and  C_2
REMARK    2  A    between atoms: C_2  and  C_3
REMARK    3  A    between atoms: C_3  and  C_4
REMARK    4  A    between atoms: C_4  and  N_5
REMARK    5  A    between atoms: N_10  and  C_11
REMARK    6  A    between atoms: N_20  and  C_21
REMARK    7  A    between atoms: C_24  and  N_25
REMARK                            x       y       z     vdW  Elec       q    Type
REMARK                         _______ _______ _______ _____ _____    ______ ____
ROOT
ATOM      1  N   UNL     1      -3.582  11.163  17.724  0.00  0.00    +0.000 N 
ATOM      2  C   UNL     1      -2.642  10.448  17.036  0.00  0.00    +0.000 A 
ATOM      3  N   UNL     1      -1.473  10.488  17.629  0.00  0.00    +0.000 NA
ATOM      4  C   UNL     1      -1.669  11.263  18.760  0.00  0.00    +0.000 A 
ATOM      5  C   UNL     1      -0.818  11.659  19.804  0.00  0.00    +0.000 A 
ATOM      6  N   UNL     1       0.535  11.294  19.902  0.00  0.00    +0.000 N 
ATOM      7  N   UNL     1      -1.331  12.483  20.760  0.00  0.00    +0.000 NA
ATOM      8  C   UNL     1      -2.625  12.867  20.701  0.00  0.00    +0.000 A 
ATOM      9  N   UNL     1      -3.123  13.743  21.649  0.00  0.00    +0.000 N 
ATOM     10  N   UNL     1      -3.514  12.495  19.764  0.00  0.00    +0.000 NA
ATOM     11  C   UNL     1      -2.976  11.705  18.826  0.00  0.00    +0.000 A 
ATOM     12  H   UNL     1       0.948  11.700  20.733  0.00  0.00    +0.000 HD
ATOM     13  H   UNL     1      -3.992  14.125  21.292  0.00  0.00    +0.000 HD
ENDROOT
BRANCH   6  14
ATOM     14  C   UNL     1       1.117  10.072  19.516  0.00  0.00    +0.000 A 
ATOM     15  C   UNL     1       1.651   9.951  18.226  0.00  0.00    +0.000 A 
ATOM     16  C   UNL     1       2.206   8.741  17.794  0.00  0.00    +0.000 A 
ATOM     17  C   UNL     1       2.247   7.649  18.658  0.00  0.00    +0.000 A 
ATOM     18 CL   UNL     1       2.922   6.157  18.127  0.00  0.00    +0.000 Cl
ATOM     19  C   UNL     1       1.748   7.756  19.950  0.00  0.00    +0.000 A 
ATOM     20  C   UNL     1       1.192   8.967  20.375  0.00  0.00    +0.000 A 
ENDBRANCH   6  14
BRANCH   9  21
ATOM     21  C   UNL     1      -2.211  14.654  22.332  0.00  0.00    +0.000 C 
ATOM     22  C   UNL     1      -2.717  16.106  22.354  0.00  0.00    +0.000 C 
ATOM     23  C   UNL     1      -3.918  16.308  23.278  0.00  0.00    +0.000 C 
ATOM     24  C   UNL     1      -3.652  15.830  24.709  0.00  0.00    +0.000 C 
ATOM     25  C   UNL     1      -3.164  14.377  24.705  0.00  0.00    +0.000 C 
ATOM     26  C   UNL     1      -1.974  14.138  23.767  0.00  0.00    +0.000 C 
BRANCH  24  27
ATOM     27  N   UNL     1      -2.697  16.714  25.377  0.00  0.00    +0.000 NA
ATOM     28  H   UNL     1      -2.097  17.186  24.704  0.00  0.00    +0.000 HD
ATOM     29  H   UNL     1      -2.075  16.166  25.971  0.00  0.00    +0.000 HD
ENDBRANCH  24  27
ENDBRANCH   9  21
BRANCH   1  30
ATOM     30  C   UNL     1      -4.970  11.292  17.340  0.00  0.00    +0.000 C 
BRANCH  30  31
ATOM     31  C   UNL     1      -5.958  10.678  18.331  0.00  0.00    +0.000 C 
BRANCH  31  33
ATOM     32  C   UNL     1      -7.300  12.741  17.814  0.00  0.00    +0.000 C 
ATOM     33  C   UNL     1      -6.985  11.682  18.859  0.00  0.00    +0.000 C 
ENDBRANCH  31  33
ENDBRANCH  30  31
ENDBRANCH   1  30
TORSDOF 6
ENDMDL
MODEL 4
REMARK VINA RESULT:      -6.2      3.092      6.084
REMARK  Name = 
REMARK  7 active torsions:
REMARK  status: ('A' for Active; 'I' for Inactive)
REMARK    1  A    between atoms: C_1  and  C_2
REMARK    2  A    between atoms: C_2  and  C_3
REMARK    3  A    between atoms: C_3  and  C_4
REMARK    4  A    between atoms: C_4  and  N_5
REMARK    5  A    between atoms: N_10  and  C_11
REMARK    6  A    between atoms: N_20  and  C_21
REMARK    7  A    between atoms: C_24  and  N_25
REMARK                            x       y       z     vdW  Elec       q    Type
REMARK                         _______ _______ _______ _____ _____    ______ ____
ROOT
ATOM      1  N   UNL     1      -2.152  10.748  17.740  0.00  0.00    +0.000 N 
ATOM      2  C   UNL     1      -2.411  11.940  18.357  0.00  0.00    +0.000 A 
ATOM      3  N   UNL     1      -1.356  12.399  18.985  0.00  0.00    +0.000 NA
ATOM      4  C   UNL     1      -0.364  11.461  18.757  0.00  0.00    +0.000 A 
ATOM      5  C   UNL     1       0.984  11.385  19.142  0.00  0.00    +0.000 A 
ATOM      6  N   UNL     1       1.643  12.362  19.908  0.00  0.00    +0.000 N 
ATOM      7  N   UNL     1       1.684  10.274  18.782  0.00  0.00    +0.000 NA
ATOM      8  C   UNL     1       1.088   9.305  18.052  0.00  0.00    +0.000 A 
ATOM      9  N   UNL     1       1.793   8.157  17.733  0.00  0.00    +0.000 N 
ATOM     10  N   UNL     1      -0.179   9.323  17.606  0.00  0.00    +0.000 NA
ATOM     11  C   UNL     1      -0.849  10.416  17.995  0.00  0.00    +0.000 A 
ATOM     12  H   UNL     1       2.606  12.092  20.067  0.00  0.00    +0.000 HD
ATOM     13  H   UNL     1       1.124   7.453  17.444  0.00  0.00    +0.000 HD
ENDROOT
BRANCH   6  14
ATOM     14  C   UNL     1       1.441  13.755  19.867  0.00  0.00    +0.000 A 
ATOM     15  C   UNL     1       1.777  14.458  18.703  0.00  0.00    +0.000 A 
ATOM     16  C   UNL     1       1.623  15.847  18.638  0.00  0.00    +0.000 A 
ATOM     17  C   UNL     1       1.111  16.540  19.733  0.00  0.00    +0.000 A 
ATOM     18 CL   UNL     1       0.927  18.249  19.659  0.00  0.00    +0.000 Cl
ATOM     19  C   UNL     1       0.744  15.858  20.887  0.00  0.00    +0.000 A 
ATOM     20  C   UNL     1       0.904  14.470  20.946  0.00  0.00    +0.000 A 
ENDBRANCH   6  14
BRANCH   9  21
ATOM     21  C   UNL     1       2.899   7.735  18.586  0.00  0.00    +0.000 C 
ATOM     22  C   UNL     1       2.469   6.734  19.672  0.00  0.00    +0.000 C 
ATOM     23  C   UNL     1       2.121   5.355  19.112  0.00  0.00    +0.000 C 
ATOM     24  C   UNL     1       3.251   4.754  18.270  0.00  0.00    +0.000 C 
ATOM     25  C   UNL     1       3.677   5.734  17.171  0.00  0.00    +0.000 C 
ATOM     26  C   UNL     1       4.010   7.134  17.701  0.00  0.00    +0.000 C 
BRANCH  24  27
ATOM     27  N   UNL     1       4.382   4.378  19.120  0.00  0.00    +0.000 NA
ATOM     28  H   UNL     1       4.154   3.575  19.703  0.00  0.00    +0.000 HD
ATOM     29  H   UNL     1       4.599   5.139  19.763  0.00  0.00    +0.000 HD
ENDBRANCH  24  27
ENDBRANCH   9  21
BRANCH   1  30
ATOM     30  C   UNL     1      -3.104   9.999  16.948  0.00  0.00    +0.000 C 
BRANCH  30  31
ATOM     31  C   UNL     1      -3.526  10.690  15.651  0.00  0.00    +0.000 C 
BRANCH  31  33
ATOM     32  C   UNL     1      -3.940   9.921  13.294  0.00  0.00    +0.000 C 
ATOM     33  C   UNL     1      -2.909  10.057  14.403  0.00  0.00    +0.000 C 
ENDBRANCH  31  33
ENDBRANCH  30  31
ENDBRANCH   1  30
TORSDOF 6
ENDMDL
MODEL 5
REMARK VINA RESULT:      -6.2      2.909      5.873
REMARK  Name = 
REMARK  7 active torsions:
REMARK  status: ('A' for Active; 'I' for Inactive)
REMARK    1  A    between atoms: C_1  and  C_2
REMARK    2  A    between atoms: C_2  and  C_3
REMARK    3  A    between atoms: C_3  and  C_4
REMARK    4  A    between atoms: C_4  and  N_5
REMARK    5  A    between atoms: N_10  and  C_11
REMARK    6  A    between atoms: N_20  and  C_21
REMARK    7  A    between atoms: C_24  and  N_25
REMARK                            x       y       z     vdW  Elec       q    Type
REMARK                         _______ _______ _______ _____ _____    ______ ____
ROOT
ATOM      1  N   UNL     1      -1.861  10.508  17.261  0.00  0.00    +0.000 N 
ATOM      2  C   UNL     1      -2.562  11.259  18.163  0.00  0.00    +0.000 A 
ATOM      3  N   UNL     1      -1.963  11.302  19.328  0.00  0.00    +0.000 NA
ATOM      4  C   UNL     1      -0.813  10.545  19.170  0.00  0.00    +0.000 A 
ATOM      5  C   UNL     1       0.245  10.225  20.036  0.00  0.00    +0.000 A 
ATOM      6  N   UNL     1       0.341  10.671  21.365  0.00  0.00    +0.000 N 
ATOM      7  N   UNL     1       1.219   9.398  19.566  0.00  0.00    +0.000 NA
ATOM      8  C   UNL     1       1.163   8.938  18.296  0.00  0.00    +0.000 A 
ATOM      9  N   UNL     1       2.131   8.058  17.843  0.00  0.00    +0.000 N 
ATOM     10  N   UNL     1       0.213   9.234  17.393  0.00  0.00    +0.000 NA
ATOM     11  C   UNL     1      -0.742  10.030  17.890  0.00  0.00    +0.000 A 
ATOM     12  H   UNL     1       1.183  10.310  21.796  0.00  0.00    +0.000 HD
ATOM     13  H   UNL     1       1.780   7.618  17.000  0.00  0.00    +0.000 HD
ENDROOT
BRANCH   6  14
ATOM     14  C   UNL     1      -0.074  11.915  21.877  0.00  0.00    +0.000 A 
ATOM     15  C   UNL     1      -1.105  11.950  22.826  0.00  0.00    +0.000 A 
ATOM     16  C   UNL     1      -1.568  13.170  23.332  0.00  0.00    +0.000 A 
ATOM     17  C   UNL     1      -0.988  14.363  22.905  0.00  0.00    +0.000 A 
ATOM     18 CL   UNL     1      -1.560  15.865  23.519  0.00  0.00    +0.000 Cl
ATOM     19  C   UNL     1       0.054  14.348  21.986  0.00  0.00    +0.000 A 
ATOM     20  C   UNL     1       0.510  13.126  21.482  0.00  0.00    +0.000 A 
ENDBRANCH   6  14
BRANCH   9  21
ATOM     21  C   UNL     1       2.842   7.219  18.803  0.00  0.00    +0.000 C 
ATOM     22  C   UNL     1       2.080   5.929  19.150  0.00  0.00    +0.000 C 
ATOM     23  C   UNL     1       2.051   4.923  17.999  0.00  0.00    +0.000 C 
ATOM     24  C   UNL     1       3.450   4.576  17.479  0.00  0.00    +0.000 C 
ATOM     25  C   UNL     1       4.214   5.853  17.111  0.00  0.00    +0.000 C 
ATOM     26  C   UNL     1       4.240   6.892  18.239  0.00  0.00    +0.000 C 
BRANCH  24  27
ATOM     27  N   UNL     1       4.182   3.778  18.463  0.00  0.00    +0.000 NA
ATOM     28  H   UNL     1       4.316   2.824  18.137  0.00  0.00    +0.000 HD
ATOM     29  H   UNL     1       3.639   3.708  19.324  0.00  0.00    +0.000 HD
ENDBRANCH  24  27
ENDBRANCH   9  21
BRANCH   1  30
ATOM     30  C   UNL     1      -2.248  10.289  15.885  0.00  0.00    +0.000 C 
BRANCH  30  31
ATOM     31  C   UNL     1      -3.737  10.499  15.608  0.00  0.00    +0.000 C 
BRANCH  31  33
ATOM     32  C   UNL     1      -2.943   9.657  13.376  0.00  0.00    +0.000 C 
ATOM     33  C   UNL     1      -4.133  10.180  14.166  0.00  0.00    +0.000 C 
ENDBRANCH  31  33
ENDBRANCH  30  31
ENDBRANCH   1  30
TORSDOF 6
ENDMDL
MODEL 6
REMARK VINA RESULT:      -6.1      3.209      6.343
REMARK  Name = 
REMARK  7 active torsions:
REMARK  status: ('A' for Active; 'I' for Inactive)
REMARK    1  A    between atoms: C_1  and  C_2
REMARK    2  A    between atoms: C_2  and  C_3
REMARK    3  A    between atoms: C_3  and  C_4
REMARK    4  A    between atoms: C_4  and  N_5
REMARK    5  A    between atoms: N_10  and  C_11
REMARK    6  A    between atoms: N_20  and  C_21
REMARK    7  A    between atoms: C_24  and  N_25
REMARK                            x       y       z     vdW  Elec       q    Type
REMARK                         _______ _______ _______ _____ _____    ______ ____
ROOT
ATOM      1  N   UNL     1      -2.356  11.147  18.350  0.00  0.00    +0.000 N 
ATOM      2  C   UNL     1      -2.472  12.372  18.945  0.00  0.00    +0.000 A 
ATOM      3  N   UNL     1      -1.320  12.802  19.399  0.00  0.00    +0.000 NA
ATOM      4  C   UNL     1      -0.411  11.808  19.075  0.00  0.00    +0.000 A 
ATOM      5  C   UNL     1       0.973  11.681  19.270  0.00  0.00    +0.000 A 
ATOM      6  N   UNL     1       1.776  12.652  19.893  0.00  0.00    +0.000 N 
ATOM      7  N   UNL     1       1.566  10.524  18.863  0.00  0.00    +0.000 NA
ATOM      8  C   UNL     1       0.831   9.559  18.266  0.00  0.00    +0.000 A 
ATOM      9  N   UNL     1       1.433   8.368  17.901  0.00  0.00    +0.000 N 
ATOM     10  N   UNL     1      -0.485   9.623  18.002  0.00  0.00    +0.000 NA
ATOM     11  C   UNL     1      -1.045  10.761  18.433  0.00  0.00    +0.000 A 
ATOM     12  H   UNL     1       2.739  12.340  19.927  0.00  0.00    +0.000 HD
ATOM     13  H   UNL     1       0.699   7.687  17.739  0.00  0.00    +0.000 HD
ENDROOT
BRANCH   6  14
ATOM     14  C   UNL     1       1.630  14.050  19.821  0.00  0.00    +0.000 A 
ATOM     15  C   UNL     1       1.236  14.752  20.967  0.00  0.00    +0.000 A 
ATOM     16  C   UNL     1       1.047  16.139  20.925  0.00  0.00    +0.000 A 
ATOM     17  C   UNL     1       1.271  16.833  19.739  0.00  0.00    +0.000 A 
ATOM     18 CL   UNL     1       1.032  18.536  19.682  0.00  0.00    +0.000 Cl
ATOM     19  C   UNL     1       1.690  16.159  18.598  0.00  0.00    +0.000 A 
ATOM     20  C   UNL     1       1.874  14.774  18.646  0.00  0.00    +0.000 A 
ENDBRANCH   6  14
BRANCH   9  21
ATOM     21  C   UNL     1       2.629   7.923  18.608  0.00  0.00    +0.000 C 
ATOM     22  C   UNL     1       2.329   7.402  20.024  0.00  0.00    +0.000 C 
ATOM     23  C   UNL     1       1.595   6.061  20.026  0.00  0.00    +0.000 C 
ATOM     24  C   UNL     1       2.327   4.983  19.220  0.00  0.00    +0.000 C 
ATOM     25  C   UNL     1       2.616   5.482  17.800  0.00  0.00    +0.000 C 
ATOM     26  C   UNL     1       3.332   6.838  17.766  0.00  0.00    +0.000 C 
BRANCH  24  27
ATOM     27  N   UNL     1       3.555   4.574  19.904  0.00  0.00    +0.000 NA
ATOM     28  H   UNL     1       3.351   4.171  20.816  0.00  0.00    +0.000 HD
ATOM     29  H   UNL     1       4.140   5.390  20.082  0.00  0.00    +0.000 HD
ENDBRANCH  24  27
ENDBRANCH   9  21
BRANCH   1  30
ATOM     30  C   UNL     1      -3.442  10.418  17.733  0.00  0.00    +0.000 C 
BRANCH  30  31
ATOM     31  C   UNL     1      -3.771  10.864  16.308  0.00  0.00    +0.000 C 
BRANCH  31  33
ATOM     32  C   UNL     1      -3.561  10.066  13.933  0.00  0.00    +0.000 C 
ATOM     33  C   UNL     1      -2.838  10.261  15.257  0.00  0.00    +0.000 C 
ENDBRANCH  31  33
ENDBRANCH  30  31
ENDBRANCH   1  30
TORSDOF 6
ENDMDL
MODEL 7
REMARK VINA RESULT:      -6.1      2.971      5.930
REMARK  Name = 
REMARK  7 active torsions:
REMARK  status: ('A' for Active; 'I' for Inactive)
REMARK    1  A    between atoms: C_1  and  C_2
REMARK    2  A    between atoms: C_2  and  C_3
REMARK    3  A    between atoms: C_3  and  C_4
REMARK    4  A    between atoms: C_4  and  N_5
REMARK    5  A    between atoms: N_10  and  C_11
REMARK    6  A    between atoms: N_20  and  C_21
REMARK    7  A    between atoms: C_24  and  N_25
REMARK                            x       y       z     vdW  Elec       q    Type
REMARK                         _______ _______ _______ _____ _____    ______ ____
ROOT
ATOM      1  N   UNL     1      -2.232  10.454  17.554  0.00  0.00    +0.000 N 
ATOM      2  C   UNL     1      -2.707  11.447  18.365  0.00  0.00    +0.000 A 
ATOM      3  N   UNL     1      -1.814  11.818  19.251  0.00  0.00    +0.000 NA
ATOM      4  C   UNL     1      -0.704  11.030  18.996  0.00  0.00    +0.000 A 
ATOM      5  C   UNL     1       0.571  10.960  19.580  0.00  0.00    +0.000 A 
ATOM      6  N   UNL     1       0.998  11.773  20.643  0.00  0.00    +0.000 N 
ATOM      7  N   UNL     1       1.432  10.016  19.109  0.00  0.00    +0.000 NA
ATOM      8  C   UNL     1       1.060   9.206  18.092  0.00  0.00    +0.000 A 
ATOM      9  N   UNL     1       1.924   8.218  17.653  0.00  0.00    +0.000 N 
ATOM     10  N   UNL     1      -0.120   9.241  17.450  0.00  0.00    +0.000 NA
ATOM     11  C   UNL     1      -0.953  10.163  17.949  0.00  0.00    +0.000 A 
ATOM     12  H   UNL     1       1.950  11.540  20.902  0.00  0.00    +0.000 HD
ATOM     13  H   UNL     1       1.384   7.556  17.106  0.00  0.00    +0.000 HD
ENDROOT
BRANCH   6  14
ATOM     14  C   UNL     1       0.657  13.118  20.877  0.00  0.00    +0.000 A 
ATOM     15  C   UNL     1       1.061  14.093  19.956  0.00  0.00    +0.000 A 
ATOM     16  C   UNL     1       0.770  15.445  20.172  0.00  0.00    +0.000 A 
ATOM     17  C   UNL     1       0.054  15.827  21.304  0.00  0.00    +0.000 A 
ATOM     18 CL   UNL     1      -0.298  17.489  21.577  0.00  0.00    +0.000 Cl
ATOM     19  C   UNL     1      -0.381  14.873  22.216  0.00  0.00    +0.000 A 
ATOM     20  C   UNL     1      -0.084  13.524  21.995  0.00  0.00    +0.000 A 
ENDBRANCH   6  14
BRANCH   9  21
ATOM     21  C   UNL     1       2.926   7.684  18.569  0.00  0.00    +0.000 C 
ATOM     22  C   UNL     1       2.417   6.481  19.380  0.00  0.00    +0.000 C 
ATOM     23  C   UNL     1       2.239   5.220  18.534  0.00  0.00    +0.000 C 
ATOM     24  C   UNL     1       3.511   4.832  17.773  0.00  0.00    +0.000 C 
ATOM     25  C   UNL     1       4.020   6.017  16.945  0.00  0.00    +0.000 C 
ATOM     26  C   UNL     1       4.186   7.304  17.763  0.00  0.00    +0.000 C 
BRANCH  24  27
ATOM     27  N   UNL     1       4.536   4.346  18.698  0.00  0.00    +0.000 NA
ATOM     28  H   UNL     1       4.412   4.742  19.627  0.00  0.00    +0.000 HD
ATOM     29  H   UNL     1       5.457   4.648  18.384  0.00  0.00    +0.000 HD
ENDBRANCH  24  27
ENDBRANCH   9  21
BRANCH   1  30
ATOM     30  C   UNL     1      -2.967   9.849  16.466  0.00  0.00    +0.000 C 
BRANCH  30  31
ATOM     31  C   UNL     1      -3.072  10.721  15.215  0.00  0.00    +0.000 C 
BRANCH  31  33
ATOM     32  C   UNL     1      -4.261   9.834  13.184  0.00  0.00    +0.000 C 
ATOM     33  C   UNL     1      -2.930   9.928  13.914  0.00  0.00    +0.000 C 
ENDBRANCH  31  33
ENDBRANCH  30  31
ENDBRANCH   1  30
TORSDOF 6
ENDMDL
MODEL 8
REMARK VINA RESULT:      -6.1      5.260      7.934
REMARK  Name = 
REMARK  7 active torsions:
REMARK  status: ('A' for Active; 'I' for Inactive)
REMARK    1  A    between atoms: C_1  and  C_2
REMARK    2  A    between atoms: C_2  and  C_3
REMARK    3  A    between atoms: C_3  and  C_4
REMARK    4  A    between atoms: C_4  and  N_5
REMARK    5  A    between atoms: N_10  and  C_11
REMARK    6  A    between atoms: N_20  and  C_21
REMARK    7  A    between atoms: C_24  and  N_25
REMARK                            x       y       z     vdW  Elec       q    Type
REMARK                         _______ _______ _______ _____ _____    ______ ____
ROOT
ATOM      1  N   UNL     1       0.320  10.097  22.340  0.00  0.00    +0.000 N 
ATOM      2  C   UNL     1      -0.786  10.042  23.141  0.00  0.00    +0.000 A 
ATOM      3  N   UNL     1      -1.468  11.161  23.103  0.00  0.00    +0.000 NA
ATOM      4  C   UNL     1      -0.773  11.978  22.227  0.00  0.00    +0.000 A 
ATOM      5  C   UNL     1      -0.998  13.280  21.754  0.00  0.00    +0.000 A 
ATOM      6  N   UNL     1      -2.098  14.075  22.121  0.00  0.00    +0.000 N 
ATOM      7  N   UNL     1      -0.068  13.820  20.917  0.00  0.00    +0.000 NA
ATOM      8  C   UNL     1       1.010  13.094  20.545  0.00  0.00    +0.000 A 
ATOM      9  N   UNL     1       1.973  13.669  19.733  0.00  0.00    +0.000 N 
ATOM     10  N   UNL     1       1.273  11.830  20.914  0.00  0.00    +0.000 NA
ATOM     11  C   UNL     1       0.355  11.334  21.754  0.00  0.00    +0.000 A 
ATOM     12  H   UNL     1      -2.047  14.976  21.662  0.00  0.00    +0.000 HD
ATOM     13  H   UNL     1       2.808  13.097  19.793  0.00  0.00    +0.000 HD
ENDROOT
BRANCH   6  14
ATOM     14  C   UNL     1      -3.410  13.641  22.384  0.00  0.00    +0.000 A 
ATOM     15  C   UNL     1      -4.191  13.154  21.328  0.00  0.00    +0.000 A 
ATOM     16  C   UNL     1      -5.513  12.747  21.545  0.00  0.00    +0.000 A 
ATOM     17  C   UNL     1      -6.054  12.806  22.827  0.00  0.00    +0.000 A 
ATOM     18 CL   UNL     1      -7.681  12.313  23.096  0.00  0.00    +0.000 Cl
ATOM     19  C   UNL     1      -5.288  13.259  23.894  0.00  0.00    +0.000 A 
ATOM     20  C   UNL     1      -3.969  13.668  23.670  0.00  0.00    +0.000 A 
ENDBRANCH   6  14
BRANCH   9  21
ATOM     21  C   UNL     1       2.139  15.118  19.734  0.00  0.00    +0.000 C 
ATOM     22  C   UNL     1       3.242  15.595  20.693  0.00  0.00    +0.000 C 
ATOM     23  C   UNL     1       4.650  15.240  20.212  0.00  0.00    +0.000 C 
ATOM     24  C   UNL     1       4.937  15.749  18.796  0.00  0.00    +0.000 C 
ATOM     25  C   UNL     1       3.855  15.266  17.824  0.00  0.00    +0.000 C 
ATOM     26  C   UNL     1       2.430  15.587  18.293  0.00  0.00    +0.000 C 
BRANCH  24  27
ATOM     27  N   UNL     1       5.052  17.208  18.787  0.00  0.00    +0.000 NA
ATOM     28  H   UNL     1       6.024  17.502  18.858  0.00  0.00    +0.000 HD
ATOM     29  H   UNL     1       4.581  17.597  19.603  0.00  0.00    +0.000 HD
ENDBRANCH  24  27
ENDBRANCH   9  21
BRANCH   1  30
ATOM     30  C   UNL     1       1.262   9.016  22.150  0.00  0.00    +0.000 C 
BRANCH  30  31
ATOM     31  C   UNL     1       0.871   8.025  21.053  0.00  0.00    +0.000 C 
BRANCH  31  33
ATOM     32  C   UNL     1       1.648   8.821  18.798  0.00  0.00    +0.000 C 
ATOM     33  C   UNL     1       1.933   7.884  19.962  0.00  0.00    +0.000 C 
ENDBRANCH  31  33
ENDBRANCH  30  31
ENDBRANCH   1  30
TORSDOF 6
ENDMDL
MODEL 9
REMARK VINA RESULT:      -6.0      4.748     10.417
REMARK  Name = 
REMARK  7 active torsions:
REMARK  status: ('A' for Active; 'I' for Inactive)
REMARK    1  A    between atoms: C_1  and  C_2
REMARK    2  A    between atoms: C_2  and  C_3
REMARK    3  A    between atoms: C_3  and  C_4
REMARK    4  A    between atoms: C_4  and  N_5
REMARK    5  A    between atoms: N_10  and  C_11
REMARK    6  A    between atoms: N_20  and  C_21
REMARK    7  A    between atoms: C_24  and  N_25
REMARK                            x       y       z     vdW  Elec       q    Type
REMARK                         _______ _______ _______ _____ _____    ______ ____
ROOT
ATOM      1  N   UNL     1      -3.532  10.761  17.784  0.00  0.00    +0.000 N 
ATOM      2  C   UNL     1      -2.682   9.920  17.121  0.00  0.00    +0.000 A 
ATOM      3  N   UNL     1      -1.451  10.037  17.555  0.00  0.00    +0.000 NA
ATOM      4  C   UNL     1      -1.508  10.996  18.552  0.00  0.00    +0.000 A 
ATOM      5  C   UNL     1      -0.537  11.546  19.404  0.00  0.00    +0.000 A 
ATOM      6  N   UNL     1       0.818  11.174  19.401  0.00  0.00    +0.000 N 
ATOM      7  N   UNL     1      -0.930  12.530  20.259  0.00  0.00    +0.000 NA
ATOM      8  C   UNL     1      -2.223  12.925  20.290  0.00  0.00    +0.000 A 
ATOM      9  N   UNL     1      -2.602  13.960  21.128  0.00  0.00    +0.000 N 
ATOM     10  N   UNL     1      -3.218  12.418  19.544  0.00  0.00    +0.000 NA
ATOM     11  C   UNL     1      -2.798  11.470  18.697  0.00  0.00    +0.000 A 
ATOM     12  H   UNL     1       1.329  11.707  20.095  0.00  0.00    +0.000 HD
ATOM     13  H   UNL     1      -3.508  14.293  20.817  0.00  0.00    +0.000 HD
ENDROOT
BRANCH   6  14
ATOM     14  C   UNL     1       1.348   9.893  19.162  0.00  0.00    +0.000 A 
ATOM     15  C   UNL     1       1.279   8.927  20.175  0.00  0.00    +0.000 A 
ATOM     16  C   UNL     1       1.826   7.653  19.987  0.00  0.00    +0.000 A 
ATOM     17  C   UNL     1       2.431   7.331  18.774  0.00  0.00    +0.000 A 
ATOM     18 CL   UNL     1       3.113   5.768  18.541  0.00  0.00    +0.000 Cl
ATOM     19  C   UNL     1       2.486   8.265  17.746  0.00  0.00    +0.000 A 
ATOM     20  C   UNL     1       1.939   9.537  17.942  0.00  0.00    +0.000 A 
ENDBRANCH   6  14
BRANCH   9  21
ATOM     21  C   UNL     1      -1.613  14.954  21.531  0.00  0.00    +0.000 C 
ATOM     22  C   UNL     1      -1.520  16.137  20.554  0.00  0.00    +0.000 C 
ATOM     23  C   UNL     1      -2.744  17.053  20.601  0.00  0.00    +0.000 C 
ATOM     24  C   UNL     1      -3.044  17.567  22.013  0.00  0.00    +0.000 C 
ATOM     25  C   UNL     1      -3.159  16.397  22.996  0.00  0.00    +0.000 C 
ATOM     26  C   UNL     1      -1.955  15.447  22.953  0.00  0.00    +0.000 C 
BRANCH  24  27
ATOM     27  N   UNL     1      -2.024  18.526  22.438  0.00  0.00    +0.000 NA
ATOM     28  H   UNL     1      -1.088  18.190  22.221  0.00  0.00    +0.000 HD
ATOM     29  H   UNL     1      -2.054  18.637  23.451  0.00  0.00    +0.000 HD
ENDBRANCH  24  27
ENDBRANCH   9  21
BRANCH   1  30
ATOM     30  C   UNL     1      -4.957  10.852  17.551  0.00  0.00    +0.000 C 
BRANCH  30  31
ATOM     31  C   UNL     1      -5.400  12.133  16.844  0.00  0.00    +0.000 C 
BRANCH  31  33
ATOM     32  C   UNL     1      -7.108  12.004  18.684  0.00  0.00    +0.000 C 
ATOM     33  C   UNL     1      -6.530  12.863  17.571  0.00  0.00    +0.000 C 
ENDBRANCH  31  33
ENDBRANCH  30  31
ENDBRANCH   1  30
TORSDOF 6
ENDMDL
