MODEL 1
REMARK VINA RESULT:      -6.6      0.000      0.000
REMARK  Name = 
REMARK  13 active torsions:
REMARK  status: ('A' for Active; 'I' for Inactive)
REMARK    1  A    between atoms: C_1  and  C_2
REMARK    2  A    between atoms: C_2  and  O_3
REMARK    3  A    between atoms: O_3  and  C_4
REMARK    4  A    between atoms: C_9  and  C_10
REMARK    5  A    between atoms: N_12  and  C_13
REMARK    6  A    between atoms: C_13  and  C_14
REMARK    7  A    between atoms: C_14  and  C_15
REMARK    8  A    between atoms: C_14  and  C_16
REMARK    9  A    between atoms: C_14  and  C_17
REMARK   10  A    between atoms: C_17  and  N_18
REMARK   11  A    between atoms: N_18  and  C_19
REMARK   12  A    between atoms: N_18  and  C_20
REMARK   13  A    between atoms: C_21  and  C_22
REMARK                            x       y       z     vdW  Elec       q    Type
REMARK                         _______ _______ _______ _____ _____    ______ ____
ROOT
ATOM      1  C   UNL     1       6.271   4.671  15.248  0.00  0.00    +0.000 A 
ATOM      2  C   UNL     1       7.097   5.546  16.013  0.00  0.00    +0.000 A 
ATOM      3  C   UNL     1       6.675   6.020  17.267  0.00  0.00    +0.000 A 
ATOM      4  C   UNL     1       5.427   5.616  17.725  0.00  0.00    +0.000 A 
ATOM      5  O   UNL     1       4.850   5.936  18.857  0.00  0.00    +0.000 OA
ATOM      6  C   UNL     1       3.660   5.353  18.892  0.00  0.00    +0.000 A 
ATOM      7  C   UNL     1       3.473   4.597  17.724  0.00  0.00    +0.000 A 
ATOM      8  C   UNL     1       2.331   3.729  17.287  0.00  0.00    +0.000 C 
ATOM      9  C   UNL     1       4.626   4.787  16.994  0.00  0.00    +0.000 A 
ATOM     10  C   UNL     1       5.016   4.285  15.757  0.00  0.00    +0.000 A 
ENDROOT
BRANCH   6  11
ATOM     11  C   UNL     1       2.741   5.536  20.042  0.00  0.00    +0.000 C 
ATOM     12  O   UNL     1       2.545   4.622  20.829  0.00  0.00    +0.000 OA
ATOM     13  N   UNL     1       2.147   6.751  20.223  0.00  0.00    +0.000 N 
ATOM     14  H   UNL     1       2.381   7.511  19.569  0.00  0.00    +0.000 HD
BRANCH  13  15
ATOM     15  C   UNL     1       1.236   7.068  21.316  0.00  0.00    +0.000 C 
BRANCH  15  16
ATOM     16  C   UNL     1       0.840   8.579  21.322  0.00  0.00    +0.000 C 
ATOM     17  C   UNL     1      -0.665   8.692  21.648  0.00  0.00    +0.000 C 
ATOM     18  C   UNL     1       1.654   9.239  22.464  0.00  0.00    +0.000 C 
BRANCH  16  19
ATOM     19  C   UNL     1       1.121   9.209  19.904  0.00  0.00    +0.000 C 
BRANCH  19  20
ATOM     20  N   UNL     1       0.198  10.268  19.410  0.00  0.00    +0.000 NA
ATOM     21  C   UNL     1       0.766  11.628  19.485  0.00  0.00    +0.000 C 
ATOM     22  C   UNL     1      -0.123   9.979  17.996  0.00  0.00    +0.000 C 
ENDBRANCH  19  20
ENDBRANCH  16  19
ENDBRANCH  15  16
ENDBRANCH  13  15
ENDBRANCH   6  11
BRANCH   1  23
ATOM     23  O   UNL     1       6.643   4.165  14.045  0.00  0.00    +0.000 OA
BRANCH  23  25
ATOM     24  C   UNL     1       6.602   3.092  11.904  0.00  0.00    +0.000 C 
ATOM     25  C   UNL     1       5.804   3.674  13.067  0.00  0.00    +0.000 C 
ENDBRANCH  23  25
ENDBRANCH   1  23
TORSDOF 7
ENDMDL
MODEL 2
REMARK VINA RESULT:      -6.4      2.024      3.855
REMARK  Name = 
REMARK  13 active torsions:
REMARK  status: ('A' for Active; 'I' for Inactive)
REMARK    1  A    between atoms: C_1  and  C_2
REMARK    2  A    between atoms: C_2  and  O_3
REMARK    3  A    between atoms: O_3  and  C_4
REMARK    4  A    between atoms: C_9  and  C_10
REMARK    5  A    between atoms: N_12  and  C_13
REMARK    6  A    between atoms: C_13  and  C_14
REMARK    7  A    between atoms: C_14  and  C_15
REMARK    8  A    between atoms: C_14  and  C_16
REMARK    9  A    between atoms: C_14  and  C_17
REMARK   10  A    between atoms: C_17  and  N_18
REMARK   11  A    between atoms: N_18  and  C_19
REMARK   12  A    between atoms: N_18  and  C_20
REMARK   13  A    between atoms: C_21  and  C_22
REMARK                            x       y       z     vdW  Elec       q    Type
REMARK                         _______ _______ _______ _____ _____    ______ ____
ROOT
ATOM      1  C   UNL     1       4.030   4.363  17.705  0.00  0.00    +0.000 A 
ATOM      2  C   UNL     1       3.729   3.677  18.919  0.00  0.00    +0.000 A 
ATOM      3  C   UNL     1       3.024   4.320  19.951  0.00  0.00    +0.000 A 
ATOM      4  C   UNL     1       2.646   5.641  19.751  0.00  0.00    +0.000 A 
ATOM      5  O   UNL     1       1.986   6.415  20.577  0.00  0.00    +0.000 OA
ATOM      6  C   UNL     1       1.848   7.604  20.006  0.00  0.00    +0.000 A 
ATOM      7  C   UNL     1       2.435   7.582  18.731  0.00  0.00    +0.000 A 
ATOM      8  C   UNL     1       2.526   8.640  17.673  0.00  0.00    +0.000 C 
ATOM      9  C   UNL     1       2.940   6.308  18.598  0.00  0.00    +0.000 A 
ATOM     10  C   UNL     1       3.620   5.701  17.547  0.00  0.00    +0.000 A 
ENDROOT
BRANCH   6  11
ATOM     11  C   UNL     1       1.159   8.721  20.698  0.00  0.00    +0.000 C 
ATOM     12  O   UNL     1       1.194   8.809  21.916  0.00  0.00    +0.000 OA
ATOM     13  N   UNL     1       0.517   9.664  19.948  0.00  0.00    +0.000 N 
ATOM     14  H   UNL     1       0.558   9.582  18.923  0.00  0.00    +0.000 HD
BRANCH  13  15
ATOM     15  C   UNL     1      -0.185  10.816  20.500  0.00  0.00    +0.000 C 
BRANCH  15  16
ATOM     16  C   UNL     1      -0.938  11.620  19.392  0.00  0.00    +0.000 C 
ATOM     17  C   UNL     1      -1.308  10.653  18.246  0.00  0.00    +0.000 C 
ATOM     18  C   UNL     1      -2.240  12.149  20.046  0.00  0.00    +0.000 C 
BRANCH  16  19
ATOM     19  C   UNL     1      -0.004  12.763  18.836  0.00  0.00    +0.000 C 
BRANCH  19  20
ATOM     20  N   UNL     1       1.413  12.797  19.293  0.00  0.00    +0.000 NA
ATOM     21  C   UNL     1       2.376  12.359  18.265  0.00  0.00    +0.000 C 
ATOM     22  C   UNL     1       1.743  14.187  19.673  0.00  0.00    +0.000 C 
ENDBRANCH  19  20
ENDBRANCH  16  19
ENDBRANCH  15  16
ENDBRANCH  13  15
ENDBRANCH   6  11
BRANCH   1  23
ATOM     23  O   UNL     1       4.684   3.780  16.668  0.00  0.00    +0.000 OA
BRANCH  23  25
ATOM     24  C   UNL     1       6.946   4.523  16.401  0.00  0.00    +0.000 C 
ATOM     25  C   UNL     1       5.552   4.400  15.794  0.00  0.00    +0.000 C 
ENDBRANCH  23  25
ENDBRANCH   1  23
TORSDOF 7
ENDMDL
MODEL 3
REMARK VINA RESULT:      -6.3      3.504      9.382
REMARK  Name = 
REMARK  13 active torsions:
REMARK  status: ('A' for Active; 'I' for Inactive)
REMARK    1  A    between atoms: C_1  and  C_2
REMARK    2  A    between atoms: C_2  and  O_3
REMARK    3  A    between atoms: O_3  and  C_4
REMARK    4  A    between atoms: C_9  and  C_10
REMARK    5  A    between atoms: N_12  and  C_13
REMARK    6  A    between atoms: C_13  and  C_14
REMARK    7  A    between atoms: C_14  and  C_15
REMARK    8  A    between atoms: C_14  and  C_16
REMARK    9  A    between atoms: C_14  and  C_17
REMARK   10  A    between atoms: C_17  and  N_18
REMARK   11  A    between atoms: N_18  and  C_19
REMARK   12  A    between atoms: N_18  and  C_20
REMARK   13  A    between atoms: C_21  and  C_22
REMARK                            x       y       z     vdW  Elec       q    Type
REMARK                         _______ _______ _______ _____ _____    ______ ____
ROOT
ATOM      1  C   UNL     1      -1.824  12.029  21.934  0.00  0.00    +0.000 A 
ATOM      2  C   UNL     1      -2.126  12.601  20.663  0.00  0.00    +0.000 A 
ATOM      3  C   UNL     1      -1.490  12.139  19.497  0.00  0.00    +0.000 A 
ATOM      4  C   UNL     1      -0.556  11.120  19.631  0.00  0.00    +0.000 A 
ATOM      5  O   UNL     1       0.142  10.548  18.681  0.00  0.00    +0.000 OA
ATOM      6  C   UNL     1       0.928   9.638  19.237  0.00  0.00    +0.000 A 
ATOM      7  C   UNL     1       0.705   9.611  20.623  0.00  0.00    +0.000 A 
ATOM      8  C   UNL     1       1.302   8.753  21.698  0.00  0.00    +0.000 C 
ATOM      9  C   UNL     1      -0.253  10.575  20.844  0.00  0.00    +0.000 A 
ATOM     10  C   UNL     1      -0.873  10.994  22.017  0.00  0.00    +0.000 A 
ENDROOT
BRANCH   6  11
ATOM     11  C   UNL     1       1.866   8.824  18.427  0.00  0.00    +0.000 C 
ATOM     12  O   UNL     1       2.379   9.290  17.421  0.00  0.00    +0.000 OA
ATOM     13  N   UNL     1       2.171   7.560  18.843  0.00  0.00    +0.000 N 
ATOM     14  H   UNL     1       1.758   7.224  19.725  0.00  0.00    +0.000 HD
BRANCH  13  15
ATOM     15  C   UNL     1       3.085   6.662  18.149  0.00  0.00    +0.000 C 
BRANCH  15  16
ATOM     16  C   UNL     1       2.943   5.189  18.650  0.00  0.00    +0.000 C 
ATOM     17  C   UNL     1       2.512   5.213  20.133  0.00  0.00    +0.000 C 
ATOM     18  C   UNL     1       1.812   4.548  17.806  0.00  0.00    +0.000 C 
BRANCH  16  19
ATOM     19  C   UNL     1       4.327   4.445  18.514  0.00  0.00    +0.000 C 
BRANCH  19  20
ATOM     20  N   UNL     1       5.462   5.180  17.890  0.00  0.00    +0.000 NA
ATOM     21  C   UNL     1       6.590   5.416  18.810  0.00  0.00    +0.000 C 
ATOM     22  C   UNL     1       5.956   4.383  16.748  0.00  0.00    +0.000 C 
ENDBRANCH  19  20
ENDBRANCH  16  19
ENDBRANCH  15  16
ENDBRANCH  13  15
ENDBRANCH   6  11
BRANCH   1  23
ATOM     23  O   UNL     1      -2.428  12.421  23.084  0.00  0.00    +0.000 OA
BRANCH  23  25
ATOM     24  C   UNL     1      -4.238  12.442  24.654  0.00  0.00    +0.000 C 
ATOM     25  C   UNL     1      -3.757  12.756  23.240  0.00  0.00    +0.000 C 
ENDBRANCH  23  25
ENDBRANCH   1  23
TORSDOF 7
ENDMDL
MODEL 4
REMARK VINA RESULT:      -6.2      3.028      8.870
REMARK  Name = 
REMARK  13 active torsions:
REMARK  status: ('A' for Active; 'I' for Inactive)
REMARK    1  A    between atoms: C_1  and  C_2
REMARK    2  A    between atoms: C_2  and  O_3
REMARK    3  A    between atoms: O_3  and  C_4
REMARK    4  A    between atoms: C_9  and  C_10
REMARK    5  A    between atoms: N_12  and  C_13
REMARK    6  A    between atoms: C_13  and  C_14
REMARK    7  A    between atoms: C_14  and  C_15
REMARK    8  A    between atoms: C_14  and  C_16
REMARK    9  A    between atoms: C_14  and  C_17
REMARK   10  A    between atoms: C_17  and  N_18
REMARK   11  A    between atoms: N_18  and  C_19
REMARK   12  A    between atoms: N_18  and  C_20
REMARK   13  A    between atoms: C_21  and  C_22
REMARK                            x       y       z     vdW  Elec       q    Type
REMARK                         _______ _______ _______ _____ _____    ______ ____
ROOT
ATOM      1  C   UNL     1      -1.059  11.171  21.929  0.00  0.00    +0.000 A 
ATOM      2  C   UNL     1      -0.679  10.320  23.008  0.00  0.00    +0.000 A 
ATOM      3  C   UNL     1       0.219   9.259  22.805  0.00  0.00    +0.000 A 
ATOM      4  C   UNL     1       0.711   9.064  21.520  0.00  0.00    +0.000 A 
ATOM      5  O   UNL     1       1.552   8.143  21.120  0.00  0.00    +0.000 OA
ATOM      6  C   UNL     1       1.744   8.299  19.817  0.00  0.00    +0.000 A 
ATOM      7  C   UNL     1       0.997   9.397  19.362  0.00  0.00    +0.000 A 
ATOM      8  C   UNL     1       0.886  10.013  17.999  0.00  0.00    +0.000 C 
ATOM      9  C   UNL     1       0.344   9.866  20.480  0.00  0.00    +0.000 A 
ATOM     10  C   UNL     1      -0.530  10.937  20.645  0.00  0.00    +0.000 A 
ENDROOT
BRANCH   6  11
ATOM     11  C   UNL     1       2.634   7.393  19.051  0.00  0.00    +0.000 C 
ATOM     12  O   UNL     1       3.102   7.748  17.980  0.00  0.00    +0.000 OA
ATOM     13  N   UNL     1       2.947   6.174  19.579  0.00  0.00    +0.000 N 
ATOM     14  H   UNL     1       2.575   5.936  20.509  0.00  0.00    +0.000 HD
BRANCH  13  15
ATOM     15  C   UNL     1       3.819   5.198  18.938  0.00  0.00    +0.000 C 
BRANCH  15  16
ATOM     16  C   UNL     1       3.003   4.068  18.232  0.00  0.00    +0.000 C 
ATOM     17  C   UNL     1       1.641   4.647  17.790  0.00  0.00    +0.000 C 
ATOM     18  C   UNL     1       3.813   3.666  16.972  0.00  0.00    +0.000 C 
BRANCH  16  19
ATOM     19  C   UNL     1       2.768   2.874  19.235  0.00  0.00    +0.000 C 
BRANCH  19  20
ATOM     20  N   UNL     1       2.439   3.201  20.651  0.00  0.00    +0.000 NA
ATOM     21  C   UNL     1       0.999   3.106  20.959  0.00  0.00    +0.000 C 
ATOM     22  C   UNL     1       3.162   2.253  21.524  0.00  0.00    +0.000 C 
ENDBRANCH  19  20
ENDBRANCH  16  19
ENDBRANCH  15  16
ENDBRANCH  13  15
ENDBRANCH   6  11
BRANCH   1  23
ATOM     23  O   UNL     1      -1.902  12.224  22.077  0.00  0.00    +0.000 OA
BRANCH  23  25
ATOM     24  C   UNL     1      -3.564  12.410  23.792  0.00  0.00    +0.000 C 
ATOM     25  C   UNL     1      -2.210  12.868  23.257  0.00  0.00    +0.000 C 
ENDBRANCH  23  25
ENDBRANCH   1  23
TORSDOF 7
ENDMDL
MODEL 5
REMARK VINA RESULT:      -6.2      2.059      3.682
REMARK  Name = 
REMARK  13 active torsions:
REMARK  status: ('A' for Active; 'I' for Inactive)
REMARK    1  A    between atoms: C_1  and  C_2
REMARK    2  A    between atoms: C_2  and  O_3
REMARK    3  A    between atoms: O_3  and  C_4
REMARK    4  A    between atoms: C_9  and  C_10
REMARK    5  A    between atoms: N_12  and  C_13
REMARK    6  A    between atoms: C_13  and  C_14
REMARK    7  A    between atoms: C_14  and  C_15
REMARK    8  A    between atoms: C_14  and  C_16
REMARK    9  A    between atoms: C_14  and  C_17
REMARK   10  A    between atoms: C_17  and  N_18
REMARK   11  A    between atoms: N_18  and  C_19
REMARK   12  A    between atoms: N_18  and  C_20
REMARK   13  A    between atoms: C_21  and  C_22
REMARK                            x       y       z     vdW  Elec       q    Type
REMARK                         _______ _______ _______ _____ _____    ______ ____
ROOT
ATOM      1  C   UNL     1       4.434   4.849  17.615  0.00  0.00    +0.000 A 
ATOM      2  C   UNL     1       4.199   4.092  18.801  0.00  0.00    +0.000 A 
ATOM      3  C   UNL     1       3.394   4.604  19.833  0.00  0.00    +0.000 A 
ATOM      4  C   UNL     1       2.849   5.870  19.660  0.00  0.00    +0.000 A 
ATOM      5  O   UNL     1       2.075   6.525  20.490  0.00  0.00    +0.000 OA
ATOM      6  C   UNL     1       1.794   7.702  19.949  0.00  0.00    +0.000 A 
ATOM      7  C   UNL     1       2.406   7.798  18.689  0.00  0.00    +0.000 A 
ATOM      8  C   UNL     1       2.379   8.891  17.663  0.00  0.00    +0.000 C 
ATOM      9  C   UNL     1       3.077   6.605  18.533  0.00  0.00    +0.000 A 
ATOM     10  C   UNL     1       3.854   6.125  17.484  0.00  0.00    +0.000 A 
ENDROOT
BRANCH   6  11
ATOM     11  C   UNL     1       0.949   8.697  20.654  0.00  0.00    +0.000 C 
ATOM     12  O   UNL     1       0.827   8.655  21.869  0.00  0.00    +0.000 OA
ATOM     13  N   UNL     1       0.339   9.677  19.925  0.00  0.00    +0.000 N 
ATOM     14  H   UNL     1       0.510   9.709  18.911  0.00  0.00    +0.000 HD
BRANCH  13  15
ATOM     15  C   UNL     1      -0.505  10.721  20.494  0.00  0.00    +0.000 C 
BRANCH  15  16
ATOM     16  C   UNL     1      -0.377  12.064  19.705  0.00  0.00    +0.000 C 
ATOM     17  C   UNL     1      -0.890  13.212  20.601  0.00  0.00    +0.000 C 
ATOM     18  C   UNL     1       1.136  12.270  19.437  0.00  0.00    +0.000 C 
BRANCH  16  19
ATOM     19  C   UNL     1      -1.244  11.993  18.389  0.00  0.00    +0.000 C 
BRANCH  19  20
ATOM     20  N   UNL     1      -2.280  10.927  18.287  0.00  0.00    +0.000 NA
ATOM     21  C   UNL     1      -3.628  11.441  17.980  0.00  0.00    +0.000 C 
ATOM     22  C   UNL     1      -1.882   9.999  17.208  0.00  0.00    +0.000 C 
ENDBRANCH  19  20
ENDBRANCH  16  19
ENDBRANCH  15  16
ENDBRANCH  13  15
ENDBRANCH   6  11
BRANCH   1  23
ATOM     23  O   UNL     1       5.181   4.389  16.579  0.00  0.00    +0.000 OA
BRANCH  23  25
ATOM     24  C   UNL     1       5.560   4.267  14.217  0.00  0.00    +0.000 C 
ATOM     25  C   UNL     1       5.600   5.116  15.485  0.00  0.00    +0.000 C 
ENDBRANCH  23  25
ENDBRANCH   1  23
TORSDOF 7
ENDMDL
MODEL 6
REMARK VINA RESULT:      -6.2      1.423      1.954
REMARK  Name = 
REMARK  13 active torsions:
REMARK  status: ('A' for Active; 'I' for Inactive)
REMARK    1  A    between atoms: C_1  and  C_2
REMARK    2  A    between atoms: C_2  and  O_3
REMARK    3  A    between atoms: O_3  and  C_4
REMARK    4  A    between atoms: C_9  and  C_10
REMARK    5  A    between atoms: N_12  and  C_13
REMARK    6  A    between atoms: C_13  and  C_14
REMARK    7  A    between atoms: C_14  and  C_15
REMARK    8  A    between atoms: C_14  and  C_16
REMARK    9  A    between atoms: C_14  and  C_17
REMARK   10  A    between atoms: C_17  and  N_18
REMARK   11  A    between atoms: N_18  and  C_19
REMARK   12  A    between atoms: N_18  and  C_20
REMARK   13  A    between atoms: C_21  and  C_22
REMARK                            x       y       z     vdW  Elec       q    Type
REMARK                         _______ _______ _______ _____ _____    ______ ____
ROOT
ATOM      1  C   UNL     1       5.724   4.515  15.507  0.00  0.00    +0.000 A 
ATOM      2  C   UNL     1       6.514   5.651  15.851  0.00  0.00    +0.000 A 
ATOM      3  C   UNL     1       6.073   6.566  16.821  0.00  0.00    +0.000 A 
ATOM      4  C   UNL     1       4.841   6.331  17.420  0.00  0.00    +0.000 A 
ATOM      5  O   UNL     1       4.252   7.052  18.341  0.00  0.00    +0.000 OA
ATOM      6  C   UNL     1       3.086   6.487  18.623  0.00  0.00    +0.000 A 
ATOM      7  C   UNL     1       2.930   5.324  17.852  0.00  0.00    +0.000 A 
ATOM      8  C   UNL     1       1.824   4.313  17.810  0.00  0.00    +0.000 C 
ATOM      9  C   UNL     1       4.075   5.252  17.089  0.00  0.00    +0.000 A 
ATOM     10  C   UNL     1       4.485   4.315  16.146  0.00  0.00    +0.000 A 
ENDROOT
BRANCH   6  11
ATOM     11  C   UNL     1       2.159   7.077  19.620  0.00  0.00    +0.000 C 
ATOM     12  O   UNL     1       1.761   6.411  20.563  0.00  0.00    +0.000 OA
ATOM     13  N   UNL     1       1.788   8.384  19.483  0.00  0.00    +0.000 N 
ATOM     14  H   UNL     1       2.190   8.925  18.704  0.00  0.00    +0.000 HD
BRANCH  13  15
ATOM     15  C   UNL     1       0.898   9.087  20.397  0.00  0.00    +0.000 C 
BRANCH  15  16
ATOM     16  C   UNL     1       0.334  10.399  19.762  0.00  0.00    +0.000 C 
ATOM     17  C   UNL     1      -0.346  10.044  18.422  0.00  0.00    +0.000 C 
ATOM     18  C   UNL     1      -0.739  10.933  20.746  0.00  0.00    +0.000 C 
BRANCH  16  19
ATOM     19  C   UNL     1       1.512  11.414  19.504  0.00  0.00    +0.000 C 
BRANCH  19  20
ATOM     20  N   UNL     1       1.298  12.845  19.860  0.00  0.00    +0.000 NA
ATOM     21  C   UNL     1       2.486  13.490  20.451  0.00  0.00    +0.000 C 
ATOM     22  C   UNL     1       0.939  13.579  18.628  0.00  0.00    +0.000 C 
ENDBRANCH  19  20
ENDBRANCH  16  19
ENDBRANCH  15  16
ENDBRANCH  13  15
ENDBRANCH   6  11
BRANCH   1  23
ATOM     23  O   UNL     1       6.117   3.588  14.597  0.00  0.00    +0.000 OA
BRANCH  23  25
ATOM     24  C   UNL     1       5.597   3.191  12.292  0.00  0.00    +0.000 C 
ATOM     25  C   UNL     1       6.539   3.832  13.307  0.00  0.00    +0.000 C 
ENDBRANCH  23  25
ENDBRANCH   1  23
TORSDOF 7
ENDMDL
MODEL 7
REMARK VINA RESULT:      -6.2      1.448      2.134
REMARK  Name = 
REMARK  13 active torsions:
REMARK  status: ('A' for Active; 'I' for Inactive)
REMARK    1  A    between atoms: C_1  and  C_2
REMARK    2  A    between atoms: C_2  and  O_3
REMARK    3  A    between atoms: O_3  and  C_4
REMARK    4  A    between atoms: C_9  and  C_10
REMARK    5  A    between atoms: N_12  and  C_13
REMARK    6  A    between atoms: C_13  and  C_14
REMARK    7  A    between atoms: C_14  and  C_15
REMARK    8  A    between atoms: C_14  and  C_16
REMARK    9  A    between atoms: C_14  and  C_17
REMARK   10  A    between atoms: C_17  and  N_18
REMARK   11  A    between atoms: N_18  and  C_19
REMARK   12  A    between atoms: N_18  and  C_20
REMARK   13  A    between atoms: C_21  and  C_22
REMARK                            x       y       z     vdW  Elec       q    Type
REMARK                         _______ _______ _______ _____ _____    ______ ____
ROOT
ATOM      1  C   UNL     1       5.934   4.506  15.507  0.00  0.00    +0.000 A 
ATOM      2  C   UNL     1       6.756   5.563  15.997  0.00  0.00    +0.000 A 
ATOM      3  C   UNL     1       6.302   6.410  17.022  0.00  0.00    +0.000 A 
ATOM      4  C   UNL     1       5.027   6.189  17.527  0.00  0.00    +0.000 A 
ATOM      5  O   UNL     1       4.418   6.856  18.476  0.00  0.00    +0.000 OA
ATOM      6  C   UNL     1       3.211   6.333  18.639  0.00  0.00    +0.000 A 
ATOM      7  C   UNL     1       3.046   5.253  17.757  0.00  0.00    +0.000 A 
ATOM      8  C   UNL     1       1.896   4.311  17.561  0.00  0.00    +0.000 C 
ATOM      9  C   UNL     1       4.229   5.187  17.056  0.00  0.00    +0.000 A 
ATOM     10  C   UNL     1       4.650   4.317  16.055  0.00  0.00    +0.000 A 
ENDROOT
BRANCH   6  11
ATOM     11  C   UNL     1       2.256   6.880  19.633  0.00  0.00    +0.000 C 
ATOM     12  O   UNL     1       1.836   6.177  20.539  0.00  0.00    +0.000 OA
ATOM     13  N   UNL     1       1.883   8.190  19.536  0.00  0.00    +0.000 N 
ATOM     14  H   UNL     1       2.302   8.762  18.790  0.00  0.00    +0.000 HD
BRANCH  13  15
ATOM     15  C   UNL     1       0.965   8.854  20.453  0.00  0.00    +0.000 C 
BRANCH  15  16
ATOM     16  C   UNL     1       0.508  10.246  19.909  0.00  0.00    +0.000 C 
ATOM     17  C   UNL     1       1.483  10.682  18.793  0.00  0.00    +0.000 C 
ATOM     18  C   UNL     1      -0.899  10.034  19.295  0.00  0.00    +0.000 C 
BRANCH  16  19
ATOM     19  C   UNL     1       0.533  11.308  21.075  0.00  0.00    +0.000 C 
BRANCH  19  20
ATOM     20  N   UNL     1      -0.751  11.954  21.464  0.00  0.00    +0.000 NA
ATOM     21  C   UNL     1      -1.137  11.704  22.865  0.00  0.00    +0.000 C 
ATOM     22  C   UNL     1      -0.609  13.414  21.277  0.00  0.00    +0.000 C 
ENDBRANCH  19  20
ENDBRANCH  16  19
ENDBRANCH  15  16
ENDBRANCH  13  15
ENDBRANCH   6  11
BRANCH   1  23
ATOM     23  O   UNL     1       6.335   3.644  14.538  0.00  0.00    +0.000 OA
BRANCH  23  25
ATOM     24  C   UNL     1       6.868   3.799  12.208  0.00  0.00    +0.000 C 
ATOM     25  C   UNL     1       5.806   3.531  13.270  0.00  0.00    +0.000 C 
ENDBRANCH  23  25
ENDBRANCH   1  23
TORSDOF 7
ENDMDL
MODEL 8
REMARK VINA RESULT:      -6.1      1.604      1.948
REMARK  Name = 
REMARK  13 active torsions:
REMARK  status: ('A' for Active; 'I' for Inactive)
REMARK    1  A    between atoms: C_1  and  C_2
REMARK    2  A    between atoms: C_2  and  O_3
REMARK    3  A    between atoms: O_3  and  C_4
REMARK    4  A    between atoms: C_9  and  C_10
REMARK    5  A    between atoms: N_12  and  C_13
REMARK    6  A    between atoms: C_13  and  C_14
REMARK    7  A    between atoms: C_14  and  C_15
REMARK    8  A    between atoms: C_14  and  C_16
REMARK    9  A    between atoms: C_14  and  C_17
REMARK   10  A    between atoms: C_17  and  N_18
REMARK   11  A    between atoms: N_18  and  C_19
REMARK   12  A    between atoms: N_18  and  C_20
REMARK   13  A    between atoms: C_21  and  C_22
REMARK                            x       y       z     vdW  Elec       q    Type
REMARK                         _______ _______ _______ _____ _____    ______ ____
ROOT
ATOM      1  C   UNL     1       6.647   5.563  16.494  0.00  0.00    +0.000 A 
ATOM      2  C   UNL     1       7.000   4.612  17.496  0.00  0.00    +0.000 A 
ATOM      3  C   UNL     1       6.170   4.400  18.610  0.00  0.00    +0.000 A 
ATOM      4  C   UNL     1       5.008   5.155  18.704  0.00  0.00    +0.000 A 
ATOM      5  O   UNL     1       4.103   5.112  19.651  0.00  0.00    +0.000 OA
ATOM      6  C   UNL     1       3.167   6.006  19.367  0.00  0.00    +0.000 A 
ATOM      7  C   UNL     1       3.479   6.644  18.156  0.00  0.00    +0.000 A 
ATOM      8  C   UNL     1       2.744   7.695  17.380  0.00  0.00    +0.000 C 
ATOM      9  C   UNL     1       4.668   6.075  17.756  0.00  0.00    +0.000 A 
ATOM     10  C   UNL     1       5.455   6.301  16.631  0.00  0.00    +0.000 A 
ENDROOT
BRANCH   6  11
ATOM     11  C   UNL     1       2.004   6.222  20.262  0.00  0.00    +0.000 C 
ATOM     12  O   UNL     1       1.373   5.270  20.697  0.00  0.00    +0.000 OA
ATOM     13  N   UNL     1       1.673   7.498  20.617  0.00  0.00    +0.000 N 
ATOM     14  H   UNL     1       2.262   8.268  20.272  0.00  0.00    +0.000 HD
BRANCH  13  15
ATOM     15  C   UNL     1       0.565   7.846  21.497  0.00  0.00    +0.000 C 
BRANCH  15  16
ATOM     16  C   UNL     1       0.631   9.340  21.949  0.00  0.00    +0.000 C 
ATOM     17  C   UNL     1      -0.397   9.558  23.081  0.00  0.00    +0.000 C 
ATOM     18  C   UNL     1       2.058   9.563  22.514  0.00  0.00    +0.000 C 
BRANCH  16  19
ATOM     19  C   UNL     1       0.283  10.281  20.732  0.00  0.00    +0.000 C 
BRANCH  19  20
ATOM     20  N   UNL     1       1.042  11.554  20.588  0.00  0.00    +0.000 NA
ATOM     21  C   UNL     1       1.499  11.816  19.210  0.00  0.00    +0.000 C 
ATOM     22  C   UNL     1       0.161  12.667  21.002  0.00  0.00    +0.000 C 
ENDBRANCH  19  20
ENDBRANCH  16  19
ENDBRANCH  15  16
ENDBRANCH  13  15
ENDBRANCH   6  11
BRANCH   1  23
ATOM     23  O   UNL     1       7.399   5.786  15.387  0.00  0.00    +0.000 OA
BRANCH  23  25
ATOM     24  C   UNL     1       6.345   3.974  14.228  0.00  0.00    +0.000 C 
ATOM     25  C   UNL     1       7.208   5.229  14.140  0.00  0.00    +0.000 C 
ENDBRANCH  23  25
ENDBRANCH   1  23
TORSDOF 7
ENDMDL
MODEL 9
REMARK VINA RESULT:      -6.1      3.605      9.428
REMARK  Name = 
REMARK  13 active torsions:
REMARK  status: ('A' for Active; 'I' for Inactive)
REMARK    1  A    between atoms: C_1  and  C_2
REMARK    2  A    between atoms: C_2  and  O_3
REMARK    3  A    between atoms: O_3  and  C_4
REMARK    4  A    between atoms: C_9  and  C_10
REMARK    5  A    between atoms: N_12  and  C_13
REMARK    6  A    between atoms: C_13  and  C_14
REMARK    7  A    between atoms: C_14  and  C_15
REMARK    8  A    between atoms: C_14  and  C_16
REMARK    9  A    between atoms: C_14  and  C_17
REMARK   10  A    between atoms: C_17  and  N_18
REMARK   11  A    between atoms: N_18  and  C_19
REMARK   12  A    between atoms: N_18  and  C_20
REMARK   13  A    between atoms: C_21  and  C_22
REMARK                            x       y       z     vdW  Elec       q    Type
REMARK                         _______ _______ _______ _____ _____    ______ ____
ROOT
ATOM      1  C   UNL     1      -1.800  12.368  21.248  0.00  0.00    +0.000 A 
ATOM      2  C   UNL     1      -2.031  12.728  19.888  0.00  0.00    +0.000 A 
ATOM      3  C   UNL     1      -1.369  12.058  18.844  0.00  0.00    +0.000 A 
ATOM      4  C   UNL     1      -0.480  11.047  19.186  0.00  0.00    +0.000 A 
ATOM      5  O   UNL     1       0.231  10.303  18.375  0.00  0.00    +0.000 OA
ATOM      6  C   UNL     1       0.959   9.474  19.110  0.00  0.00    +0.000 A 
ATOM      7  C   UNL     1       0.682   9.685  20.470  0.00  0.00    +0.000 A 
ATOM      8  C   UNL     1       1.203   9.000  21.697  0.00  0.00    +0.000 C 
ATOM      9  C   UNL     1      -0.246  10.703  20.485  0.00  0.00    +0.000 A 
ATOM     10  C   UNL     1      -0.894  11.331  21.544  0.00  0.00    +0.000 A 
ENDROOT
BRANCH   6  11
ATOM     11  C   UNL     1       1.896   8.506  18.488  0.00  0.00    +0.000 C 
ATOM     12  O   UNL     1       2.335   8.705  17.365  0.00  0.00    +0.000 OA
ATOM     13  N   UNL     1       2.283   7.410  19.204  0.00  0.00    +0.000 N 
ATOM     14  H   UNL     1       1.932   7.308  20.166  0.00  0.00    +0.000 HD
BRANCH  13  15
ATOM     15  C   UNL     1       3.206   6.393  18.717  0.00  0.00    +0.000 C 
BRANCH  15  16
ATOM     16  C   UNL     1       2.632   4.952  18.907  0.00  0.00    +0.000 C 
ATOM     17  C   UNL     1       1.828   4.912  20.225  0.00  0.00    +0.000 C 
ATOM     18  C   UNL     1       1.667   4.706  17.719  0.00  0.00    +0.000 C 
BRANCH  16  19
ATOM     19  C   UNL     1       3.817   3.913  18.980  0.00  0.00    +0.000 C 
BRANCH  19  20
ATOM     20  N   UNL     1       3.504   2.519  19.403  0.00  0.00    +0.000 NA
ATOM     21  C   UNL     1       3.556   1.542  18.300  0.00  0.00    +0.000 C 
ATOM     22  C   UNL     1       4.492   2.114  20.426  0.00  0.00    +0.000 C 
ENDBRANCH  19  20
ENDBRANCH  16  19
ENDBRANCH  15  16
ENDBRANCH  13  15
ENDBRANCH   6  11
BRANCH   1  23
ATOM     23  O   UNL     1      -2.433  12.964  22.290  0.00  0.00    +0.000 OA
BRANCH  23  25
ATOM     24  C   UNL     1      -4.040  13.515  23.978  0.00  0.00    +0.000 C 
ATOM     25  C   UNL     1      -3.722  12.720  22.716  0.00  0.00    +0.000 C 
ENDBRANCH  23  25
ENDBRANCH   1  23
TORSDOF 7
ENDMDL
