MODEL 1
REMARK VINA RESULT:      -7.9      0.000      0.000
REMARK  Name = 
REMARK  9 active torsions:
REMARK  status: ('A' for Active; 'I' for Inactive)
REMARK    1  A    between atoms: C_1  and  C_2
REMARK    2  A    between atoms: C_2  and  N_3
REMARK    3  A    between atoms: N_3  and  C_4
REMARK    4  A    between atoms: N_3  and  C_12
REMARK    5  A    between atoms: C_4  and  C_5
REMARK    6  A    between atoms: C_9  and  C_10
REMARK    7  A    between atoms: C_12  and  N_13
REMARK    8  A    between atoms: C_15  and  C_16
REMARK    9  A    between atoms: C_18  and  C_19
REMARK                            x       y       z     vdW  Elec       q    Type
REMARK                         _______ _______ _______ _____ _____    ______ ____
ROOT
ATOM      1  C   UNL     1       5.035   5.721  16.593  0.00  0.00    +0.000 C 
ENDROOT
BRANCH   1   2
ATOM      2  N   UNL     1       4.401   5.137  17.793  0.00  0.00    +0.000 N 
ATOM      3  N   UNL     1       4.234   3.715  17.851  0.00  0.00    +0.000 NA
ATOM      4  C   UNL     1       3.394   3.159  18.696  0.00  0.00    +0.000 A 
ATOM      5  C   UNL     1       3.140   1.685  18.687  0.00  0.00    +0.000 C 
ATOM      6  C   UNL     1       2.637   4.000  19.589  0.00  0.00    +0.000 A 
ATOM      7  C   UNL     1       1.841   3.774  20.686  0.00  0.00    +0.000 A 
ATOM      8  C   UNL     1       1.508   2.621  21.545  0.00  0.00    +0.000 C 
ATOM      9  O   UNL     1       1.277   4.963  21.057  0.00  0.00    +0.000 OA
ATOM     10  N   UNL     1       1.770   5.984  20.252  0.00  0.00    +0.000 NA
ATOM     11  C   UNL     1       2.634   5.388  19.422  0.00  0.00    +0.000 A 
ATOM     12  C   UNL     1       3.484   6.032  18.442  0.00  0.00    +0.000 A 
ATOM     13  O   UNL     1       3.411   7.235  18.193  0.00  0.00    +0.000 OA
ENDBRANCH   1   2
BRANCH   1  14
ATOM     14  N   UNL     1       6.531   5.868  16.527  0.00  0.00    +0.000 NA
BRANCH  14  16
ATOM     15  C   UNL     1       7.936   6.729  18.535  0.00  0.00    +0.000 C 
ATOM     16  C   UNL     1       7.047   5.636  17.919  0.00  0.00    +0.000 C 
ENDBRANCH  14  16
BRANCH  14  17
ATOM     17  C   UNL     1       7.083   4.775  15.662  0.00  0.00    +0.000 C 
BRANCH  17  18
ATOM     18  C   UNL     1       6.830   4.725  14.138  0.00  0.00    +0.000 A 
ATOM     19  C   UNL     1       7.709   5.425  13.278  0.00  0.00    +0.000 A 
ATOM     20  C   UNL     1       7.830   5.086  11.926  0.00  0.00    +0.000 A 
ATOM     21  C   UNL     1       7.104   4.034  11.393  0.00  0.00    +0.000 A 
ATOM     22  C   UNL     1       6.171   3.367  12.190  0.00  0.00    +0.000 A 
ATOM     23  C   UNL     1       5.501   2.141  11.637  0.00  0.00    +0.000 C 
ATOM     24  C   UNL     1       6.012   3.741  13.555  0.00  0.00    +0.000 A 
ENDBRANCH  17  18
ENDBRANCH  14  17
ENDBRANCH   1  14
TORSDOF 5
ENDMDL
MODEL 2
REMARK VINA RESULT:      -7.7      1.792      2.446
REMARK  Name = 
REMARK  9 active torsions:
REMARK  status: ('A' for Active; 'I' for Inactive)
REMARK    1  A    between atoms: C_1  and  C_2
REMARK    2  A    between atoms: C_2  and  N_3
REMARK    3  A    between atoms: N_3  and  C_4
REMARK    4  A    between atoms: N_3  and  C_12
REMARK    5  A    between atoms: C_4  and  C_5
REMARK    6  A    between atoms: C_9  and  C_10
REMARK    7  A    between atoms: C_12  and  N_13
REMARK    8  A    between atoms: C_15  and  C_16
REMARK    9  A    between atoms: C_18  and  C_19
REMARK                            x       y       z     vdW  Elec       q    Type
REMARK                         _______ _______ _______ _____ _____    ______ ____
ROOT
ATOM      1  C   UNL     1       5.198   4.792  17.284  0.00  0.00    +0.000 C 
ENDROOT
BRANCH   1   2
ATOM      2  N   UNL     1       4.414   5.672  18.175  0.00  0.00    +0.000 N 
ATOM      3  N   UNL     1       3.694   5.075  19.261  0.00  0.00    +0.000 NA
ATOM      4  C   UNL     1       2.723   5.717  19.873  0.00  0.00    +0.000 A 
ATOM      5  C   UNL     1       1.901   5.058  20.936  0.00  0.00    +0.000 C 
ATOM      6  C   UNL     1       2.388   7.053  19.449  0.00  0.00    +0.000 A 
ATOM      7  C   UNL     1       1.596   8.056  19.952  0.00  0.00    +0.000 A 
ATOM      8  C   UNL     1       0.851   8.304  21.203  0.00  0.00    +0.000 C 
ATOM      9  O   UNL     1       1.563   9.074  19.040  0.00  0.00    +0.000 OA
ATOM     10  N   UNL     1       2.402   8.771  17.973  0.00  0.00    +0.000 NA
ATOM     11  C   UNL     1       2.935   7.581  18.276  0.00  0.00    +0.000 A 
ATOM     12  C   UNL     1       3.947   6.866  17.526  0.00  0.00    +0.000 A 
ATOM     13  O   UNL     1       4.353   7.252  16.430  0.00  0.00    +0.000 OA
ENDBRANCH   1   2
BRANCH   1  14
ATOM     14  N   UNL     1       6.634   5.116  16.980  0.00  0.00    +0.000 NA
BRANCH  14  16
ATOM     15  C   UNL     1       7.798   5.998  19.129  0.00  0.00    +0.000 C 
ATOM     16  C   UNL     1       7.416   4.812  18.226  0.00  0.00    +0.000 C 
ENDBRANCH  14  16
BRANCH  14  17
ATOM     17  C   UNL     1       7.123   4.183  15.913  0.00  0.00    +0.000 C 
BRANCH  17  18
ATOM     18  C   UNL     1       6.816   4.414  14.415  0.00  0.00    +0.000 A 
ATOM     19  C   UNL     1       7.663   5.268  13.670  0.00  0.00    +0.000 A 
ATOM     20  C   UNL     1       7.737   5.186  12.275  0.00  0.00    +0.000 A 
ATOM     21  C   UNL     1       6.995   4.244  11.582  0.00  0.00    +0.000 A 
ATOM     22  C   UNL     1       6.090   3.435  12.273  0.00  0.00    +0.000 A 
ATOM     23  C   UNL     1       5.403   2.327  11.527  0.00  0.00    +0.000 C 
ATOM     24  C   UNL     1       5.979   3.549  13.689  0.00  0.00    +0.000 A 
ENDBRANCH  17  18
ENDBRANCH  14  17
ENDBRANCH   1  14
TORSDOF 5
ENDMDL
MODEL 3
REMARK VINA RESULT:      -7.6      2.728      5.197
REMARK  Name = 
REMARK  9 active torsions:
REMARK  status: ('A' for Active; 'I' for Inactive)
REMARK    1  A    between atoms: C_1  and  C_2
REMARK    2  A    between atoms: C_2  and  N_3
REMARK    3  A    between atoms: N_3  and  C_4
REMARK    4  A    between atoms: N_3  and  C_12
REMARK    5  A    between atoms: C_4  and  C_5
REMARK    6  A    between atoms: C_9  and  C_10
REMARK    7  A    between atoms: C_12  and  N_13
REMARK    8  A    between atoms: C_15  and  C_16
REMARK    9  A    between atoms: C_18  and  C_19
REMARK                            x       y       z     vdW  Elec       q    Type
REMARK                         _______ _______ _______ _____ _____    ______ ____
ROOT
ATOM      1  C   UNL     1       2.224   4.837  19.601  0.00  0.00    +0.000 C 
ENDROOT
BRANCH   1   2
ATOM      2  N   UNL     1       2.165   6.304  19.762  0.00  0.00    +0.000 N 
ATOM      3  N   UNL     1       1.397   6.840  20.847  0.00  0.00    +0.000 NA
ATOM      4  C   UNL     1       1.017   8.098  20.859  0.00  0.00    +0.000 A 
ATOM      5  C   UNL     1       0.127   8.633  21.936  0.00  0.00    +0.000 C 
ATOM      6  C   UNL     1       1.393   8.957  19.764  0.00  0.00    +0.000 A 
ATOM      7  C   UNL     1       1.340  10.310  19.535  0.00  0.00    +0.000 A 
ATOM      8  C   UNL     1       1.026  11.517  20.326  0.00  0.00    +0.000 C 
ATOM      9  O   UNL     1       1.731  10.542  18.245  0.00  0.00    +0.000 OA
ATOM     10  N   UNL     1       2.120   9.345  17.654  0.00  0.00    +0.000 NA
ATOM     11  C   UNL     1       1.969   8.419  18.610  0.00  0.00    +0.000 A 
ATOM     12  C   UNL     1       2.325   7.018  18.526  0.00  0.00    +0.000 A 
ATOM     13  O   UNL     1       2.718   6.497  17.482  0.00  0.00    +0.000 OA
ENDBRANCH   1   2
BRANCH   1  14
ATOM     14  N   UNL     1       3.478   4.089  19.962  0.00  0.00    +0.000 NA
BRANCH  14  16
ATOM     15  C   UNL     1       1.689   3.104  21.566  0.00  0.00    +0.000 C 
ATOM     16  C   UNL     1       3.067   2.986  20.895  0.00  0.00    +0.000 C 
ENDBRANCH  14  16
BRANCH  14  17
ATOM     17  C   UNL     1       4.026   3.442  18.725  0.00  0.00    +0.000 C 
BRANCH  17  18
ATOM     18  C   UNL     1       5.015   4.169  17.785  0.00  0.00    +0.000 A 
ATOM     19  C   UNL     1       6.241   4.634  18.315  0.00  0.00    +0.000 A 
ATOM     20  C   UNL     1       7.344   4.884  17.491  0.00  0.00    +0.000 A 
ATOM     21  C   UNL     1       7.272   4.660  16.127  0.00  0.00    +0.000 A 
ATOM     22  C   UNL     1       6.058   4.275  15.555  0.00  0.00    +0.000 A 
ATOM     23  C   UNL     1       6.037   3.899  14.100  0.00  0.00    +0.000 C 
ATOM     24  C   UNL     1       4.920   4.064  16.387  0.00  0.00    +0.000 A 
ENDBRANCH  17  18
ENDBRANCH  14  17
ENDBRANCH   1  14
TORSDOF 5
ENDMDL
MODEL 4
REMARK VINA RESULT:      -7.6      2.929      5.659
REMARK  Name = 
REMARK  9 active torsions:
REMARK  status: ('A' for Active; 'I' for Inactive)
REMARK    1  A    between atoms: C_1  and  C_2
REMARK    2  A    between atoms: C_2  and  N_3
REMARK    3  A    between atoms: N_3  and  C_4
REMARK    4  A    between atoms: N_3  and  C_12
REMARK    5  A    between atoms: C_4  and  C_5
REMARK    6  A    between atoms: C_9  and  C_10
REMARK    7  A    between atoms: C_12  and  N_13
REMARK    8  A    between atoms: C_15  and  C_16
REMARK    9  A    between atoms: C_18  and  C_19
REMARK                            x       y       z     vdW  Elec       q    Type
REMARK                         _______ _______ _______ _____ _____    ______ ____
ROOT
ATOM      1  C   UNL     1       2.428   5.261  19.419  0.00  0.00    +0.000 C 
ENDROOT
BRANCH   1   2
ATOM      2  N   UNL     1       2.245   6.707  19.658  0.00  0.00    +0.000 N 
ATOM      3  N   UNL     1       1.365   7.118  20.712  0.00  0.00    +0.000 NA
ATOM      4  C   UNL     1       0.888   8.341  20.768  0.00  0.00    +0.000 A 
ATOM      5  C   UNL     1      -0.112   8.742  21.806  0.00  0.00    +0.000 C 
ATOM      6  C   UNL     1       1.272   9.291  19.754  0.00  0.00    +0.000 A 
ATOM      7  C   UNL     1       1.129  10.649  19.599  0.00  0.00    +0.000 A 
ATOM      8  C   UNL     1       0.669  11.777  20.433  0.00  0.00    +0.000 C 
ATOM      9  O   UNL     1       1.588  10.988  18.357  0.00  0.00    +0.000 OA
ATOM     10  N   UNL     1       2.109   9.862  17.729  0.00  0.00    +0.000 NA
ATOM     11  C   UNL     1       1.965   8.870  18.616  0.00  0.00    +0.000 A 
ATOM     12  C   UNL     1       2.433   7.506  18.479  0.00  0.00    +0.000 A 
ATOM     13  O   UNL     1       2.936   7.082  17.439  0.00  0.00    +0.000 OA
ENDBRANCH   1   2
BRANCH   1  14
ATOM     14  N   UNL     1       3.439   4.487  20.219  0.00  0.00    +0.000 NA
BRANCH  14  16
ATOM     15  C   UNL     1       1.185   3.343  20.818  0.00  0.00    +0.000 C 
ATOM     16  C   UNL     1       2.662   3.607  21.156  0.00  0.00    +0.000 C 
ENDBRANCH  14  16
BRANCH  14  17
ATOM     17  C   UNL     1       4.199   3.586  19.293  0.00  0.00    +0.000 C 
BRANCH  17  18
ATOM     18  C   UNL     1       5.098   4.137  18.163  0.00  0.00    +0.000 A 
ATOM     19  C   UNL     1       4.686   3.968  16.820  0.00  0.00    +0.000 A 
ATOM     20  C   UNL     1       5.175   4.789  15.798  0.00  0.00    +0.000 A 
ATOM     21  C   UNL     1       6.064   5.812  16.078  0.00  0.00    +0.000 A 
ATOM     22  C   UNL     1       6.554   5.964  17.377  0.00  0.00    +0.000 A 
ATOM     23  C   UNL     1       7.404   7.163  17.688  0.00  0.00    +0.000 C 
ATOM     24  C   UNL     1       6.093   5.099  18.411  0.00  0.00    +0.000 A 
ENDBRANCH  17  18
ENDBRANCH  14  17
ENDBRANCH   1  14
TORSDOF 5
ENDMDL
MODEL 5
REMARK VINA RESULT:      -7.4      3.786      5.979
REMARK  Name = 
REMARK  9 active torsions:
REMARK  status: ('A' for Active; 'I' for Inactive)
REMARK    1  A    between atoms: C_1  and  C_2
REMARK    2  A    between atoms: C_2  and  N_3
REMARK    3  A    between atoms: N_3  and  C_4
REMARK    4  A    between atoms: N_3  and  C_12
REMARK    5  A    between atoms: C_4  and  C_5
REMARK    6  A    between atoms: C_9  and  C_10
REMARK    7  A    between atoms: C_12  and  N_13
REMARK    8  A    between atoms: C_15  and  C_16
REMARK    9  A    between atoms: C_18  and  C_19
REMARK                            x       y       z     vdW  Elec       q    Type
REMARK                         _______ _______ _______ _____ _____    ______ ____
ROOT
ATOM      1  C   UNL     1       2.267   6.841  19.062  0.00  0.00    +0.000 C 
ENDROOT
BRANCH   1   2
ATOM      2  N   UNL     1       1.912   8.147  19.654  0.00  0.00    +0.000 N 
ATOM      3  N   UNL     1       1.270   8.163  20.935  0.00  0.00    +0.000 NA
ATOM      4  C   UNL     1       0.625   9.225  21.364  0.00  0.00    +0.000 A 
ATOM      5  C   UNL     1      -0.134   9.209  22.653  0.00  0.00    +0.000 C 
ATOM      6  C   UNL     1       0.577  10.401  20.531  0.00  0.00    +0.000 A 
ATOM      7  C   UNL     1       0.176  11.702  20.719  0.00  0.00    +0.000 A 
ATOM      8  C   UNL     1      -0.241  12.538  21.862  0.00  0.00    +0.000 C 
ATOM      9  O   UNL     1       0.244  12.348  19.515  0.00  0.00    +0.000 OA
ATOM     10  N   UNL     1       0.770  11.491  18.555  0.00  0.00    +0.000 NA
ATOM     11  C   UNL     1       1.022  10.349  19.207  0.00  0.00    +0.000 A 
ATOM     12  C   UNL     1       1.661   9.165  18.672  0.00  0.00    +0.000 A 
ATOM     13  O   UNL     1       1.949   9.051  17.480  0.00  0.00    +0.000 OA
ENDBRANCH   1   2
BRANCH   1  14
ATOM     14  N   UNL     1       3.003   5.818  19.883  0.00  0.00    +0.000 NA
BRANCH  14  16
ATOM     15  C   UNL     1       1.164   3.995  20.092  0.00  0.00    +0.000 C 
ATOM     16  C   UNL     1       1.975   5.132  20.737  0.00  0.00    +0.000 C 
ENDBRANCH  14  16
BRANCH  14  17
ATOM     17  C   UNL     1       3.575   4.782  18.962  0.00  0.00    +0.000 C 
BRANCH  17  18
ATOM     18  C   UNL     1       4.846   5.042  18.121  0.00  0.00    +0.000 A 
ATOM     19  C   UNL     1       6.086   5.186  18.787  0.00  0.00    +0.000 A 
ATOM     20  C   UNL     1       7.300   4.978  18.123  0.00  0.00    +0.000 A 
ATOM     21  C   UNL     1       7.321   4.600  16.791  0.00  0.00    +0.000 A 
ATOM     22  C   UNL     1       6.122   4.522  16.078  0.00  0.00    +0.000 A 
ATOM     23  C   UNL     1       6.154   3.973  14.679  0.00  0.00    +0.000 C 
ATOM     24  C   UNL     1       4.888   4.779  16.741  0.00  0.00    +0.000 A 
ENDBRANCH  17  18
ENDBRANCH  14  17
ENDBRANCH   1  14
TORSDOF 5
ENDMDL
MODEL 6
REMARK VINA RESULT:      -7.3      2.500      7.163
REMARK  Name = 
REMARK  9 active torsions:
REMARK  status: ('A' for Active; 'I' for Inactive)
REMARK    1  A    between atoms: C_1  and  C_2
REMARK    2  A    between atoms: C_2  and  N_3
REMARK    3  A    between atoms: N_3  and  C_4
REMARK    4  A    between atoms: N_3  and  C_12
REMARK    5  A    between atoms: C_4  and  C_5
REMARK    6  A    between atoms: C_9  and  C_10
REMARK    7  A    between atoms: C_12  and  N_13
REMARK    8  A    between atoms: C_15  and  C_16
REMARK    9  A    between atoms: C_18  and  C_19
REMARK                            x       y       z     vdW  Elec       q    Type
REMARK                         _______ _______ _______ _____ _____    ______ ____
ROOT
ATOM      1  C   UNL     1       3.414   3.565  19.924  0.00  0.00    +0.000 C 
ENDROOT
BRANCH   1   2
ATOM      2  N   UNL     1       4.411   3.725  18.845  0.00  0.00    +0.000 N 
ATOM      3  N   UNL     1       5.563   4.540  19.096  0.00  0.00    +0.000 NA
ATOM      4  C   UNL     1       6.299   5.005  18.112  0.00  0.00    +0.000 A 
ATOM      5  C   UNL     1       7.439   5.941  18.365  0.00  0.00    +0.000 C 
ATOM      6  C   UNL     1       5.946   4.675  16.754  0.00  0.00    +0.000 A 
ATOM      7  C   UNL     1       6.562   4.817  15.533  0.00  0.00    +0.000 A 
ATOM      8  C   UNL     1       7.897   5.221  15.051  0.00  0.00    +0.000 C 
ATOM      9  O   UNL     1       5.681   4.429  14.562  0.00  0.00    +0.000 OA
ATOM     10  N   UNL     1       4.516   3.953  15.153  0.00  0.00    +0.000 NA
ATOM     11  C   UNL     1       4.728   4.051  16.471  0.00  0.00    +0.000 A 
ATOM     12  C   UNL     1       3.847   3.600  17.529  0.00  0.00    +0.000 A 
ATOM     13  O   UNL     1       2.719   3.161  17.307  0.00  0.00    +0.000 OA
ENDBRANCH   1   2
BRANCH   1  14
ATOM     14  N   UNL     1       2.069   4.227  19.810  0.00  0.00    +0.000 NA
BRANCH  14  16
ATOM     15  C   UNL     1       1.523   2.548  21.715  0.00  0.00    +0.000 C 
ATOM     16  C   UNL     1       1.077   3.296  20.448  0.00  0.00    +0.000 C 
ENDBRANCH  14  16
BRANCH  14  17
ATOM     17  C   UNL     1       2.082   5.486  20.625  0.00  0.00    +0.000 C 
BRANCH  17  18
ATOM     18  C   UNL     1       2.211   6.883  19.976  0.00  0.00    +0.000 A 
ATOM     19  C   UNL     1       2.676   6.976  18.643  0.00  0.00    +0.000 A 
ATOM     20  C   UNL     1       2.409   8.099  17.853  0.00  0.00    +0.000 A 
ATOM     21  C   UNL     1       1.656   9.149  18.351  0.00  0.00    +0.000 A 
ATOM     22  C   UNL     1       1.243   9.131  19.685  0.00  0.00    +0.000 A 
ATOM     23  C   UNL     1       0.309  10.207  20.162  0.00  0.00    +0.000 C 
ATOM     24  C   UNL     1       1.555   8.008  20.505  0.00  0.00    +0.000 A 
ENDBRANCH  17  18
ENDBRANCH  14  17
ENDBRANCH   1  14
TORSDOF 5
ENDMDL
MODEL 7
REMARK VINA RESULT:      -7.3      3.222      7.284
REMARK  Name = 
REMARK  9 active torsions:
REMARK  status: ('A' for Active; 'I' for Inactive)
REMARK    1  A    between atoms: C_1  and  C_2
REMARK    2  A    between atoms: C_2  and  N_3
REMARK    3  A    between atoms: N_3  and  C_4
REMARK    4  A    between atoms: N_3  and  C_12
REMARK    5  A    between atoms: C_4  and  C_5
REMARK    6  A    between atoms: C_9  and  C_10
REMARK    7  A    between atoms: C_12  and  N_13
REMARK    8  A    between atoms: C_15  and  C_16
REMARK    9  A    between atoms: C_18  and  C_19
REMARK                            x       y       z     vdW  Elec       q    Type
REMARK                         _______ _______ _______ _____ _____    ______ ____
ROOT
ATOM      1  C   UNL     1       2.823   3.605  18.605  0.00  0.00    +0.000 C 
ENDROOT
BRANCH   1   2
ATOM      2  N   UNL     1       3.879   4.635  18.517  0.00  0.00    +0.000 N 
ATOM      3  N   UNL     1       3.899   5.493  17.369  0.00  0.00    +0.000 NA
ATOM      4  C   UNL     1       4.972   6.183  17.050  0.00  0.00    +0.000 A 
ATOM      5  C   UNL     1       5.031   6.997  15.796  0.00  0.00    +0.000 C 
ATOM      6  C   UNL     1       6.145   6.082  17.881  0.00  0.00    +0.000 A 
ATOM      7  C   UNL     1       7.333   6.767  17.963  0.00  0.00    +0.000 A 
ATOM      8  C   UNL     1       7.904   7.991  17.367  0.00  0.00    +0.000 C 
ATOM      9  O   UNL     1       8.130   6.134  18.876  0.00  0.00    +0.000 OA
ATOM     10  N   UNL     1       7.431   5.080  19.454  0.00  0.00    +0.000 NA
ATOM     11  C   UNL     1       6.219   5.112  18.885  0.00  0.00    +0.000 A 
ATOM     12  C   UNL     1       5.084   4.273  19.210  0.00  0.00    +0.000 A 
ATOM     13  O   UNL     1       5.162   3.334  20.002  0.00  0.00    +0.000 OA
ENDBRANCH   1   2
BRANCH   1  14
ATOM     14  N   UNL     1       1.594   3.856  19.434  0.00  0.00    +0.000 NA
BRANCH  14  16
ATOM     15  C   UNL     1       1.671   2.642  21.729  0.00  0.00    +0.000 C 
ATOM     16  C   UNL     1       1.347   2.604  20.226  0.00  0.00    +0.000 C 
ENDBRANCH  14  16
BRANCH  14  17
ATOM     17  C   UNL     1       1.891   4.950  20.416  0.00  0.00    +0.000 C 
BRANCH  17  18
ATOM     18  C   UNL     1       1.396   6.399  20.208  0.00  0.00    +0.000 A 
ATOM     19  C   UNL     1       1.000   7.154  21.338  0.00  0.00    +0.000 A 
ATOM     20  C   UNL     1       0.973   8.552  21.308  0.00  0.00    +0.000 A 
ATOM     21  C   UNL     1       1.357   9.242  20.170  0.00  0.00    +0.000 A 
ATOM     22  C   UNL     1       1.680   8.535  19.011  0.00  0.00    +0.000 A 
ATOM     23  C   UNL     1       2.229   9.294  17.836  0.00  0.00    +0.000 C 
ATOM     24  C   UNL     1       1.663   7.110  19.025  0.00  0.00    +0.000 A 
ENDBRANCH  17  18
ENDBRANCH  14  17
ENDBRANCH   1  14
TORSDOF 5
ENDMDL
MODEL 8
REMARK VINA RESULT:      -7.3      4.955      8.402
REMARK  Name = 
REMARK  9 active torsions:
REMARK  status: ('A' for Active; 'I' for Inactive)
REMARK    1  A    between atoms: C_1  and  C_2
REMARK    2  A    between atoms: C_2  and  N_3
REMARK    3  A    between atoms: N_3  and  C_4
REMARK    4  A    between atoms: N_3  and  C_12
REMARK    5  A    between atoms: C_4  and  C_5
REMARK    6  A    between atoms: C_9  and  C_10
REMARK    7  A    between atoms: C_12  and  N_13
REMARK    8  A    between atoms: C_15  and  C_16
REMARK    9  A    between atoms: C_18  and  C_19
REMARK                            x       y       z     vdW  Elec       q    Type
REMARK                         _______ _______ _______ _____ _____    ______ ____
ROOT
ATOM      1  C   UNL     1       1.564   8.680  20.444  0.00  0.00    +0.000 C 
ENDROOT
BRANCH   1   2
ATOM      2  N   UNL     1       1.732   7.322  19.886  0.00  0.00    +0.000 N 
ATOM      3  N   UNL     1       1.608   6.201  20.770  0.00  0.00    +0.000 NA
ATOM      4  C   UNL     1       2.070   5.016  20.442  0.00  0.00    +0.000 A 
ATOM      5  C   UNL     1       2.036   3.871  21.404  0.00  0.00    +0.000 C 
ATOM      6  C   UNL     1       2.703   4.840  19.159  0.00  0.00    +0.000 A 
ATOM      7  C   UNL     1       3.119   3.754  18.427  0.00  0.00    +0.000 A 
ATOM      8  C   UNL     1       2.987   2.287  18.523  0.00  0.00    +0.000 C 
ATOM      9  O   UNL     1       3.776   4.211  17.318  0.00  0.00    +0.000 OA
ATOM     10  N   UNL     1       3.718   5.600  17.281  0.00  0.00    +0.000 NA
ATOM     11  C   UNL     1       3.012   5.948  18.365  0.00  0.00    +0.000 A 
ATOM     12  C   UNL     1       2.592   7.284  18.736  0.00  0.00    +0.000 A 
ATOM     13  O   UNL     1       2.955   8.286  18.120  0.00  0.00    +0.000 OA
ENDBRANCH   1   2
BRANCH   1  14
ATOM     14  N   UNL     1       0.226   9.362  20.375  0.00  0.00    +0.000 NA
BRANCH  14  16
ATOM     15  C   UNL     1      -0.192   9.400  22.938  0.00  0.00    +0.000 C 
ATOM     16  C   UNL     1       0.089  10.168  21.635  0.00  0.00    +0.000 C 
ENDBRANCH  14  16
BRANCH  14  17
ATOM     17  C   UNL     1       0.239  10.331  19.230  0.00  0.00    +0.000 C 
BRANCH  17  18
ATOM     18  C   UNL     1      -1.044  10.700  18.451  0.00  0.00    +0.000 A 
ATOM     19  C   UNL     1      -1.444   9.880  17.369  0.00  0.00    +0.000 A 
ATOM     20  C   UNL     1      -2.767   9.867  16.914  0.00  0.00    +0.000 A 
ATOM     21  C   UNL     1      -3.734  10.644  17.529  0.00  0.00    +0.000 A 
ATOM     22  C   UNL     1      -3.365  11.524  18.550  0.00  0.00    +0.000 A 
ATOM     23  C   UNL     1      -4.447  12.249  19.298  0.00  0.00    +0.000 C 
ATOM     24  C   UNL     1      -2.009  11.573  18.983  0.00  0.00    +0.000 A 
ENDBRANCH  17  18
ENDBRANCH  14  17
ENDBRANCH   1  14
TORSDOF 5
ENDMDL
MODEL 9
REMARK VINA RESULT:      -7.3      3.680      6.210
REMARK  Name = 
REMARK  9 active torsions:
REMARK  status: ('A' for Active; 'I' for Inactive)
REMARK    1  A    between atoms: C_1  and  C_2
REMARK    2  A    between atoms: C_2  and  N_3
REMARK    3  A    between atoms: N_3  and  C_4
REMARK    4  A    between atoms: N_3  and  C_12
REMARK    5  A    between atoms: C_4  and  C_5
REMARK    6  A    between atoms: C_9  and  C_10
REMARK    7  A    between atoms: C_12  and  N_13
REMARK    8  A    between atoms: C_15  and  C_16
REMARK    9  A    between atoms: C_18  and  C_19
REMARK                            x       y       z     vdW  Elec       q    Type
REMARK                         _______ _______ _______ _____ _____    ______ ____
ROOT
ATOM      1  C   UNL     1       2.329   6.665  19.018  0.00  0.00    +0.000 C 
ENDROOT
BRANCH   1   2
ATOM      2  N   UNL     1       1.973   7.973  19.604  0.00  0.00    +0.000 N 
ATOM      3  N   UNL     1       1.300   7.994  20.869  0.00  0.00    +0.000 NA
ATOM      4  C   UNL     1       0.657   9.062  21.285  0.00  0.00    +0.000 A 
ATOM      5  C   UNL     1      -0.134   9.051  22.555  0.00  0.00    +0.000 C 
ATOM      6  C   UNL     1       0.641  10.240  20.455  0.00  0.00    +0.000 A 
ATOM      7  C   UNL     1       0.250  11.545  20.635  0.00  0.00    +0.000 A 
ATOM      8  C   UNL     1      -0.186  12.382  21.770  0.00  0.00    +0.000 C 
ATOM      9  O   UNL     1       0.355  12.193  19.436  0.00  0.00    +0.000 OA
ATOM     10  N   UNL     1       0.895  11.332  18.487  0.00  0.00    +0.000 NA
ATOM     11  C   UNL     1       1.118  10.186  19.142  0.00  0.00    +0.000 A 
ATOM     12  C   UNL     1       1.757   8.997  18.619  0.00  0.00    +0.000 A 
ATOM     13  O   UNL     1       2.074   8.883  17.435  0.00  0.00    +0.000 OA
ENDBRANCH   1   2
BRANCH   1  14
ATOM     14  N   UNL     1       2.896   5.579  19.890  0.00  0.00    +0.000 NA
BRANCH  14  16
ATOM     15  C   UNL     1       1.036   3.794  20.213  0.00  0.00    +0.000 C 
ATOM     16  C   UNL     1       1.758   5.055  20.719  0.00  0.00    +0.000 C 
ENDBRANCH  14  16
BRANCH  14  17
ATOM     17  C   UNL     1       3.361   4.453  19.015  0.00  0.00    +0.000 C 
BRANCH  17  18
ATOM     18  C   UNL     1       4.783   4.415  18.410  0.00  0.00    +0.000 A 
ATOM     19  C   UNL     1       4.944   3.972  17.076  0.00  0.00    +0.000 A 
ATOM     20  C   UNL     1       6.073   4.316  16.324  0.00  0.00    +0.000 A 
ATOM     21  C   UNL     1       7.061   5.124  16.862  0.00  0.00    +0.000 A 
ATOM     22  C   UNL     1       6.976   5.519  18.199  0.00  0.00    +0.000 A 
ATOM     23  C   UNL     1       7.979   6.510  18.719  0.00  0.00    +0.000 C 
ATOM     24  C   UNL     1       5.850   5.131  18.980  0.00  0.00    +0.000 A 
ENDBRANCH  17  18
ENDBRANCH  14  17
ENDBRANCH   1  14
TORSDOF 5
ENDMDL
