MODEL 1
REMARK VINA RESULT:      -7.6      0.000      0.000
REMARK  Name = 
REMARK  12 active torsions:
REMARK  status: ('A' for Active; 'I' for Inactive)
REMARK    1  A    between atoms: C_1  and  O_2
REMARK    2  A    between atoms: O_2  and  C_3
REMARK    3  A    between atoms: C_6  and  C_7
REMARK    4  A    between atoms: N_8  and  N_9
REMARK    5  A    between atoms: N_9  and  C_10
REMARK    6  A    between atoms: C_10  and  N_12
REMARK    7  A    between atoms: N_12  and  C_13
REMARK    8  A    between atoms: C_14  and  C_15
REMARK    9  A    between atoms: N_16  and  C_17
REMARK   10  A    between atoms: N_18  and  C_19
REMARK   11  A    between atoms: C_28  and  O_29
REMARK   12  A    between atoms: O_29  and  C_30
REMARK                            x       y       z     vdW  Elec       q    Type
REMARK                         _______ _______ _______ _____ _____    ______ ____
ROOT
ATOM      1  C   UNL     1       7.095   6.960  17.607  0.00  0.00    +0.000 C 
ATOM      2  S   UNL     1       7.828   6.081  18.825  0.00  0.00    +0.000 S 
ENDROOT
BRANCH   1   3
ATOM      3  N   UNL     1       7.585   8.116  17.038  0.00  0.00    +0.000 N 
ATOM      4  H   UNL     1       7.292   8.355  16.102  0.00  0.00    +0.000 HD
BRANCH   3   6
ATOM      5  C   UNL     1       8.280   9.901  18.203  0.00  0.00    +0.000 C 
ATOM      6  N   UNL     1       8.605   8.801  17.608  0.00  0.00    +0.000 NA
BRANCH   5  10
ATOM      7  C   UNL     1      11.183  12.721  19.556  0.00  0.00    +0.000 A 
ATOM      8  C   UNL     1      11.231  12.222  18.245  0.00  0.00    +0.000 A 
ATOM      9  C   UNL     1      10.298  11.287  17.806  0.00  0.00    +0.000 A 
ATOM     10  C   UNL     1       9.326  10.817  18.686  0.00  0.00    +0.000 A 
ATOM     11  C   UNL     1       9.300  11.257  20.006  0.00  0.00    +0.000 A 
ATOM     12  C   UNL     1      10.234  12.203  20.457  0.00  0.00    +0.000 A 
BRANCH   7  14
ATOM     13  C   UNL     1      12.045  14.909  19.249  0.00  0.00    +0.000 C 
ATOM     14  O   UNL     1      12.063  13.683  19.977  0.00  0.00    +0.000 OA
ENDBRANCH   7  14
BRANCH  12  15
ATOM     15  O   UNL     1      10.046  12.511  21.779  0.00  0.00    +0.000 OA
ATOM     16  C   UNL     1       9.280  13.655  22.118  0.00  0.00    +0.000 C 
ENDBRANCH  12  15
ENDBRANCH   5  10
ENDBRANCH   3   6
ENDBRANCH   1   3
BRANCH   1  17
ATOM     17  N   UNL     1       5.853   6.595  17.165  0.00  0.00    +0.000 N 
ATOM     18  H   UNL     1       5.278   7.355  16.808  0.00  0.00    +0.000 HD
BRANCH  17  19
ATOM     19  C   UNL     1       5.150   5.452  17.450  0.00  0.00    +0.000 A 
ATOM     20  C   UNL     1       5.097   4.219  16.903  0.00  0.00    +0.000 A 
ATOM     21  C   UNL     1       5.822   3.688  15.701  0.00  0.00    +0.000 C 
ATOM     22  N   UNL     1       4.367   3.327  17.703  0.00  0.00    +0.000 N 
ATOM     23  C   UNL     1       3.628   2.177  17.192  0.00  0.00    +0.000 C 
ATOM     24  N   UNL     1       3.786   4.098  18.730  0.00  0.00    +0.000 N 
ATOM     25  C   UNL     1       4.251   5.403  18.653  0.00  0.00    +0.000 A 
ATOM     26  O   UNL     1       4.019   6.367  19.363  0.00  0.00    +0.000 OA
BRANCH  24  27
ATOM     27  C   UNL     1       2.867   3.587  19.655  0.00  0.00    +0.000 A 
ATOM     28  C   UNL     1       3.323   2.843  20.747  0.00  0.00    +0.000 A 
ATOM     29  C   UNL     1       2.421   2.401  21.716  0.00  0.00    +0.000 A 
ATOM     30  C   UNL     1       1.057   2.652  21.566  0.00  0.00    +0.000 A 
ATOM     31  C   UNL     1       0.594   3.359  20.456  0.00  0.00    +0.000 A 
ATOM     32  C   UNL     1       1.499   3.843  19.512  0.00  0.00    +0.000 A 
ENDBRANCH  24  27
ENDBRANCH  17  19
ENDBRANCH   1  17
TORSDOF 8
ENDMDL
MODEL 2
REMARK VINA RESULT:      -7.5      5.060      8.005
REMARK  Name = 
REMARK  12 active torsions:
REMARK  status: ('A' for Active; 'I' for Inactive)
REMARK    1  A    between atoms: C_1  and  O_2
REMARK    2  A    between atoms: O_2  and  C_3
REMARK    3  A    between atoms: C_6  and  C_7
REMARK    4  A    between atoms: N_8  and  N_9
REMARK    5  A    between atoms: N_9  and  C_10
REMARK    6  A    between atoms: C_10  and  N_12
REMARK    7  A    between atoms: N_12  and  C_13
REMARK    8  A    between atoms: C_14  and  C_15
REMARK    9  A    between atoms: N_16  and  C_17
REMARK   10  A    between atoms: N_18  and  C_19
REMARK   11  A    between atoms: C_28  and  O_29
REMARK   12  A    between atoms: O_29  and  C_30
REMARK                            x       y       z     vdW  Elec       q    Type
REMARK                         _______ _______ _______ _____ _____    ______ ____
ROOT
ATOM      1  C   UNL     1       2.224   5.129  20.478  0.00  0.00    +0.000 C 
ATOM      2  S   UNL     1       0.858   4.268  20.047  0.00  0.00    +0.000 S 
ENDROOT
BRANCH   1   3
ATOM      3  N   UNL     1       3.517   4.654  20.459  0.00  0.00    +0.000 N 
ATOM      4  H   UNL     1       3.866   4.169  21.273  0.00  0.00    +0.000 HD
BRANCH   3   6
ATOM      5  C   UNL     1       4.236   4.413  18.348  0.00  0.00    +0.000 C 
ATOM      6  N   UNL     1       4.384   5.015  19.482  0.00  0.00    +0.000 NA
BRANCH   5  10
ATOM      7  C   UNL     1       7.004   5.047  15.163  0.00  0.00    +0.000 A 
ATOM      8  C   UNL     1       6.129   3.950  15.139  0.00  0.00    +0.000 A 
ATOM      9  C   UNL     1       5.238   3.728  16.186  0.00  0.00    +0.000 A 
ATOM     10  C   UNL     1       5.237   4.585  17.284  0.00  0.00    +0.000 A 
ATOM     11  C   UNL     1       6.139   5.644  17.350  0.00  0.00    +0.000 A 
ATOM     12  C   UNL     1       7.037   5.878  16.298  0.00  0.00    +0.000 A 
BRANCH   7  14
ATOM     13  C   UNL     1       7.394   4.861  12.831  0.00  0.00    +0.000 C 
ATOM     14  O   UNL     1       7.843   5.303  14.111  0.00  0.00    +0.000 OA
ENDBRANCH   7  14
BRANCH  12  15
ATOM     15  O   UNL     1       7.838   6.962  16.547  0.00  0.00    +0.000 OA
ATOM     16  C   UNL     1       7.468   7.871  17.571  0.00  0.00    +0.000 C 
ENDBRANCH  12  15
ENDBRANCH   5  10
ENDBRANCH   3   6
ENDBRANCH   1   3
BRANCH   1  17
ATOM     17  N   UNL     1       2.092   6.390  20.990  0.00  0.00    +0.000 N 
ATOM     18  H   UNL     1       1.911   6.436  21.991  0.00  0.00    +0.000 HD
BRANCH  17  19
ATOM     19  C   UNL     1       1.821   7.557  20.322  0.00  0.00    +0.000 A 
ATOM     20  C   UNL     1       2.071   8.007  19.074  0.00  0.00    +0.000 A 
ATOM     21  C   UNL     1       2.813   7.330  17.959  0.00  0.00    +0.000 C 
ATOM     22  N   UNL     1       1.392   9.204  18.808  0.00  0.00    +0.000 N 
ATOM     23  C   UNL     1       1.859  10.230  17.880  0.00  0.00    +0.000 C 
ATOM     24  N   UNL     1       0.814   9.614  20.027  0.00  0.00    +0.000 N 
ATOM     25  C   UNL     1       1.011   8.633  20.988  0.00  0.00    +0.000 A 
ATOM     26  O   UNL     1       0.648   8.583  22.152  0.00  0.00    +0.000 OA
BRANCH  24  27
ATOM     27  C   UNL     1       0.165  10.843  20.201  0.00  0.00    +0.000 A 
ATOM     28  C   UNL     1       0.838  11.901  20.818  0.00  0.00    +0.000 A 
ATOM     29  C   UNL     1       0.227  13.152  20.920  0.00  0.00    +0.000 A 
ATOM     30  C   UNL     1      -1.076  13.332  20.457  0.00  0.00    +0.000 A 
ATOM     31  C   UNL     1      -1.765  12.268  19.876  0.00  0.00    +0.000 A 
ATOM     32  C   UNL     1      -1.139  11.029  19.730  0.00  0.00    +0.000 A 
ENDBRANCH  24  27
ENDBRANCH  17  19
ENDBRANCH   1  17
TORSDOF 8
ENDMDL
MODEL 3
REMARK VINA RESULT:      -7.5      0.829      1.729
REMARK  Name = 
REMARK  12 active torsions:
REMARK  status: ('A' for Active; 'I' for Inactive)
REMARK    1  A    between atoms: C_1  and  O_2
REMARK    2  A    between atoms: O_2  and  C_3
REMARK    3  A    between atoms: C_6  and  C_7
REMARK    4  A    between atoms: N_8  and  N_9
REMARK    5  A    between atoms: N_9  and  C_10
REMARK    6  A    between atoms: C_10  and  N_12
REMARK    7  A    between atoms: N_12  and  C_13
REMARK    8  A    between atoms: C_14  and  C_15
REMARK    9  A    between atoms: N_16  and  C_17
REMARK   10  A    between atoms: N_18  and  C_19
REMARK   11  A    between atoms: C_28  and  O_29
REMARK   12  A    between atoms: O_29  and  C_30
REMARK                            x       y       z     vdW  Elec       q    Type
REMARK                         _______ _______ _______ _____ _____    ______ ____
ROOT
ATOM      1  C   UNL     1       7.335   6.849  17.801  0.00  0.00    +0.000 C 
ATOM      2  S   UNL     1       7.937   5.897  19.036  0.00  0.00    +0.000 S 
ENDROOT
BRANCH   1   3
ATOM      3  N   UNL     1       7.896   8.019  17.337  0.00  0.00    +0.000 N 
ATOM      4  H   UNL     1       8.069   8.112  16.346  0.00  0.00    +0.000 HD
BRANCH   3   6
ATOM      5  C   UNL     1       8.433  10.154  17.764  0.00  0.00    +0.000 C 
ATOM      6  N   UNL     1       8.418   8.933  18.189  0.00  0.00    +0.000 NA
BRANCH   5  10
ATOM      7  C   UNL     1      10.680  13.037  19.966  0.00  0.00    +0.000 A 
ATOM      8  C   UNL     1       9.839  12.130  20.630  0.00  0.00    +0.000 A 
ATOM      9  C   UNL     1       9.089  11.202  19.914  0.00  0.00    +0.000 A 
ATOM     10  C   UNL     1       9.149  11.192  18.522  0.00  0.00    +0.000 A 
ATOM     11  C   UNL     1       9.932  12.123  17.846  0.00  0.00    +0.000 A 
ATOM     12  C   UNL     1      10.695  13.061  18.559  0.00  0.00    +0.000 A 
BRANCH   7  14
ATOM     13  C   UNL     1      10.889  15.196  20.926  0.00  0.00    +0.000 C 
ATOM     14  O   UNL     1      11.463  13.915  20.667  0.00  0.00    +0.000 OA
ENDBRANCH   7  14
BRANCH  12  15
ATOM     15  O   UNL     1      11.398  13.886  17.721  0.00  0.00    +0.000 OA
ATOM     16  C   UNL     1      11.465  13.568  16.340  0.00  0.00    +0.000 C 
ENDBRANCH  12  15
ENDBRANCH   5  10
ENDBRANCH   3   6
ENDBRANCH   1   3
BRANCH   1  17
ATOM     17  N   UNL     1       6.133   6.533  17.231  0.00  0.00    +0.000 N 
ATOM     18  H   UNL     1       5.642   7.309  16.792  0.00  0.00    +0.000 HD
BRANCH  17  19
ATOM     19  C   UNL     1       5.342   5.436  17.462  0.00  0.00    +0.000 A 
ATOM     20  C   UNL     1       5.183   4.244  16.848  0.00  0.00    +0.000 A 
ATOM     21  C   UNL     1       5.849   3.726  15.607  0.00  0.00    +0.000 C 
ATOM     22  N   UNL     1       4.393   3.370  17.608  0.00  0.00    +0.000 N 
ATOM     23  C   UNL     1       3.556   2.314  17.046  0.00  0.00    +0.000 C 
ATOM     24  N   UNL     1       3.888   4.125  18.687  0.00  0.00    +0.000 N 
ATOM     25  C   UNL     1       4.457   5.390  18.675  0.00  0.00    +0.000 A 
ATOM     26  O   UNL     1       4.313   6.328  19.442  0.00  0.00    +0.000 OA
BRANCH  24  27
ATOM     27  C   UNL     1       2.941   3.637  19.597  0.00  0.00    +0.000 A 
ATOM     28  C   UNL     1       3.352   2.823  20.656  0.00  0.00    +0.000 A 
ATOM     29  C   UNL     1       2.428   2.401  21.612  0.00  0.00    +0.000 A 
ATOM     30  C   UNL     1       1.082   2.745  21.480  0.00  0.00    +0.000 A 
ATOM     31  C   UNL     1       0.661   3.523  20.402  0.00  0.00    +0.000 A 
ATOM     32  C   UNL     1       1.593   3.985  19.471  0.00  0.00    +0.000 A 
ENDBRANCH  24  27
ENDBRANCH  17  19
ENDBRANCH   1  17
TORSDOF 8
ENDMDL
MODEL 4
REMARK VINA RESULT:      -7.4      1.319      1.792
REMARK  Name = 
REMARK  12 active torsions:
REMARK  status: ('A' for Active; 'I' for Inactive)
REMARK    1  A    between atoms: C_1  and  O_2
REMARK    2  A    between atoms: O_2  and  C_3
REMARK    3  A    between atoms: C_6  and  C_7
REMARK    4  A    between atoms: N_8  and  N_9
REMARK    5  A    between atoms: N_9  and  C_10
REMARK    6  A    between atoms: C_10  and  N_12
REMARK    7  A    between atoms: N_12  and  C_13
REMARK    8  A    between atoms: C_14  and  C_15
REMARK    9  A    between atoms: N_16  and  C_17
REMARK   10  A    between atoms: N_18  and  C_19
REMARK   11  A    between atoms: C_28  and  O_29
REMARK   12  A    between atoms: O_29  and  C_30
REMARK                            x       y       z     vdW  Elec       q    Type
REMARK                         _______ _______ _______ _____ _____    ______ ____
ROOT
ATOM      1  C   UNL     1       7.281   6.936  17.623  0.00  0.00    +0.000 C 
ATOM      2  S   UNL     1       7.889   6.076  18.921  0.00  0.00    +0.000 S 
ENDROOT
BRANCH   1   3
ATOM      3  N   UNL     1       7.803   8.104  17.112  0.00  0.00    +0.000 N 
ATOM      4  H   UNL     1       8.308   8.066  16.238  0.00  0.00    +0.000 HD
BRANCH   3   6
ATOM      5  C   UNL     1       8.938   9.928  17.756  0.00  0.00    +0.000 C 
ATOM      6  N   UNL     1       7.851   9.236  17.855  0.00  0.00    +0.000 NA
BRANCH   5  10
ATOM      7  C   UNL     1       9.807  13.265  20.268  0.00  0.00    +0.000 A 
ATOM      8  C   UNL     1      10.167  11.966  20.659  0.00  0.00    +0.000 A 
ATOM      9  C   UNL     1       9.867  10.873  19.852  0.00  0.00    +0.000 A 
ATOM     10  C   UNL     1       9.175  11.065  18.658  0.00  0.00    +0.000 A 
ATOM     11  C   UNL     1       8.759  12.340  18.284  0.00  0.00    +0.000 A 
ATOM     12  C   UNL     1       9.060  13.450  19.090  0.00  0.00    +0.000 A 
BRANCH   7  14
ATOM     13  C   UNL     1      11.233  15.141  20.544  0.00  0.00    +0.000 C 
ATOM     14  O   UNL     1      10.149  14.351  21.030  0.00  0.00    +0.000 OA
ENDBRANCH   7  14
BRANCH  12  15
ATOM     15  O   UNL     1       8.571  14.612  18.555  0.00  0.00    +0.000 OA
ATOM     16  C   UNL     1       7.317  14.592  17.893  0.00  0.00    +0.000 C 
ENDBRANCH  12  15
ENDBRANCH   5  10
ENDBRANCH   3   6
ENDBRANCH   1   3
BRANCH   1  17
ATOM     17  N   UNL     1       6.110   6.538  17.040  0.00  0.00    +0.000 N 
ATOM     18  H   UNL     1       5.620   7.258  16.512  0.00  0.00    +0.000 HD
BRANCH  17  19
ATOM     19  C   UNL     1       5.334   5.448  17.344  0.00  0.00    +0.000 A 
ATOM     20  C   UNL     1       5.176   4.224  16.797  0.00  0.00    +0.000 A 
ATOM     21  C   UNL     1       5.824   3.646  15.573  0.00  0.00    +0.000 C 
ATOM     22  N   UNL     1       4.408   3.385  17.617  0.00  0.00    +0.000 N 
ATOM     23  C   UNL     1       3.572   2.293  17.127  0.00  0.00    +0.000 C 
ATOM     24  N   UNL     1       3.914   4.191  18.663  0.00  0.00    +0.000 N 
ATOM     25  C   UNL     1       4.471   5.459  18.574  0.00  0.00    +0.000 A 
ATOM     26  O   UNL     1       4.331   6.435  19.292  0.00  0.00    +0.000 OA
BRANCH  24  27
ATOM     27  C   UNL     1       2.989   3.744  19.614  0.00  0.00    +0.000 A 
ATOM     28  C   UNL     1       1.640   4.082  19.482  0.00  0.00    +0.000 A 
ATOM     29  C   UNL     1       0.701   3.571  20.380  0.00  0.00    +0.000 A 
ATOM     30  C   UNL     1       1.116   2.769  21.443  0.00  0.00    +0.000 A 
ATOM     31  C   UNL     1       2.468   2.463  21.601  0.00  0.00    +0.000 A 
ATOM     32  C   UNL     1       3.401   2.933  20.677  0.00  0.00    +0.000 A 
ENDBRANCH  24  27
ENDBRANCH  17  19
ENDBRANCH   1  17
TORSDOF 8
ENDMDL
MODEL 5
REMARK VINA RESULT:      -7.4      1.870      2.593
REMARK  Name = 
REMARK  12 active torsions:
REMARK  status: ('A' for Active; 'I' for Inactive)
REMARK    1  A    between atoms: C_1  and  O_2
REMARK    2  A    between atoms: O_2  and  C_3
REMARK    3  A    between atoms: C_6  and  C_7
REMARK    4  A    between atoms: N_8  and  N_9
REMARK    5  A    between atoms: N_9  and  C_10
REMARK    6  A    between atoms: C_10  and  N_12
REMARK    7  A    between atoms: N_12  and  C_13
REMARK    8  A    between atoms: C_14  and  C_15
REMARK    9  A    between atoms: N_16  and  C_17
REMARK   10  A    between atoms: N_18  and  C_19
REMARK   11  A    between atoms: C_28  and  O_29
REMARK   12  A    between atoms: O_29  and  C_30
REMARK                            x       y       z     vdW  Elec       q    Type
REMARK                         _______ _______ _______ _____ _____    ______ ____
ROOT
ATOM      1  C   UNL     1       6.427   6.242  16.425  0.00  0.00    +0.000 C 
ATOM      2  S   UNL     1       6.964   5.070  15.361  0.00  0.00    +0.000 S 
ENDROOT
BRANCH   1   3
ATOM      3  N   UNL     1       7.167   6.814  17.437  0.00  0.00    +0.000 N 
ATOM      4  H   UNL     1       7.295   6.297  18.294  0.00  0.00    +0.000 HD
BRANCH   3   6
ATOM      5  C   UNL     1       8.395   8.495  18.272  0.00  0.00    +0.000 C 
ATOM      6  N   UNL     1       7.525   8.120  17.392  0.00  0.00    +0.000 NA
BRANCH   5  10
ATOM      7  C   UNL     1       9.122  12.658  18.859  0.00  0.00    +0.000 A 
ATOM      8  C   UNL     1       8.540  12.198  17.667  0.00  0.00    +0.000 A 
ATOM      9  C   UNL     1       8.319  10.839  17.464  0.00  0.00    +0.000 A 
ATOM     10  C   UNL     1       8.709   9.922  18.438  0.00  0.00    +0.000 A 
ATOM     11  C   UNL     1       9.342  10.358  19.600  0.00  0.00    +0.000 A 
ATOM     12  C   UNL     1       9.565  11.727  19.816  0.00  0.00    +0.000 A 
BRANCH   7  14
ATOM     13  C   UNL     1      10.165  14.682  18.195  0.00  0.00    +0.000 C 
ATOM     14  O   UNL     1       9.290  13.998  19.089  0.00  0.00    +0.000 OA
ENDBRANCH   7  14
BRANCH  12  15
ATOM     15  O   UNL     1      10.194  11.955  21.011  0.00  0.00    +0.000 OA
ATOM     16  C   UNL     1       9.429  12.404  22.118  0.00  0.00    +0.000 C 
ENDBRANCH  12  15
ENDBRANCH   5  10
ENDBRANCH   3   6
ENDBRANCH   1   3
BRANCH   1  17
ATOM     17  N   UNL     1       5.117   6.634  16.391  0.00  0.00    +0.000 N 
ATOM     18  H   UNL     1       4.883   7.306  15.664  0.00  0.00    +0.000 HD
BRANCH  17  19
ATOM     19  C   UNL     1       4.173   6.536  17.382  0.00  0.00    +0.000 A 
ATOM     20  C   UNL     1       3.292   7.399  17.931  0.00  0.00    +0.000 A 
ATOM     21  C   UNL     1       3.082   8.853  17.626  0.00  0.00    +0.000 C 
ATOM     22  N   UNL     1       2.386   6.747  18.780  0.00  0.00    +0.000 N 
ATOM     23  C   UNL     1       1.742   7.368  19.933  0.00  0.00    +0.000 C 
ATOM     24  N   UNL     1       2.838   5.416  18.898  0.00  0.00    +0.000 N 
ATOM     25  C   UNL     1       3.910   5.212  18.042  0.00  0.00    +0.000 A 
ATOM     26  O   UNL     1       4.564   4.206  17.821  0.00  0.00    +0.000 OA
BRANCH  24  27
ATOM     27  C   UNL     1       2.272   4.483  19.776  0.00  0.00    +0.000 A 
ATOM     28  C   UNL     1       1.153   3.747  19.378  0.00  0.00    +0.000 A 
ATOM     29  C   UNL     1       0.635   2.757  20.215  0.00  0.00    +0.000 A 
ATOM     30  C   UNL     1       1.199   2.541  21.472  0.00  0.00    +0.000 A 
ATOM     31  C   UNL     1       2.292   3.301  21.888  0.00  0.00    +0.000 A 
ATOM     32  C   UNL     1       2.841   4.258  21.034  0.00  0.00    +0.000 A 
ENDBRANCH  24  27
ENDBRANCH  17  19
ENDBRANCH   1  17
TORSDOF 8
ENDMDL
MODEL 6
REMARK VINA RESULT:      -7.2      6.880     10.040
REMARK  Name = 
REMARK  12 active torsions:
REMARK  status: ('A' for Active; 'I' for Inactive)
REMARK    1  A    between atoms: C_1  and  O_2
REMARK    2  A    between atoms: O_2  and  C_3
REMARK    3  A    between atoms: C_6  and  C_7
REMARK    4  A    between atoms: N_8  and  N_9
REMARK    5  A    between atoms: N_9  and  C_10
REMARK    6  A    between atoms: C_10  and  N_12
REMARK    7  A    between atoms: N_12  and  C_13
REMARK    8  A    between atoms: C_14  and  C_15
REMARK    9  A    between atoms: N_16  and  C_17
REMARK   10  A    between atoms: N_18  and  C_19
REMARK   11  A    between atoms: C_28  and  O_29
REMARK   12  A    between atoms: O_29  and  C_30
REMARK                            x       y       z     vdW  Elec       q    Type
REMARK                         _______ _______ _______ _____ _____    ______ ____
ROOT
ATOM      1  C   UNL     1       1.544  10.798  18.174  0.00  0.00    +0.000 C 
ATOM      2  S   UNL     1       2.248  12.301  18.365  0.00  0.00    +0.000 S 
ENDROOT
BRANCH   1   3
ATOM      3  N   UNL     1       2.039   9.766  17.406  0.00  0.00    +0.000 N 
ATOM      4  H   UNL     1       2.134   9.908  16.411  0.00  0.00    +0.000 HD
BRANCH   3   6
ATOM      5  C   UNL     1       3.272   7.903  17.596  0.00  0.00    +0.000 C 
ATOM      6  N   UNL     1       2.181   8.518  17.914  0.00  0.00    +0.000 NA
BRANCH   5  10
ATOM      7  C   UNL     1       3.875   3.836  18.739  0.00  0.00    +0.000 A 
ATOM      8  C   UNL     1       4.742   4.455  17.825  0.00  0.00    +0.000 A 
ATOM      9  C   UNL     1       4.536   5.776  17.434  0.00  0.00    +0.000 A 
ATOM     10  C   UNL     1       3.442   6.480  17.930  0.00  0.00    +0.000 A 
ATOM     11  C   UNL     1       2.540   5.861  18.792  0.00  0.00    +0.000 A 
ATOM     12  C   UNL     1       2.741   4.532  19.195  0.00  0.00    +0.000 A 
BRANCH   7  14
ATOM     13  C   UNL     1       3.497   1.519  18.402  0.00  0.00    +0.000 C 
ATOM     14  O   UNL     1       4.104   2.556  19.171  0.00  0.00    +0.000 OA
ENDBRANCH   7  14
BRANCH  12  15
ATOM     15  O   UNL     1       1.752   4.104  20.042  0.00  0.00    +0.000 OA
ATOM     16  C   UNL     1       2.052   3.927  21.417  0.00  0.00    +0.000 C 
ENDBRANCH  12  15
ENDBRANCH   5  10
ENDBRANCH   3   6
ENDBRANCH   1   3
BRANCH   1  17
ATOM     17  N   UNL     1       0.321  10.550  18.733  0.00  0.00    +0.000 N 
ATOM     18  H   UNL     1      -0.462  10.545  18.082  0.00  0.00    +0.000 HD
BRANCH  17  19
ATOM     19  C   UNL     1      -0.053  10.658  20.049  0.00  0.00    +0.000 A 
ATOM     20  C   UNL     1       0.213   9.945  21.164  0.00  0.00    +0.000 A 
ATOM     21  C   UNL     1       1.033   8.697  21.312  0.00  0.00    +0.000 C 
ATOM     22  N   UNL     1      -0.243  10.596  22.318  0.00  0.00    +0.000 N 
ATOM     23  C   UNL     1      -0.662   9.915  23.540  0.00  0.00    +0.000 C 
ATOM     24  N   UNL     1      -0.991  11.708  21.879  0.00  0.00    +0.000 N 
ATOM     25  C   UNL     1      -0.887  11.823  20.501  0.00  0.00    +0.000 A 
ATOM     26  O   UNL     1      -1.354  12.655  19.740  0.00  0.00    +0.000 OA
BRANCH  24  27
ATOM     27  C   UNL     1      -1.728  12.533  22.739  0.00  0.00    +0.000 A 
ATOM     28  C   UNL     1      -3.057  12.217  23.033  0.00  0.00    +0.000 A 
ATOM     29  C   UNL     1      -3.771  12.987  23.952  0.00  0.00    +0.000 A 
ATOM     30  C   UNL     1      -3.176  14.107  24.535  0.00  0.00    +0.000 A 
ATOM     31  C   UNL     1      -1.863  14.449  24.212  0.00  0.00    +0.000 A 
ATOM     32  C   UNL     1      -1.133  13.652  23.330  0.00  0.00    +0.000 A 
ENDBRANCH  24  27
ENDBRANCH  17  19
ENDBRANCH   1  17
TORSDOF 8
ENDMDL
MODEL 7
REMARK VINA RESULT:      -7.1      4.828      7.820
REMARK  Name = 
REMARK  12 active torsions:
REMARK  status: ('A' for Active; 'I' for Inactive)
REMARK    1  A    between atoms: C_1  and  O_2
REMARK    2  A    between atoms: O_2  and  C_3
REMARK    3  A    between atoms: C_6  and  C_7
REMARK    4  A    between atoms: N_8  and  N_9
REMARK    5  A    between atoms: N_9  and  C_10
REMARK    6  A    between atoms: C_10  and  N_12
REMARK    7  A    between atoms: N_12  and  C_13
REMARK    8  A    between atoms: C_14  and  C_15
REMARK    9  A    between atoms: N_16  and  C_17
REMARK   10  A    between atoms: N_18  and  C_19
REMARK   11  A    between atoms: C_28  and  O_29
REMARK   12  A    between atoms: O_29  and  C_30
REMARK                            x       y       z     vdW  Elec       q    Type
REMARK                         _______ _______ _______ _____ _____    ______ ____
ROOT
ATOM      1  C   UNL     1       2.198   4.576  19.807  0.00  0.00    +0.000 C 
ATOM      2  S   UNL     1       0.828   4.132  20.654  0.00  0.00    +0.000 S 
ENDROOT
BRANCH   1   3
ATOM      3  N   UNL     1       2.879   3.789  18.904  0.00  0.00    +0.000 N 
ATOM      4  H   UNL     1       2.924   2.793  19.068  0.00  0.00    +0.000 HD
BRANCH   3   6
ATOM      5  C   UNL     1       4.399   3.510  17.278  0.00  0.00    +0.000 C 
ATOM      6  N   UNL     1       3.665   4.338  17.946  0.00  0.00    +0.000 NA
BRANCH   5  10
ATOM      7  C   UNL     1       7.235   5.111  14.521  0.00  0.00    +0.000 A 
ATOM      8  C   UNL     1       6.473   3.981  14.184  0.00  0.00    +0.000 A 
ATOM      9  C   UNL     1       5.561   3.444  15.088  0.00  0.00    +0.000 A 
ATOM     10  C   UNL     1       5.426   4.013  16.353  0.00  0.00    +0.000 A 
ATOM     11  C   UNL     1       6.216   5.098  16.724  0.00  0.00    +0.000 A 
ATOM     12  C   UNL     1       7.135   5.649  15.817  0.00  0.00    +0.000 A 
BRANCH   7  14
ATOM     13  C   UNL     1       7.808   5.425  12.241  0.00  0.00    +0.000 C 
ATOM     14  O   UNL     1       8.092   5.678  13.616  0.00  0.00    +0.000 OA
ENDBRANCH   7  14
BRANCH  12  15
ATOM     15  O   UNL     1       7.814   6.706  16.364  0.00  0.00    +0.000 OA
ATOM     16  C   UNL     1       7.298   7.328  17.529  0.00  0.00    +0.000 C 
ENDBRANCH  12  15
ENDBRANCH   5  10
ENDBRANCH   3   6
ENDBRANCH   1   3
BRANCH   1  17
ATOM     17  N   UNL     1       2.790   5.781  20.065  0.00  0.00    +0.000 N 
ATOM     18  H   UNL     1       3.417   5.796  20.866  0.00  0.00    +0.000 HD
BRANCH  17  19
ATOM     19  C   UNL     1       2.405   7.028  19.638  0.00  0.00    +0.000 A 
ATOM     20  C   UNL     1       2.654   7.763  18.534  0.00  0.00    +0.000 A 
ATOM     21  C   UNL     1       3.523   7.432  17.357  0.00  0.00    +0.000 C 
ATOM     22  N   UNL     1       1.842   8.905  18.477  0.00  0.00    +0.000 N 
ATOM     23  C   UNL     1       2.219  10.153  17.821  0.00  0.00    +0.000 C 
ATOM     24  N   UNL     1       1.163   8.974  19.711  0.00  0.00    +0.000 N 
ATOM     25  C   UNL     1       1.437   7.836  20.456  0.00  0.00    +0.000 A 
ATOM     26  O   UNL     1       1.031   7.495  21.555  0.00  0.00    +0.000 OA
BRANCH  24  27
ATOM     27  C   UNL     1       0.359  10.055  20.092  0.00  0.00    +0.000 A 
ATOM     28  C   UNL     1      -0.777  10.373  19.343  0.00  0.00    +0.000 A 
ATOM     29  C   UNL     1      -1.628  11.396  19.764  0.00  0.00    +0.000 A 
ATOM     30  C   UNL     1      -1.314  12.140  20.902  0.00  0.00    +0.000 A 
ATOM     31  C   UNL     1      -0.159  11.852  21.629  0.00  0.00    +0.000 A 
ATOM     32  C   UNL     1       0.666  10.798  21.236  0.00  0.00    +0.000 A 
ENDBRANCH  24  27
ENDBRANCH  17  19
ENDBRANCH   1  17
TORSDOF 8
ENDMDL
MODEL 8
REMARK VINA RESULT:      -7.0      6.281      9.813
REMARK  Name = 
REMARK  12 active torsions:
REMARK  status: ('A' for Active; 'I' for Inactive)
REMARK    1  A    between atoms: C_1  and  O_2
REMARK    2  A    between atoms: O_2  and  C_3
REMARK    3  A    between atoms: C_6  and  C_7
REMARK    4  A    between atoms: N_8  and  N_9
REMARK    5  A    between atoms: N_9  and  C_10
REMARK    6  A    between atoms: C_10  and  N_12
REMARK    7  A    between atoms: N_12  and  C_13
REMARK    8  A    between atoms: C_14  and  C_15
REMARK    9  A    between atoms: N_16  and  C_17
REMARK   10  A    between atoms: N_18  and  C_19
REMARK   11  A    between atoms: C_28  and  O_29
REMARK   12  A    between atoms: O_29  and  C_30
REMARK                            x       y       z     vdW  Elec       q    Type
REMARK                         _______ _______ _______ _____ _____    ______ ____
ROOT
ATOM      1  C   UNL     1       1.460   8.570  20.252  0.00  0.00    +0.000 C 
ATOM      2  S   UNL     1       1.459   8.969  21.875  0.00  0.00    +0.000 S 
ENDROOT
BRANCH   1   3
ATOM      3  N   UNL     1       1.507   9.461  19.202  0.00  0.00    +0.000 N 
ATOM      4  H   UNL     1       2.383   9.920  18.998  0.00  0.00    +0.000 HD
BRANCH   3   6
ATOM      5  C   UNL     1      -0.502  10.442  19.373  0.00  0.00    +0.000 C 
ATOM      6  N   UNL     1       0.375   9.895  18.598  0.00  0.00    +0.000 NA
BRANCH   5  10
ATOM      7  C   UNL     1      -4.466  11.265  18.025  0.00  0.00    +0.000 A 
ATOM      8  C   UNL     1      -3.683  10.291  17.385  0.00  0.00    +0.000 A 
ATOM      9  C   UNL     1      -2.383  10.033  17.809  0.00  0.00    +0.000 A 
ATOM     10  C   UNL     1      -1.840  10.772  18.859  0.00  0.00    +0.000 A 
ATOM     11  C   UNL     1      -2.582  11.782  19.465  0.00  0.00    +0.000 A 
ATOM     12  C   UNL     1      -3.896  12.046  19.047  0.00  0.00    +0.000 A 
BRANCH   7  14
ATOM     13  C   UNL     1      -6.758  10.780  18.393  0.00  0.00    +0.000 C 
ATOM     14  O   UNL     1      -5.765  11.484  17.649  0.00  0.00    +0.000 OA
ENDBRANCH   7  14
BRANCH  12  15
ATOM     15  O   UNL     1      -4.459  13.070  19.763  0.00  0.00    +0.000 OA
ATOM     16  C   UNL     1      -4.523  12.969  21.176  0.00  0.00    +0.000 C 
ENDBRANCH  12  15
ENDBRANCH   5  10
ENDBRANCH   3   6
ENDBRANCH   1   3
BRANCH   1  17
ATOM     17  N   UNL     1       1.307   7.264  19.879  0.00  0.00    +0.000 N 
ATOM     18  H   UNL     1       0.423   6.836  20.144  0.00  0.00    +0.000 HD
BRANCH  17  19
ATOM     19  C   UNL     1       2.278   6.360  19.525  0.00  0.00    +0.000 A 
ATOM     20  C   UNL     1       2.652   5.150  19.993  0.00  0.00    +0.000 A 
ATOM     21  C   UNL     1       2.101   4.376  21.155  0.00  0.00    +0.000 C 
ATOM     22  N   UNL     1       3.576   4.528  19.142  0.00  0.00    +0.000 N 
ATOM     23  C   UNL     1       4.592   3.577  19.581  0.00  0.00    +0.000 C 
ATOM     24  N   UNL     1       3.928   5.485  18.167  0.00  0.00    +0.000 N 
ATOM     25  C   UNL     1       3.145   6.619  18.326  0.00  0.00    +0.000 A 
ATOM     26  O   UNL     1       3.112   7.653  17.679  0.00  0.00    +0.000 OA
BRANCH  24  27
ATOM     27  C   UNL     1       4.937   5.286  17.216  0.00  0.00    +0.000 A 
ATOM     28  C   UNL     1       6.152   5.963  17.342  0.00  0.00    +0.000 A 
ATOM     29  C   UNL     1       7.190   5.707  16.445  0.00  0.00    +0.000 A 
ATOM     30  C   UNL     1       6.996   4.816  15.389  0.00  0.00    +0.000 A 
ATOM     31  C   UNL     1       5.770   4.169  15.237  0.00  0.00    +0.000 A 
ATOM     32  C   UNL     1       4.747   4.388  16.160  0.00  0.00    +0.000 A 
ENDBRANCH  24  27
ENDBRANCH  17  19
ENDBRANCH   1  17
TORSDOF 8
ENDMDL
MODEL 9
REMARK VINA RESULT:      -6.9      7.603     10.189
REMARK  Name = 
REMARK  12 active torsions:
REMARK  status: ('A' for Active; 'I' for Inactive)
REMARK    1  A    between atoms: C_1  and  O_2
REMARK    2  A    between atoms: O_2  and  C_3
REMARK    3  A    between atoms: C_6  and  C_7
REMARK    4  A    between atoms: N_8  and  N_9
REMARK    5  A    between atoms: N_9  and  C_10
REMARK    6  A    between atoms: C_10  and  N_12
REMARK    7  A    between atoms: N_12  and  C_13
REMARK    8  A    between atoms: C_14  and  C_15
REMARK    9  A    between atoms: N_16  and  C_17
REMARK   10  A    between atoms: N_18  and  C_19
REMARK   11  A    between atoms: C_28  and  O_29
REMARK   12  A    between atoms: O_29  and  C_30
REMARK                            x       y       z     vdW  Elec       q    Type
REMARK                         _______ _______ _______ _____ _____    ______ ____
ROOT
ATOM      1  C   UNL     1       1.598  11.271  18.534  0.00  0.00    +0.000 C 
ATOM      2  S   UNL     1       2.324  12.764  18.343  0.00  0.00    +0.000 S 
ENDROOT
BRANCH   1   3
ATOM      3  N   UNL     1       1.596  10.249  17.609  0.00  0.00    +0.000 N 
ATOM      4  H   UNL     1       0.836  10.201  16.945  0.00  0.00    +0.000 HD
BRANCH   3   6
ATOM      5  C   UNL     1       1.962   8.132  18.251  0.00  0.00    +0.000 C 
ATOM      6  N   UNL     1       2.449   9.203  17.716  0.00  0.00    +0.000 NA
BRANCH   5  10
ATOM      7  C   UNL     1       4.418   4.748  19.100  0.00  0.00    +0.000 A 
ATOM      8  C   UNL     1       3.321   5.055  19.919  0.00  0.00    +0.000 A 
ATOM      9  C   UNL     1       2.529   6.170  19.658  0.00  0.00    +0.000 A 
ATOM     10  C   UNL     1       2.847   7.007  18.590  0.00  0.00    +0.000 A 
ATOM     11  C   UNL     1       3.967   6.749  17.804  0.00  0.00    +0.000 A 
ATOM     12  C   UNL     1       4.769   5.625  18.057  0.00  0.00    +0.000 A 
BRANCH   7  14
ATOM     13  C   UNL     1       4.459   2.486  19.812  0.00  0.00    +0.000 C 
ATOM     14  O   UNL     1       5.167   3.621  19.318  0.00  0.00    +0.000 OA
ENDBRANCH   7  14
BRANCH  12  15
ATOM     15  O   UNL     1       5.817   5.541  17.178  0.00  0.00    +0.000 OA
ATOM     16  C   UNL     1       6.737   6.618  17.099  0.00  0.00    +0.000 C 
ENDBRANCH  12  15
ENDBRANCH   5  10
ENDBRANCH   3   6
ENDBRANCH   1   3
BRANCH   1  17
ATOM     17  N   UNL     1       0.848  11.024  19.651  0.00  0.00    +0.000 N 
ATOM     18  H   UNL     1       1.094  10.179  20.162  0.00  0.00    +0.000 HD
BRANCH  17  19
ATOM     19  C   UNL     1      -0.383  11.533  19.980  0.00  0.00    +0.000 A 
ATOM     20  C   UNL     1      -1.610  11.462  19.422  0.00  0.00    +0.000 A 
ATOM     21  C   UNL     1      -2.032  10.781  18.154  0.00  0.00    +0.000 C 
ATOM     22  N   UNL     1      -2.597  11.986  20.270  0.00  0.00    +0.000 N 
ATOM     23  C   UNL     1      -3.838  12.601  19.811  0.00  0.00    +0.000 C 
ATOM     24  N   UNL     1      -1.917  12.575  21.357  0.00  0.00    +0.000 N 
ATOM     25  C   UNL     1      -0.560  12.304  21.257  0.00  0.00    +0.000 A 
ATOM     26  O   UNL     1       0.361  12.603  21.999  0.00  0.00    +0.000 OA
BRANCH  24  27
ATOM     27  C   UNL     1      -2.554  13.327  22.352  0.00  0.00    +0.000 A 
ATOM     28  C   UNL     1      -3.340  12.684  23.311  0.00  0.00    +0.000 A 
ATOM     29  C   UNL     1      -3.910  13.417  24.353  0.00  0.00    +0.000 A 
ATOM     30  C   UNL     1      -3.742  14.801  24.405  0.00  0.00    +0.000 A 
ATOM     31  C   UNL     1      -2.992  15.451  23.426  0.00  0.00    +0.000 A 
ATOM     32  C   UNL     1      -2.382  14.714  22.411  0.00  0.00    +0.000 A 
ENDBRANCH  24  27
ENDBRANCH  17  19
ENDBRANCH   1  17
TORSDOF 8
ENDMDL
