MODEL 1
REMARK VINA RESULT:      -8.5      0.000      0.000
REMARK  Name = 
REMARK  6 active torsions:
REMARK  status: ('A' for Active; 'I' for Inactive)
REMARK    1  A    between atoms: C_1  and  C_2
REMARK    2  A    between atoms: C_3  and  C_4
REMARK    3  A    between atoms: N_7  and  C_8
REMARK    4  A    between atoms: C_8  and  C_9
REMARK    5  A    between atoms: C_9  and  C_10
REMARK    6  A    between atoms: C_20  and  C_21
REMARK                            x       y       z     vdW  Elec       q    Type
REMARK                         _______ _______ _______ _____ _____    ______ ____
ROOT
ATOM      1  C   UNL     1       0.888   8.490  20.886  0.00  0.00    +0.000 C 
ATOM      2  C   UNL     1       1.469   8.892  22.235  0.00  0.00    +0.000 C 
ATOM      3  C   UNL     1       0.377   9.580  23.040  0.00  0.00    +0.000 C 
ATOM      4  N   UNL     1      -0.189  10.757  22.364  0.00  0.00    +0.000 NA
ATOM      5  C   UNL     1      -0.560  10.497  20.954  0.00  0.00    +0.000 C 
ATOM      6  C   UNL     1       0.525   9.764  20.134  0.00  0.00    +0.000 C 
ENDROOT
BRANCH   1   9
ATOM      7  C   UNL     1       2.213   8.759  18.002  0.00  0.00    +0.000 C 
ATOM      8  C   UNL     1       2.281   7.582  18.905  0.00  0.00    +0.000 A 
ATOM      9  C   UNL     1       1.719   7.448  20.211  0.00  0.00    +0.000 A 
ATOM     10  N   UNL     1       1.987   6.252  20.741  0.00  0.00    +0.000 NA
ATOM     11  O   UNL     1       2.750   5.587  19.788  0.00  0.00    +0.000 OA
ATOM     12  C   UNL     1       2.925   6.380  18.692  0.00  0.00    +0.000 A 
BRANCH  12  13
ATOM     13  C   UNL     1       3.740   5.847  17.602  0.00  0.00    +0.000 A 
ATOM     14  C   UNL     1       4.564   6.694  16.840  0.00  0.00    +0.000 A 
ATOM     15  C   UNL     1       5.449   6.184  15.887  0.00  0.00    +0.000 A 
ATOM     16  C   UNL     1       5.500   4.812  15.667  0.00  0.00    +0.000 A 
ATOM     17 CL   UNL     1       6.618   4.176  14.524  0.00  0.00    +0.000 Cl
ATOM     18  C   UNL     1       4.664   3.956  16.376  0.00  0.00    +0.000 A 
ATOM     19  C   UNL     1       3.786   4.470  17.338  0.00  0.00    +0.000 A 
ENDBRANCH  12  13
ENDBRANCH   1   9
BRANCH   4  20
ATOM     20  C   UNL     1      -1.371  11.263  23.111  0.00  0.00    +0.000 C 
BRANCH  20  21
ATOM     21  C   UNL     1      -1.974  12.558  22.526  0.00  0.00    +0.000 C 
BRANCH  21  22
ATOM     22  C   UNL     1      -3.461  12.677  22.763  0.00  0.00    +0.000 A 
ATOM     23  C   UNL     1      -4.343  12.792  21.677  0.00  0.00    +0.000 A 
ATOM     24  C   UNL     1      -5.719  12.875  21.889  0.00  0.00    +0.000 A 
ATOM     25  C   UNL     1      -6.227  12.847  23.185  0.00  0.00    +0.000 A 
ATOM     26  C   UNL     1      -5.358  12.739  24.271  0.00  0.00    +0.000 A 
ATOM     27  C   UNL     1      -3.981  12.655  24.061  0.00  0.00    +0.000 A 
ENDBRANCH  21  22
ENDBRANCH  20  21
ENDBRANCH   4  20
TORSDOF 5
ENDMDL
MODEL 2
REMARK VINA RESULT:      -8.5      0.206      1.327
REMARK  Name = 
REMARK  6 active torsions:
REMARK  status: ('A' for Active; 'I' for Inactive)
REMARK    1  A    between atoms: C_1  and  C_2
REMARK    2  A    between atoms: C_3  and  C_4
REMARK    3  A    between atoms: N_7  and  C_8
REMARK    4  A    between atoms: C_8  and  C_9
REMARK    5  A    between atoms: C_9  and  C_10
REMARK    6  A    between atoms: C_20  and  C_21
REMARK                            x       y       z     vdW  Elec       q    Type
REMARK                         _______ _______ _______ _____ _____    ______ ____
ROOT
ATOM      1  C   UNL     1       0.974   8.488  20.840  0.00  0.00    +0.000 C 
ATOM      2  C   UNL     1       1.491   8.855  22.225  0.00  0.00    +0.000 C 
ATOM      3  C   UNL     1       0.372   9.553  22.984  0.00  0.00    +0.000 C 
ATOM      4  N   UNL     1      -0.133  10.753  22.299  0.00  0.00    +0.000 NA
ATOM      5  C   UNL     1      -0.435  10.524  20.867  0.00  0.00    +0.000 C 
ATOM      6  C   UNL     1       0.677   9.781  20.093  0.00  0.00    +0.000 C 
ENDROOT
BRANCH   1   9
ATOM      7  C   UNL     1       2.372   8.737  17.990  0.00  0.00    +0.000 C 
ATOM      8  C   UNL     1       2.413   7.565  18.899  0.00  0.00    +0.000 A 
ATOM      9  C   UNL     1       1.818   7.439  20.191  0.00  0.00    +0.000 A 
ATOM     10  N   UNL     1       2.068   6.246  20.734  0.00  0.00    +0.000 NA
ATOM     11  O   UNL     1       2.853   5.573  19.804  0.00  0.00    +0.000 OA
ATOM     12  C   UNL     1       3.058   6.360  18.709  0.00  0.00    +0.000 A 
BRANCH  12  13
ATOM     13  C   UNL     1       3.898   5.818  17.642  0.00  0.00    +0.000 A 
ATOM     14  C   UNL     1       3.925   4.436  17.381  0.00  0.00    +0.000 A 
ATOM     15  C   UNL     1       4.614   3.917  16.282  0.00  0.00    +0.000 A 
ATOM     16  C   UNL     1       5.309   4.778  15.442  0.00  0.00    +0.000 A 
ATOM     17 CL   UNL     1       6.124   4.148  14.063  0.00  0.00    +0.000 Cl
ATOM     18  C   UNL     1       5.334   6.144  15.702  0.00  0.00    +0.000 A 
ATOM     19  C   UNL     1       4.634   6.662  16.799  0.00  0.00    +0.000 A 
ENDBRANCH  12  13
ENDBRANCH   1   9
BRANCH   4  20
ATOM     20  C   UNL     1      -1.343  11.272  22.992  0.00  0.00    +0.000 C 
BRANCH  20  21
ATOM     21  C   UNL     1      -2.054  12.414  22.238  0.00  0.00    +0.000 C 
BRANCH  21  22
ATOM     22  C   UNL     1      -3.503  12.572  22.634  0.00  0.00    +0.000 A 
ATOM     23  C   UNL     1      -3.871  12.559  23.988  0.00  0.00    +0.000 A 
ATOM     24  C   UNL     1      -5.204  12.731  24.361  0.00  0.00    +0.000 A 
ATOM     25  C   UNL     1      -6.182  12.915  23.386  0.00  0.00    +0.000 A 
ATOM     26  C   UNL     1      -5.827  12.922  22.037  0.00  0.00    +0.000 A 
ATOM     27  C   UNL     1      -4.493  12.751  21.662  0.00  0.00    +0.000 A 
ENDBRANCH  21  22
ENDBRANCH  20  21
ENDBRANCH   4  20
TORSDOF 5
ENDMDL
MODEL 3
REMARK VINA RESULT:      -8.4      0.943      1.129
REMARK  Name = 
REMARK  6 active torsions:
REMARK  status: ('A' for Active; 'I' for Inactive)
REMARK    1  A    between atoms: C_1  and  C_2
REMARK    2  A    between atoms: C_3  and  C_4
REMARK    3  A    between atoms: N_7  and  C_8
REMARK    4  A    between atoms: C_8  and  C_9
REMARK    5  A    between atoms: C_9  and  C_10
REMARK    6  A    between atoms: C_20  and  C_21
REMARK                            x       y       z     vdW  Elec       q    Type
REMARK                         _______ _______ _______ _____ _____    ______ ____
ROOT
ATOM      1  C   UNL     1       0.522   9.602  21.156  0.00  0.00    +0.000 C 
ATOM      2  C   UNL     1       0.221   9.424  22.639  0.00  0.00    +0.000 C 
ATOM      3  C   UNL     1      -0.885  10.396  23.022  0.00  0.00    +0.000 C 
ATOM      4  N   UNL     1      -0.547  11.800  22.740  0.00  0.00    +0.000 NA
ATOM      5  C   UNL     1      -0.015  12.009  21.373  0.00  0.00    +0.000 C 
ATOM      6  C   UNL     1       1.082  11.004  20.957  0.00  0.00    +0.000 C 
ENDROOT
BRANCH   1   9
ATOM      7  C   UNL     1       1.805   9.441  18.246  0.00  0.00    +0.000 C 
ATOM      8  C   UNL     1       1.801   8.371  19.274  0.00  0.00    +0.000 A 
ATOM      9  C   UNL     1       1.257   8.428  20.594  0.00  0.00    +0.000 A 
ATOM     10  N   UNL     1       1.443   7.282  21.252  0.00  0.00    +0.000 NA
ATOM     11  O   UNL     1       2.133   6.456  20.372  0.00  0.00    +0.000 OA
ATOM     12  C   UNL     1       2.346   7.106  19.192  0.00  0.00    +0.000 A 
BRANCH  12  13
ATOM     13  C   UNL     1       3.095   6.391  18.159  0.00  0.00    +0.000 A 
ATOM     14  C   UNL     1       4.103   7.040  17.425  0.00  0.00    +0.000 A 
ATOM     15  C   UNL     1       4.919   6.339  16.532  0.00  0.00    +0.000 A 
ATOM     16  C   UNL     1       4.715   4.977  16.346  0.00  0.00    +0.000 A 
ATOM     17 CL   UNL     1       5.744   4.102  15.280  0.00  0.00    +0.000 Cl
ATOM     18  C   UNL     1       3.696   4.320  17.028  0.00  0.00    +0.000 A 
ATOM     19  C   UNL     1       2.887   5.024  17.929  0.00  0.00    +0.000 A 
ENDBRANCH  12  13
ENDBRANCH   1   9
BRANCH   4  20
ATOM     20  C   UNL     1      -1.734  12.670  22.957  0.00  0.00    +0.000 C 
BRANCH  20  21
ATOM     21  C   UNL     1      -2.735  12.667  21.782  0.00  0.00    +0.000 C 
BRANCH  21  22
ATOM     22  C   UNL     1      -4.175  12.718  22.234  0.00  0.00    +0.000 A 
ATOM     23  C   UNL     1      -5.215  12.596  21.298  0.00  0.00    +0.000 A 
ATOM     24  C   UNL     1      -6.546  12.616  21.713  0.00  0.00    +0.000 A 
ATOM     25  C   UNL     1      -6.853  12.760  23.064  0.00  0.00    +0.000 A 
ATOM     26  C   UNL     1      -5.827  12.888  24.001  0.00  0.00    +0.000 A 
ATOM     27  C   UNL     1      -4.494  12.868  23.587  0.00  0.00    +0.000 A 
ENDBRANCH  21  22
ENDBRANCH  20  21
ENDBRANCH   4  20
TORSDOF 5
ENDMDL
MODEL 4
REMARK VINA RESULT:      -8.4      0.924      1.704
REMARK  Name = 
REMARK  6 active torsions:
REMARK  status: ('A' for Active; 'I' for Inactive)
REMARK    1  A    between atoms: C_1  and  C_2
REMARK    2  A    between atoms: C_3  and  C_4
REMARK    3  A    between atoms: N_7  and  C_8
REMARK    4  A    between atoms: C_8  and  C_9
REMARK    5  A    between atoms: C_9  and  C_10
REMARK    6  A    between atoms: C_20  and  C_21
REMARK                            x       y       z     vdW  Elec       q    Type
REMARK                         _______ _______ _______ _____ _____    ______ ____
ROOT
ATOM      1  C   UNL     1       0.629   9.577  20.622  0.00  0.00    +0.000 C 
ATOM      2  C   UNL     1      -0.557   9.884  19.717  0.00  0.00    +0.000 C 
ATOM      3  C   UNL     1      -0.987  11.321  19.965  0.00  0.00    +0.000 C 
ATOM      4  N   UNL     1      -1.341  11.588  21.368  0.00  0.00    +0.000 NA
ATOM      5  C   UNL     1      -0.327  11.094  22.328  0.00  0.00    +0.000 C 
ATOM      6  C   UNL     1       0.148   9.648  22.065  0.00  0.00    +0.000 C 
ENDROOT
BRANCH   1   9
ATOM      7  C   UNL     1       2.066   9.274  17.795  0.00  0.00    +0.000 C 
ATOM      8  C   UNL     1       2.002   8.254  18.873  0.00  0.00    +0.000 A 
ATOM      9  C   UNL     1       1.388   8.376  20.156  0.00  0.00    +0.000 A 
ATOM     10  N   UNL     1       1.532   7.263  20.878  0.00  0.00    +0.000 NA
ATOM     11  O   UNL     1       2.265   6.394  20.077  0.00  0.00    +0.000 OA
ATOM     12  C   UNL     1       2.544   6.985  18.880  0.00  0.00    +0.000 A 
BRANCH  12  13
ATOM     13  C   UNL     1       3.344   6.220  17.925  0.00  0.00    +0.000 A 
ATOM     14  C   UNL     1       4.399   6.829  17.222  0.00  0.00    +0.000 A 
ATOM     15  C   UNL     1       5.257   6.083  16.409  0.00  0.00    +0.000 A 
ATOM     16  C   UNL     1       5.051   4.715  16.271  0.00  0.00    +0.000 A 
ATOM     17 CL   UNL     1       6.131   3.786  15.306  0.00  0.00    +0.000 Cl
ATOM     18  C   UNL     1       3.988   4.096  16.922  0.00  0.00    +0.000 A 
ATOM     19  C   UNL     1       3.136   4.846  17.743  0.00  0.00    +0.000 A 
ENDBRANCH  12  13
ENDBRANCH   1   9
BRANCH   4  20
ATOM     20  C   UNL     1      -1.565  13.043  21.576  0.00  0.00    +0.000 C 
BRANCH  20  21
ATOM     21  C   UNL     1      -3.005  13.505  21.270  0.00  0.00    +0.000 C 
BRANCH  21  22
ATOM     22  C   UNL     1      -3.986  13.142  22.360  0.00  0.00    +0.000 A 
ATOM     23  C   UNL     1      -3.524  12.763  23.630  0.00  0.00    +0.000 A 
ATOM     24  C   UNL     1      -4.426  12.454  24.648  0.00  0.00    +0.000 A 
ATOM     25  C   UNL     1      -5.796  12.517  24.407  0.00  0.00    +0.000 A 
ATOM     26  C   UNL     1      -6.265  12.887  23.147  0.00  0.00    +0.000 A 
ATOM     27  C   UNL     1      -5.364  13.198  22.127  0.00  0.00    +0.000 A 
ENDBRANCH  21  22
ENDBRANCH  20  21
ENDBRANCH   4  20
TORSDOF 5
ENDMDL
MODEL 5
REMARK VINA RESULT:      -8.4      3.695     10.982
REMARK  Name = 
REMARK  6 active torsions:
REMARK  status: ('A' for Active; 'I' for Inactive)
REMARK    1  A    between atoms: C_1  and  C_2
REMARK    2  A    between atoms: C_3  and  C_4
REMARK    3  A    between atoms: N_7  and  C_8
REMARK    4  A    between atoms: C_8  and  C_9
REMARK    5  A    between atoms: C_9  and  C_10
REMARK    6  A    between atoms: C_20  and  C_21
REMARK                            x       y       z     vdW  Elec       q    Type
REMARK                         _______ _______ _______ _____ _____    ______ ____
ROOT
ATOM      1  C   UNL     1       2.939   6.669  18.798  0.00  0.00    +0.000 C 
ATOM      2  C   UNL     1       2.203   5.462  18.233  0.00  0.00    +0.000 C 
ATOM      3  C   UNL     1       3.236   4.436  17.791  0.00  0.00    +0.000 C 
ATOM      4  N   UNL     1       4.186   4.960  16.797  0.00  0.00    +0.000 NA
ATOM      5  C   UNL     1       4.767   6.268  17.178  0.00  0.00    +0.000 C 
ATOM      6  C   UNL     1       3.733   7.307  17.665  0.00  0.00    +0.000 C 
ENDROOT
BRANCH   1   9
ATOM      7  C   UNL     1       1.626   9.430  17.903  0.00  0.00    +0.000 C 
ATOM      8  C   UNL     1       1.489   8.769  19.225  0.00  0.00    +0.000 A 
ATOM      9  C   UNL     1       2.044   7.521  19.641  0.00  0.00    +0.000 A 
ATOM     10  N   UNL     1       1.706   7.226  20.897  0.00  0.00    +0.000 NA
ATOM     11  O   UNL     1       0.902   8.278  21.321  0.00  0.00    +0.000 OA
ATOM     12  C   UNL     1       0.773   9.199  20.324  0.00  0.00    +0.000 A 
BRANCH  12  13
ATOM     13  C   UNL     1      -0.074  10.361  20.589  0.00  0.00    +0.000 A 
ATOM     14  C   UNL     1      -0.852  10.930  19.565  0.00  0.00    +0.000 A 
ATOM     15  C   UNL     1      -1.768  11.952  19.831  0.00  0.00    +0.000 A 
ATOM     16  C   UNL     1      -1.897  12.434  21.128  0.00  0.00    +0.000 A 
ATOM     17 CL   UNL     1      -3.053  13.663  21.467  0.00  0.00    +0.000 Cl
ATOM     18  C   UNL     1      -1.108  11.917  22.151  0.00  0.00    +0.000 A 
ATOM     19  C   UNL     1      -0.198  10.887  21.882  0.00  0.00    +0.000 A 
ENDBRANCH  12  13
ENDBRANCH   1   9
BRANCH   4  20
ATOM     20  C   UNL     1       5.275   3.976  16.555  0.00  0.00    +0.000 C 
BRANCH  20  21
ATOM     21  C   UNL     1       6.580   4.605  16.023  0.00  0.00    +0.000 C 
BRANCH  21  22
ATOM     22  C   UNL     1       6.719   4.497  14.523  0.00  0.00    +0.000 A 
ATOM     23  C   UNL     1       7.652   5.292  13.840  0.00  0.00    +0.000 A 
ATOM     24  C   UNL     1       7.803   5.176  12.458  0.00  0.00    +0.000 A 
ATOM     25  C   UNL     1       7.023   4.269  11.745  0.00  0.00    +0.000 A 
ATOM     26  C   UNL     1       6.089   3.479  12.414  0.00  0.00    +0.000 A 
ATOM     27  C   UNL     1       5.936   3.593  13.797  0.00  0.00    +0.000 A 
ENDBRANCH  21  22
ENDBRANCH  20  21
ENDBRANCH   4  20
TORSDOF 5
ENDMDL
MODEL 6
REMARK VINA RESULT:      -8.4      3.841     10.922
REMARK  Name = 
REMARK  6 active torsions:
REMARK  status: ('A' for Active; 'I' for Inactive)
REMARK    1  A    between atoms: C_1  and  C_2
REMARK    2  A    between atoms: C_3  and  C_4
REMARK    3  A    between atoms: N_7  and  C_8
REMARK    4  A    between atoms: C_8  and  C_9
REMARK    5  A    between atoms: C_9  and  C_10
REMARK    6  A    between atoms: C_20  and  C_21
REMARK                            x       y       z     vdW  Elec       q    Type
REMARK                         _______ _______ _______ _____ _____    ______ ____
ROOT
ATOM      1  C   UNL     1       3.072   6.028  18.767  0.00  0.00    +0.000 C 
ATOM      2  C   UNL     1       4.313   5.551  19.511  0.00  0.00    +0.000 C 
ATOM      3  C   UNL     1       5.317   5.041  18.489  0.00  0.00    +0.000 C 
ATOM      4  N   UNL     1       4.787   3.958  17.645  0.00  0.00    +0.000 NA
ATOM      5  C   UNL     1       3.455   4.263  17.074  0.00  0.00    +0.000 C 
ATOM      6  C   UNL     1       2.437   4.818  18.094  0.00  0.00    +0.000 C 
ENDROOT
BRANCH   1   9
ATOM      7  C   UNL     1       2.156   8.976  17.984  0.00  0.00    +0.000 C 
ATOM      8  C   UNL     1       1.853   8.258  19.248  0.00  0.00    +0.000 A 
ATOM      9  C   UNL     1       2.230   6.929  19.611  0.00  0.00    +0.000 A 
ATOM     10  N   UNL     1       1.775   6.602  20.822  0.00  0.00    +0.000 NA
ATOM     11  O   UNL     1       1.074   7.717  21.268  0.00  0.00    +0.000 OA
ATOM     12  C   UNL     1       1.121   8.705  20.329  0.00  0.00    +0.000 A 
BRANCH  12  13
ATOM     13  C   UNL     1       0.400   9.943  20.621  0.00  0.00    +0.000 A 
ATOM     14  C   UNL     1       0.070  10.286  21.945  0.00  0.00    +0.000 A 
ATOM     15  C   UNL     1      -0.497  11.525  22.255  0.00  0.00    +0.000 A 
ATOM     16  C   UNL     1      -0.765  12.429  21.234  0.00  0.00    +0.000 A 
ATOM     17 CL   UNL     1      -1.423  13.972  21.617  0.00  0.00    +0.000 Cl
ATOM     18  C   UNL     1      -0.487  12.097  19.912  0.00  0.00    +0.000 A 
ATOM     19  C   UNL     1       0.090  10.858  19.606  0.00  0.00    +0.000 A 
ENDBRANCH  12  13
ENDBRANCH   1   9
BRANCH   4  20
ATOM     20  C   UNL     1       5.744   3.640  16.552  0.00  0.00    +0.000 C 
BRANCH  20  21
ATOM     21  C   UNL     1       6.285   4.883  15.814  0.00  0.00    +0.000 C 
BRANCH  21  22
ATOM     22  C   UNL     1       6.557   4.628  14.350  0.00  0.00    +0.000 A 
ATOM     23  C   UNL     1       7.535   5.373  13.673  0.00  0.00    +0.000 A 
ATOM     24  C   UNL     1       7.808   5.124  12.328  0.00  0.00    +0.000 A 
ATOM     25  C   UNL     1       7.108   4.132  11.647  0.00  0.00    +0.000 A 
ATOM     26  C   UNL     1       6.130   3.390  12.310  0.00  0.00    +0.000 A 
ATOM     27  C   UNL     1       5.855   3.638  13.656  0.00  0.00    +0.000 A 
ENDBRANCH  21  22
ENDBRANCH  20  21
ENDBRANCH   4  20
TORSDOF 5
ENDMDL
MODEL 7
REMARK VINA RESULT:      -8.3      0.732      1.532
REMARK  Name = 
REMARK  6 active torsions:
REMARK  status: ('A' for Active; 'I' for Inactive)
REMARK    1  A    between atoms: C_1  and  C_2
REMARK    2  A    between atoms: C_3  and  C_4
REMARK    3  A    between atoms: N_7  and  C_8
REMARK    4  A    between atoms: C_8  and  C_9
REMARK    5  A    between atoms: C_9  and  C_10
REMARK    6  A    between atoms: C_20  and  C_21
REMARK                            x       y       z     vdW  Elec       q    Type
REMARK                         _______ _______ _______ _____ _____    ______ ____
ROOT
ATOM      1  C   UNL     1       0.751   9.224  20.695  0.00  0.00    +0.000 C 
ATOM      2  C   UNL     1      -0.325   9.662  19.711  0.00  0.00    +0.000 C 
ATOM      3  C   UNL     1      -0.761  11.073  20.076  0.00  0.00    +0.000 C 
ATOM      4  N   UNL     1      -1.260  11.188  21.455  0.00  0.00    +0.000 NA
ATOM      5  C   UNL     1      -0.363  10.563  22.454  0.00  0.00    +0.000 C 
ATOM      6  C   UNL     1       0.117   9.144  22.078  0.00  0.00    +0.000 C 
ENDROOT
BRANCH   1   9
ATOM      7  C   UNL     1       2.327   9.140  17.928  0.00  0.00    +0.000 C 
ATOM      8  C   UNL     1       2.216   8.042  18.920  0.00  0.00    +0.000 A 
ATOM      9  C   UNL     1       1.539   8.063  20.178  0.00  0.00    +0.000 A 
ATOM     10  N   UNL     1       1.655   6.899  20.819  0.00  0.00    +0.000 NA
ATOM     11  O   UNL     1       2.431   6.095  19.991  0.00  0.00    +0.000 OA
ATOM     12  C   UNL     1       2.765   6.777  18.858  0.00  0.00    +0.000 A 
BRANCH  12  13
ATOM     13  C   UNL     1       3.615   6.089  17.888  0.00  0.00    +0.000 A 
ATOM     14  C   UNL     1       3.492   4.703  17.681  0.00  0.00    +0.000 A 
ATOM     15  C   UNL     1       4.199   4.054  16.666  0.00  0.00    +0.000 A 
ATOM     16  C   UNL     1       5.061   4.786  15.857  0.00  0.00    +0.000 A 
ATOM     17 CL   UNL     1       5.901   3.998  14.578  0.00  0.00    +0.000 Cl
ATOM     18  C   UNL     1       5.233   6.150  16.068  0.00  0.00    +0.000 A 
ATOM     19  C   UNL     1       4.515   6.799  17.081  0.00  0.00    +0.000 A 
ENDBRANCH  12  13
ENDBRANCH   1   9
BRANCH   4  20
ATOM     20  C   UNL     1      -1.486  12.616  21.804  0.00  0.00    +0.000 C 
BRANCH  20  21
ATOM     21  C   UNL     1      -2.118  12.828  23.195  0.00  0.00    +0.000 C 
BRANCH  21  22
ATOM     22  C   UNL     1      -3.628  12.817  23.165  0.00  0.00    +0.000 A 
ATOM     23  C   UNL     1      -4.312  12.888  21.942  0.00  0.00    +0.000 A 
ATOM     24  C   UNL     1      -5.706  12.851  21.907  0.00  0.00    +0.000 A 
ATOM     25  C   UNL     1      -6.430  12.745  23.092  0.00  0.00    +0.000 A 
ATOM     26  C   UNL     1      -5.760  12.680  24.314  0.00  0.00    +0.000 A 
ATOM     27  C   UNL     1      -4.365  12.716  24.350  0.00  0.00    +0.000 A 
ENDBRANCH  21  22
ENDBRANCH  20  21
ENDBRANCH   4  20
TORSDOF 5
ENDMDL
MODEL 8
REMARK VINA RESULT:      -8.3      0.915      1.229
REMARK  Name = 
REMARK  6 active torsions:
REMARK  status: ('A' for Active; 'I' for Inactive)
REMARK    1  A    between atoms: C_1  and  C_2
REMARK    2  A    between atoms: C_3  and  C_4
REMARK    3  A    between atoms: N_7  and  C_8
REMARK    4  A    between atoms: C_8  and  C_9
REMARK    5  A    between atoms: C_9  and  C_10
REMARK    6  A    between atoms: C_20  and  C_21
REMARK                            x       y       z     vdW  Elec       q    Type
REMARK                         _______ _______ _______ _____ _____    ______ ____
ROOT
ATOM      1  C   UNL     1       0.753   9.163  20.848  0.00  0.00    +0.000 C 
ATOM      2  C   UNL     1       0.785   9.165  22.370  0.00  0.00    +0.000 C 
ATOM      3  C   UNL     1      -0.366  10.025  22.871  0.00  0.00    +0.000 C 
ATOM      4  N   UNL     1      -0.323  11.405  22.363  0.00  0.00    +0.000 NA
ATOM      5  C   UNL     1      -0.113  11.481  20.899  0.00  0.00    +0.000 C 
ATOM      6  C   UNL     1       1.028  10.583  20.372  0.00  0.00    +0.000 C 
ENDROOT
BRANCH   1   9
ATOM      7  C   UNL     1       2.041   9.083  17.935  0.00  0.00    +0.000 C 
ATOM      8  C   UNL     1       2.088   8.007  18.957  0.00  0.00    +0.000 A 
ATOM      9  C   UNL     1       1.543   8.029  20.277  0.00  0.00    +0.000 A 
ATOM     10  N   UNL     1       1.783   6.889  20.928  0.00  0.00    +0.000 NA
ATOM     11  O   UNL     1       2.511   6.103  20.041  0.00  0.00    +0.000 OA
ATOM     12  C   UNL     1       2.693   6.770  18.865  0.00  0.00    +0.000 A 
BRANCH  12  13
ATOM     13  C   UNL     1       3.474   6.099  17.828  0.00  0.00    +0.000 A 
ATOM     14  C   UNL     1       4.453   6.799  17.101  0.00  0.00    +0.000 A 
ATOM     15  C   UNL     1       5.300   6.143  16.203  0.00  0.00    +0.000 A 
ATOM     16  C   UNL     1       5.158   4.774  16.005  0.00  0.00    +0.000 A 
ATOM     17 CL   UNL     1       6.226   3.956  14.932  0.00  0.00    +0.000 Cl
ATOM     18  C   UNL     1       4.169   4.066  16.680  0.00  0.00    +0.000 A 
ATOM     19  C   UNL     1       3.329   4.726  17.586  0.00  0.00    +0.000 A 
ENDBRANCH  12  13
ENDBRANCH   1   9
BRANCH   4  20
ATOM     20  C   UNL     1      -1.569  12.129  22.732  0.00  0.00    +0.000 C 
BRANCH  20  21
ATOM     21  C   UNL     1      -2.064  13.113  21.652  0.00  0.00    +0.000 C 
BRANCH  21  22
ATOM     22  C   UNL     1      -3.490  12.855  21.227  0.00  0.00    +0.000 A 
ATOM     23  C   UNL     1      -3.780  12.509  19.898  0.00  0.00    +0.000 A 
ATOM     24  C   UNL     1      -5.093  12.243  19.507  0.00  0.00    +0.000 A 
ATOM     25  C   UNL     1      -6.126  12.323  20.436  0.00  0.00    +0.000 A 
ATOM     26  C   UNL     1      -5.849  12.671  21.758  0.00  0.00    +0.000 A 
ATOM     27  C   UNL     1      -4.536  12.937  22.152  0.00  0.00    +0.000 A 
ENDBRANCH  21  22
ENDBRANCH  20  21
ENDBRANCH   4  20
TORSDOF 5
ENDMDL
MODEL 9
REMARK VINA RESULT:      -8.3      3.796     11.223
REMARK  Name = 
REMARK  6 active torsions:
REMARK  status: ('A' for Active; 'I' for Inactive)
REMARK    1  A    between atoms: C_1  and  C_2
REMARK    2  A    between atoms: C_3  and  C_4
REMARK    3  A    between atoms: N_7  and  C_8
REMARK    4  A    between atoms: C_8  and  C_9
REMARK    5  A    between atoms: C_9  and  C_10
REMARK    6  A    between atoms: C_20  and  C_21
REMARK                            x       y       z     vdW  Elec       q    Type
REMARK                         _______ _______ _______ _____ _____    ______ ____
ROOT
ATOM      1  C   UNL     1       3.734   5.886  18.159  0.00  0.00    +0.000 C 
ATOM      2  C   UNL     1       3.205   4.589  17.562  0.00  0.00    +0.000 C 
ATOM      3  C   UNL     1       4.360   3.870  16.883  0.00  0.00    +0.000 C 
ATOM      4  N   UNL     1       5.013   4.676  15.840  0.00  0.00    +0.000 NA
ATOM      5  C   UNL     1       5.344   6.049  16.286  0.00  0.00    +0.000 C 
ATOM      6  C   UNL     1       4.191   6.777  17.012  0.00  0.00    +0.000 C 
ENDROOT
BRANCH   1   9
ATOM      7  C   UNL     1       2.450   8.801  18.136  0.00  0.00    +0.000 C 
ATOM      8  C   UNL     1       2.268   7.759  19.177  0.00  0.00    +0.000 A 
ATOM      9  C   UNL     1       2.810   6.438  19.197  0.00  0.00    +0.000 A 
ATOM     10  N   UNL     1       2.429   5.766  20.285  0.00  0.00    +0.000 NA
ATOM     11  O   UNL     1       1.611   6.639  20.992  0.00  0.00    +0.000 OA
ATOM     12  C   UNL     1       1.515   7.829  20.332  0.00  0.00    +0.000 A 
BRANCH  12  13
ATOM     13  C   UNL     1       0.658   8.856  20.921  0.00  0.00    +0.000 A 
ATOM     14  C   UNL     1       0.478   8.928  22.314  0.00  0.00    +0.000 A 
ATOM     15  C   UNL     1      -0.226   9.982  22.903  0.00  0.00    +0.000 A 
ATOM     16  C   UNL     1      -0.783  10.968  22.096  0.00  0.00    +0.000 A 
ATOM     17 CL   UNL     1      -1.614  12.289  22.819  0.00  0.00    +0.000 Cl
ATOM     18  C   UNL     1      -0.656  10.896  20.713  0.00  0.00    +0.000 A 
ATOM     19  C   UNL     1       0.059   9.843  20.127  0.00  0.00    +0.000 A 
ENDBRANCH  12  13
ENDBRANCH   1   9
BRANCH   4  20
ATOM     20  C   UNL     1       6.243   3.994  15.354  0.00  0.00    +0.000 C 
BRANCH  20  21
ATOM     21  C   UNL     1       6.693   4.441  13.947  0.00  0.00    +0.000 C 
BRANCH  21  22
ATOM     22  C   UNL     1       6.048   3.642  12.840  0.00  0.00    +0.000 A 
ATOM     23  C   UNL     1       6.747   2.590  12.228  0.00  0.00    +0.000 A 
ATOM     24  C   UNL     1       6.146   1.831  11.223  0.00  0.00    +0.000 A 
ATOM     25  C   UNL     1       4.845   2.118  10.818  0.00  0.00    +0.000 A 
ATOM     26  C   UNL     1       4.145   3.165  11.415  0.00  0.00    +0.000 A 
ATOM     27  C   UNL     1       4.744   3.925  12.422  0.00  0.00    +0.000 A 
ENDBRANCH  21  22
ENDBRANCH  20  21
ENDBRANCH   4  20
TORSDOF 5
ENDMDL
