MODEL 1
REMARK VINA RESULT:      -7.3      0.000      0.000
REMARK  Name = 
REMARK  2 active torsions:
REMARK  status: ('A' for Active; 'I' for Inactive)
REMARK    1  A    between atoms: N_3  and  C_4
REMARK    2  A    between atoms: C_4  and  C_5
REMARK                            x       y       z     vdW  Elec       q    Type
REMARK                         _______ _______ _______ _____ _____    ______ ____
ROOT
ATOM      1  O   UNL     1      -1.839  10.474  18.603  0.00  0.00    +0.000 OA
ATOM      2  C   UNL     1      -1.108  11.237  19.212  0.00  0.00    +0.000 C 
ATOM      3  N   UNL     1       0.309  11.340  19.141  0.00  0.00    +0.000 N 
ATOM      4  C   UNL     1       0.703  12.532  19.786  0.00  0.00    +0.000 A 
ATOM      5  C   UNL     1       1.868  12.873  20.429  0.00  0.00    +0.000 A 
ATOM      6  C   UNL     1       1.910  14.137  21.035  0.00  0.00    +0.000 A 
ATOM      7  C   UNL     1       0.875  15.070  20.823  0.00  0.00    +0.000 A 
ATOM      8  C   UNL     1      -0.333  14.658  20.270  0.00  0.00    +0.000 A 
ATOM      9  C   UNL     1      -0.433  13.313  19.996  0.00  0.00    +0.000 A 
ATOM     10  C   UNL     1      -1.522  12.299  20.254  0.00  0.00    +0.000 C 
ATOM     11  C   UNL     1      -3.007  12.630  20.374  0.00  0.00    +0.000 C 
ATOM     12  N   UNL     1      -3.441  12.607  21.771  0.00  0.00    +0.000 N 
ATOM     13  N   UNL     1      -4.734  12.582  22.125  0.00  0.00    +0.000 NA
ATOM     14  N   UNL     1      -4.782  12.333  23.433  0.00  0.00    +0.000 NA
ATOM     15  C   UNL     1      -3.503  12.199  23.896  0.00  0.00    +0.000 A 
ATOM     16  C   UNL     1      -2.641  12.415  22.852  0.00  0.00    +0.000 A 
ATOM     17  C   UNL     1      -1.208  12.287  22.675  0.00  0.00    +0.000 C 
ATOM     18  O   UNL     1      -1.082  11.551  21.467  0.00  0.00    +0.000 OA
ENDROOT
BRANCH   3  19
ATOM     19  C   UNL     1       1.124  10.563  18.265  0.00  0.00    +0.000 C 
BRANCH  19  20
ATOM     20  C   UNL     1       1.507   9.229  18.848  0.00  0.00    +0.000 A 
ATOM     21  C   UNL     1       2.140   8.264  18.051  0.00  0.00    +0.000 A 
ATOM     22  C   UNL     1       2.432   7.004  18.571  0.00  0.00    +0.000 A 
ATOM     23  C   UNL     1       2.099   6.711  19.890  0.00  0.00    +0.000 A 
ATOM     24 BR   UNL     1       2.405   4.975  20.572  0.00  0.00    +0.000 Br
ATOM     25  C   UNL     1       1.510   7.676  20.707  0.00  0.00    +0.000 A 
ATOM     26  C   UNL     1       1.221   8.936  20.188  0.00  0.00    +0.000 A 
ENDBRANCH  19  20
ENDBRANCH   3  19
TORSDOF 2
ENDMDL
MODEL 2
REMARK VINA RESULT:      -7.1      4.714      9.150
REMARK  Name = 
REMARK  2 active torsions:
REMARK  status: ('A' for Active; 'I' for Inactive)
REMARK    1  A    between atoms: N_3  and  C_4
REMARK    2  A    between atoms: C_4  and  C_5
REMARK                            x       y       z     vdW  Elec       q    Type
REMARK                         _______ _______ _______ _____ _____    ______ ____
ROOT
ATOM      1  O   UNL     1       3.515   8.850  17.942  0.00  0.00    +0.000 OA
ATOM      2  C   UNL     1       3.198   7.754  18.372  0.00  0.00    +0.000 C 
ATOM      3  N   UNL     1       2.371   7.454  19.490  0.00  0.00    +0.000 N 
ATOM      4  C   UNL     1       2.044   6.082  19.449  0.00  0.00    +0.000 A 
ATOM      5  C   UNL     1       1.733   5.193  20.448  0.00  0.00    +0.000 A 
ATOM      6  C   UNL     1       1.524   3.860  20.067  0.00  0.00    +0.000 A 
ATOM      7  C   UNL     1       1.449   3.506  18.705  0.00  0.00    +0.000 A 
ATOM      8  C   UNL     1       1.878   4.398  17.728  0.00  0.00    +0.000 A 
ATOM      9  C   UNL     1       2.393   5.586  18.193  0.00  0.00    +0.000 A 
ATOM     10  C   UNL     1       3.628   6.374  17.827  0.00  0.00    +0.000 C 
ATOM     11  C   UNL     1       4.312   6.335  16.463  0.00  0.00    +0.000 C 
ATOM     12  N   UNL     1       5.533   5.529  16.509  0.00  0.00    +0.000 N 
ATOM     13  N   UNL     1       6.458   5.564  15.539  0.00  0.00    +0.000 NA
ATOM     14  N   UNL     1       7.528   4.910  15.989  0.00  0.00    +0.000 NA
ATOM     15  C   UNL     1       7.265   4.466  17.254  0.00  0.00    +0.000 A 
ATOM     16  C   UNL     1       5.980   4.819  17.578  0.00  0.00    +0.000 A 
ATOM     17  C   UNL     1       5.183   4.756  18.787  0.00  0.00    +0.000 C 
ATOM     18  O   UNL     1       4.625   6.057  18.891  0.00  0.00    +0.000 OA
ENDROOT
BRANCH   3  19
ATOM     19  C   UNL     1       1.714   8.440  20.285  0.00  0.00    +0.000 C 
BRANCH  19  20
ATOM     20  C   UNL     1       0.647   9.187  19.529  0.00  0.00    +0.000 A 
ATOM     21  C   UNL     1      -0.245  10.028  20.210  0.00  0.00    +0.000 A 
ATOM     22  C   UNL     1      -1.276  10.666  19.521  0.00  0.00    +0.000 A 
ATOM     23  C   UNL     1      -1.410  10.470  18.150  0.00  0.00    +0.000 A 
ATOM     24 BR   UNL     1      -2.860  11.255  17.227  0.00  0.00    +0.000 Br
ATOM     25  C   UNL     1      -0.502   9.674  17.452  0.00  0.00    +0.000 A 
ATOM     26  C   UNL     1       0.529   9.038  18.140  0.00  0.00    +0.000 A 
ENDBRANCH  19  20
ENDBRANCH   3  19
TORSDOF 2
ENDMDL
MODEL 3
REMARK VINA RESULT:      -7.0      4.621      9.139
REMARK  Name = 
REMARK  2 active torsions:
REMARK  status: ('A' for Active; 'I' for Inactive)
REMARK    1  A    between atoms: N_3  and  C_4
REMARK    2  A    between atoms: C_4  and  C_5
REMARK                            x       y       z     vdW  Elec       q    Type
REMARK                         _______ _______ _______ _____ _____    ______ ____
ROOT
ATOM      1  O   UNL     1       3.159   8.633  18.555  0.00  0.00    +0.000 OA
ATOM      2  C   UNL     1       2.899   7.477  18.845  0.00  0.00    +0.000 C 
ATOM      3  N   UNL     1       2.064   7.002  19.895  0.00  0.00    +0.000 N 
ATOM      4  C   UNL     1       1.822   5.628  19.685  0.00  0.00    +0.000 A 
ATOM      5  C   UNL     1       1.542   4.611  20.565  0.00  0.00    +0.000 A 
ATOM      6  C   UNL     1       1.424   3.322  20.027  0.00  0.00    +0.000 A 
ATOM      7  C   UNL     1       1.406   3.126  18.632  0.00  0.00    +0.000 A 
ATOM      8  C   UNL     1       1.804   4.148  17.778  0.00  0.00    +0.000 A 
ATOM      9  C   UNL     1       2.233   5.302  18.392  0.00  0.00    +0.000 A 
ATOM     10  C   UNL     1       3.427   6.198  18.160  0.00  0.00    +0.000 C 
ATOM     11  C   UNL     1       4.146   6.358  16.823  0.00  0.00    +0.000 C 
ATOM     12  N   UNL     1       5.412   5.625  16.815  0.00  0.00    +0.000 N 
ATOM     13  N   UNL     1       6.357   5.826  15.886  0.00  0.00    +0.000 NA
ATOM     14  N   UNL     1       7.454   5.187  16.292  0.00  0.00    +0.000 NA
ATOM     15  C   UNL     1       7.187   4.583  17.489  0.00  0.00    +0.000 A 
ATOM     16  C   UNL     1       5.875   4.822  17.809  0.00  0.00    +0.000 A 
ATOM     17  C   UNL     1       5.053   4.572  18.976  0.00  0.00    +0.000 C 
ATOM     18  O   UNL     1       4.414   5.817  19.212  0.00  0.00    +0.000 OA
ENDROOT
BRANCH   3  19
ATOM     19  C   UNL     1       1.328   7.849  20.776  0.00  0.00    +0.000 C 
BRANCH  19  20
ATOM     20  C   UNL     1       0.922   9.150  20.137  0.00  0.00    +0.000 A 
ATOM     21  C   UNL     1       1.282  10.371  20.727  0.00  0.00    +0.000 A 
ATOM     22  C   UNL     1       0.848  11.575  20.173  0.00  0.00    +0.000 A 
ATOM     23  C   UNL     1       0.061  11.559  19.025  0.00  0.00    +0.000 A 
ATOM     24 BR   UNL     1      -0.608  13.182  18.325  0.00  0.00    +0.000 Br
ATOM     25  C   UNL     1      -0.265  10.355  18.402  0.00  0.00    +0.000 A 
ATOM     26  C   UNL     1       0.170   9.152  18.954  0.00  0.00    +0.000 A 
ENDBRANCH  19  20
ENDBRANCH   3  19
TORSDOF 2
ENDMDL
MODEL 4
REMARK VINA RESULT:      -6.8      4.631      8.149
REMARK  Name = 
REMARK  2 active torsions:
REMARK  status: ('A' for Active; 'I' for Inactive)
REMARK    1  A    between atoms: N_3  and  C_4
REMARK    2  A    between atoms: C_4  and  C_5
REMARK                            x       y       z     vdW  Elec       q    Type
REMARK                         _______ _______ _______ _____ _____    ______ ____
ROOT
ATOM      1  O   UNL     1       1.670   7.824  20.282  0.00  0.00    +0.000 OA
ATOM      2  C   UNL     1       2.352   7.391  19.369  0.00  0.00    +0.000 C 
ATOM      3  N   UNL     1       2.857   8.095  18.240  0.00  0.00    +0.000 N 
ATOM      4  C   UNL     1       3.820   7.285  17.603  0.00  0.00    +0.000 A 
ATOM      5  C   UNL     1       4.231   7.222  16.293  0.00  0.00    +0.000 A 
ATOM      6  C   UNL     1       5.176   6.237  15.973  0.00  0.00    +0.000 A 
ATOM      7  C   UNL     1       5.805   5.488  16.987  0.00  0.00    +0.000 A 
ATOM      8  C   UNL     1       5.290   5.493  18.279  0.00  0.00    +0.000 A 
ATOM      9  C   UNL     1       4.143   6.232  18.459  0.00  0.00    +0.000 A 
ATOM     10  C   UNL     1       2.844   5.941  19.173  0.00  0.00    +0.000 C 
ATOM     11  C   UNL     1       2.697   4.980  20.349  0.00  0.00    +0.000 C 
ATOM     12  N   UNL     1       2.086   3.719  19.926  0.00  0.00    +0.000 N 
ATOM     13  N   UNL     1       1.591   2.828  20.797  0.00  0.00    +0.000 NA
ATOM     14  N   UNL     1       0.912   1.922  20.094  0.00  0.00    +0.000 NA
ATOM     15  C   UNL     1       0.986   2.256  18.771  0.00  0.00    +0.000 A 
ATOM     16  C   UNL     1       1.768   3.376  18.651  0.00  0.00    +0.000 A 
ATOM     17  C   UNL     1       2.104   4.267  17.558  0.00  0.00    +0.000 C 
ATOM     18  O   UNL     1       1.882   5.561  18.098  0.00  0.00    +0.000 OA
ENDROOT
BRANCH   3  19
ATOM     19  C   UNL     1       2.675   9.493  18.023  0.00  0.00    +0.000 C 
BRANCH  19  20
ATOM     20  C   UNL     1       1.245   9.933  18.194  0.00  0.00    +0.000 A 
ATOM     21  C   UNL     1       0.221   9.309  17.467  0.00  0.00    +0.000 A 
ATOM     22  C   UNL     1      -1.094   9.762  17.573  0.00  0.00    +0.000 A 
ATOM     23  C   UNL     1      -1.386  10.833  18.413  0.00  0.00    +0.000 A 
ATOM     24 BR   UNL     1      -3.148  11.511  18.490  0.00  0.00    +0.000 Br
ATOM     25  C   UNL     1      -0.385  11.432  19.177  0.00  0.00    +0.000 A 
ATOM     26  C   UNL     1       0.928  10.979  19.072  0.00  0.00    +0.000 A 
ENDBRANCH  19  20
ENDBRANCH   3  19
TORSDOF 2
ENDMDL
MODEL 5
REMARK VINA RESULT:      -6.7      0.975      1.133
REMARK  Name = 
REMARK  2 active torsions:
REMARK  status: ('A' for Active; 'I' for Inactive)
REMARK    1  A    between atoms: N_3  and  C_4
REMARK    2  A    between atoms: C_4  and  C_5
REMARK                            x       y       z     vdW  Elec       q    Type
REMARK                         _______ _______ _______ _____ _____    ______ ____
ROOT
ATOM      1  O   UNL     1      -2.478  11.351  18.893  0.00  0.00    +0.000 OA
ATOM      2  C   UNL     1      -1.780  12.050  19.609  0.00  0.00    +0.000 C 
ATOM      3  N   UNL     1      -0.373  12.248  19.540  0.00  0.00    +0.000 N 
ATOM      4  C   UNL     1      -0.035  13.342  20.365  0.00  0.00    +0.000 A 
ATOM      5  C   UNL     1       1.121  13.646  21.041  0.00  0.00    +0.000 A 
ATOM      6  C   UNL     1       1.102  14.797  21.842  0.00  0.00    +0.000 A 
ATOM      7  C   UNL     1       0.011  15.687  21.793  0.00  0.00    +0.000 A 
ATOM      8  C   UNL     1      -1.182  15.298  21.194  0.00  0.00    +0.000 A 
ATOM      9  C   UNL     1      -1.210  14.010  20.709  0.00  0.00    +0.000 A 
ATOM     10  C   UNL     1      -2.234  12.904  20.813  0.00  0.00    +0.000 C 
ATOM     11  C   UNL     1      -3.732  13.123  20.999  0.00  0.00    +0.000 C 
ATOM     12  N   UNL     1      -4.136  12.850  22.379  0.00  0.00    +0.000 N 
ATOM     13  N   UNL     1      -5.418  12.691  22.739  0.00  0.00    +0.000 NA
ATOM     14  N   UNL     1      -5.425  12.234  23.990  0.00  0.00    +0.000 NA
ATOM     15  C   UNL     1      -4.131  12.105  24.412  0.00  0.00    +0.000 A 
ATOM     16  C   UNL     1      -3.304  12.536  23.407  0.00  0.00    +0.000 A 
ATOM     17  C   UNL     1      -1.870  12.524  23.196  0.00  0.00    +0.000 C 
ATOM     18  O   UNL     1      -1.726  12.000  21.885  0.00  0.00    +0.000 OA
ENDROOT
BRANCH   3  19
ATOM     19  C   UNL     1       0.468  11.671  18.542  0.00  0.00    +0.000 C 
BRANCH  19  20
ATOM     20  C   UNL     1       1.003  10.320  18.934  0.00  0.00    +0.000 A 
ATOM     21  C   UNL     1       1.706   9.541  18.004  0.00  0.00    +0.000 A 
ATOM     22  C   UNL     1       2.142   8.260  18.345  0.00  0.00    +0.000 A 
ATOM     23  C   UNL     1       1.882   7.763  19.618  0.00  0.00    +0.000 A 
ATOM     24 BR   UNL     1       2.386   5.995  20.055  0.00  0.00    +0.000 Br
ATOM     25  C   UNL     1       1.224   8.544  20.568  0.00  0.00    +0.000 A 
ATOM     26  C   UNL     1       0.791   9.824  20.227  0.00  0.00    +0.000 A 
ENDBRANCH  19  20
ENDBRANCH   3  19
TORSDOF 2
ENDMDL
MODEL 6
REMARK VINA RESULT:      -6.6      2.902      4.365
REMARK  Name = 
REMARK  2 active torsions:
REMARK  status: ('A' for Active; 'I' for Inactive)
REMARK    1  A    between atoms: N_3  and  C_4
REMARK    2  A    between atoms: C_4  and  C_5
REMARK                            x       y       z     vdW  Elec       q    Type
REMARK                         _______ _______ _______ _____ _____    ______ ____
ROOT
ATOM      1  O   UNL     1       1.516  10.585  22.076  0.00  0.00    +0.000 OA
ATOM      2  C   UNL     1       0.821  10.704  21.081  0.00  0.00    +0.000 C 
ATOM      3  N   UNL     1       0.373   9.685  20.196  0.00  0.00    +0.000 N 
ATOM      4  C   UNL     1      -0.629  10.227  19.362  0.00  0.00    +0.000 A 
ATOM      5  C   UNL     1      -1.025   9.898  18.089  0.00  0.00    +0.000 A 
ATOM      6  C   UNL     1      -2.023  10.695  17.510  0.00  0.00    +0.000 A 
ATOM      7  C   UNL     1      -2.707  11.659  18.278  0.00  0.00    +0.000 A 
ATOM      8  C   UNL     1      -2.209  12.045  19.518  0.00  0.00    +0.000 A 
ATOM      9  C   UNL     1      -1.023  11.456  19.891  0.00  0.00    +0.000 A 
ATOM     10  C   UNL     1       0.248  12.011  20.491  0.00  0.00    +0.000 C 
ATOM     11  C   UNL     1       0.324  13.269  21.351  0.00  0.00    +0.000 C 
ATOM     12  N   UNL     1       0.865  14.396  20.590  0.00  0.00    +0.000 N 
ATOM     13  N   UNL     1       1.297  15.522  21.176  0.00  0.00    +0.000 NA
ATOM     14  N   UNL     1       1.930  16.235  20.245  0.00  0.00    +0.000 NA
ATOM     15  C   UNL     1       1.893  15.542  19.067  0.00  0.00    +0.000 A 
ATOM     16  C   UNL     1       1.179  14.388  19.268  0.00  0.00    +0.000 A 
ATOM     17  C   UNL     1       0.909  13.209  18.470  0.00  0.00    +0.000 C 
ATOM     18  O   UNL     1       1.199  12.132  19.348  0.00  0.00    +0.000 OA
ENDROOT
BRANCH   3  19
ATOM     19  C   UNL     1       0.639   8.295  20.377  0.00  0.00    +0.000 C 
BRANCH  19  20
ATOM     20  C   UNL     1       1.757   7.792  19.503  0.00  0.00    +0.000 A 
ATOM     21  C   UNL     1       2.164   8.529  18.382  0.00  0.00    +0.000 A 
ATOM     22  C   UNL     1       3.152   8.030  17.533  0.00  0.00    +0.000 A 
ATOM     23  C   UNL     1       3.739   6.799  17.810  0.00  0.00    +0.000 A 
ATOM     24 BR   UNL     1       5.009   6.075  16.614  0.00  0.00    +0.000 Br
ATOM     25  C   UNL     1       3.376   6.078  18.947  0.00  0.00    +0.000 A 
ATOM     26  C   UNL     1       2.391   6.577  19.796  0.00  0.00    +0.000 A 
ENDBRANCH  19  20
ENDBRANCH   3  19
TORSDOF 2
ENDMDL
MODEL 7
REMARK VINA RESULT:      -6.4      3.606      5.990
REMARK  Name = 
REMARK  2 active torsions:
REMARK  status: ('A' for Active; 'I' for Inactive)
REMARK    1  A    between atoms: N_3  and  C_4
REMARK    2  A    between atoms: C_4  and  C_5
REMARK                            x       y       z     vdW  Elec       q    Type
REMARK                         _______ _______ _______ _____ _____    ______ ____
ROOT
ATOM      1  O   UNL     1      -0.383  14.896  23.541  0.00  0.00    +0.000 OA
ATOM      2  C   UNL     1      -0.408  14.111  22.608  0.00  0.00    +0.000 C 
ATOM      3  N   UNL     1       0.462  14.056  21.483  0.00  0.00    +0.000 N 
ATOM      4  C   UNL     1       0.250  12.832  20.815  0.00  0.00    +0.000 A 
ATOM      5  C   UNL     1       0.410  12.478  19.497  0.00  0.00    +0.000 A 
ATOM      6  C   UNL     1       0.037  11.174  19.142  0.00  0.00    +0.000 A 
ATOM      7  C   UNL     1      -0.302  10.229  20.131  0.00  0.00    +0.000 A 
ATOM      8  C   UNL     1      -0.565  10.645  21.432  0.00  0.00    +0.000 A 
ATOM      9  C   UNL     1      -0.504  12.003  21.645  0.00  0.00    +0.000 A 
ATOM     10  C   UNL     1      -1.414  12.961  22.377  0.00  0.00    +0.000 C 
ATOM     11  C   UNL     1      -2.327  12.577  23.539  0.00  0.00    +0.000 C 
ATOM     12  N   UNL     1      -3.720  12.482  23.103  0.00  0.00    +0.000 N 
ATOM     13  N   UNL     1      -4.746  12.441  23.966  0.00  0.00    +0.000 NA
ATOM     14  N   UNL     1      -5.865  12.590  23.259  0.00  0.00    +0.000 NA
ATOM     15  C   UNL     1      -5.531  12.726  21.941  0.00  0.00    +0.000 A 
ATOM     16  C   UNL     1      -4.168  12.616  21.827  0.00  0.00    +0.000 A 
ATOM     17  C   UNL     1      -3.221  12.800  20.746  0.00  0.00    +0.000 C 
ATOM     18  O   UNL     1      -2.218  13.629  21.313  0.00  0.00    +0.000 OA
ENDROOT
BRANCH   3  19
ATOM     19  C   UNL     1       1.580  14.921  21.296  0.00  0.00    +0.000 C 
BRANCH  19  20
ATOM     20  C   UNL     1       1.397  15.877  20.148  0.00  0.00    +0.000 A 
ATOM     21  C   UNL     1       0.176  16.545  19.971  0.00  0.00    +0.000 A 
ATOM     22  C   UNL     1      -0.017  17.377  18.868  0.00  0.00    +0.000 A 
ATOM     23  C   UNL     1       1.012  17.548  17.948  0.00  0.00    +0.000 A 
ATOM     24 BR   UNL     1       0.724  18.598  16.403  0.00  0.00    +0.000 Br
ATOM     25  C   UNL     1       2.246  16.927  18.136  0.00  0.00    +0.000 A 
ATOM     26  C   UNL     1       2.440  16.098  19.238  0.00  0.00    +0.000 A 
ENDBRANCH  19  20
ENDBRANCH   3  19
TORSDOF 2
ENDMDL
MODEL 8
REMARK VINA RESULT:      -6.4      3.039      5.520
REMARK  Name = 
REMARK  2 active torsions:
REMARK  status: ('A' for Active; 'I' for Inactive)
REMARK    1  A    between atoms: N_3  and  C_4
REMARK    2  A    between atoms: C_4  and  C_5
REMARK                            x       y       z     vdW  Elec       q    Type
REMARK                         _______ _______ _______ _____ _____    ______ ____
ROOT
ATOM      1  O   UNL     1      -2.408  14.481  20.468  0.00  0.00    +0.000 OA
ATOM      2  C   UNL     1      -3.226  14.010  21.240  0.00  0.00    +0.000 C 
ATOM      3  N   UNL     1      -2.992  13.399  22.503  0.00  0.00    +0.000 N 
ATOM      4  C   UNL     1      -4.229  13.264  23.169  0.00  0.00    +0.000 A 
ATOM      5  C   UNL     1      -4.658  12.360  24.111  0.00  0.00    +0.000 A 
ATOM      6  C   UNL     1      -5.994  12.462  24.524  0.00  0.00    +0.000 A 
ATOM      7  C   UNL     1      -6.786  13.559  24.127  0.00  0.00    +0.000 A 
ATOM      8  C   UNL     1      -6.364  14.386  23.092  0.00  0.00    +0.000 A 
ATOM      9  C   UNL     1      -5.178  14.031  22.494  0.00  0.00    +0.000 A 
ATOM     10  C   UNL     1      -4.756  13.928  21.047  0.00  0.00    +0.000 C 
ATOM     11  C   UNL     1      -5.369  14.734  19.904  0.00  0.00    +0.000 C 
ATOM     12  N   UNL     1      -6.277  13.909  19.106  0.00  0.00    +0.000 N 
ATOM     13  N   UNL     1      -6.719  14.284  17.897  0.00  0.00    +0.000 NA
ATOM     14  N   UNL     1      -7.324  13.230  17.352  0.00  0.00    +0.000 NA
ATOM     15  C   UNL     1      -7.255  12.187  18.233  0.00  0.00    +0.000 A 
ATOM     16  C   UNL     1      -6.628  12.623  19.371  0.00  0.00    +0.000 A 
ATOM     17  C   UNL     1      -6.148  11.979  20.577  0.00  0.00    +0.000 C 
ATOM     18  O   UNL     1      -4.825  12.474  20.721  0.00  0.00    +0.000 OA
ENDROOT
BRANCH   3  19
ATOM     19  C   UNL     1      -1.706  13.287  23.111  0.00  0.00    +0.000 C 
BRANCH  19  20
ATOM     20  C   UNL     1      -0.944  12.073  22.651  0.00  0.00    +0.000 A 
ATOM     21  C   UNL     1       0.009  12.181  21.629  0.00  0.00    +0.000 A 
ATOM     22  C   UNL     1       0.665  11.045  21.155  0.00  0.00    +0.000 A 
ATOM     23  C   UNL     1       0.374   9.802  21.710  0.00  0.00    +0.000 A 
ATOM     24 BR   UNL     1       1.189   8.248  21.009  0.00  0.00    +0.000 Br
ATOM     25  C   UNL     1      -0.538   9.686  22.759  0.00  0.00    +0.000 A 
ATOM     26  C   UNL     1      -1.191  10.821  23.233  0.00  0.00    +0.000 A 
ENDBRANCH  19  20
ENDBRANCH   3  19
TORSDOF 2
ENDMDL
MODEL 9
REMARK VINA RESULT:      -6.3      2.616      4.186
REMARK  Name = 
REMARK  2 active torsions:
REMARK  status: ('A' for Active; 'I' for Inactive)
REMARK    1  A    between atoms: N_3  and  C_4
REMARK    2  A    between atoms: C_4  and  C_5
REMARK                            x       y       z     vdW  Elec       q    Type
REMARK                         _______ _______ _______ _____ _____    ______ ____
ROOT
ATOM      1  O   UNL     1       0.460  11.573  22.203  0.00  0.00    +0.000 OA
ATOM      2  C   UNL     1      -0.090  11.443  21.122  0.00  0.00    +0.000 C 
ATOM      3  N   UNL     1      -0.217  10.263  20.337  0.00  0.00    +0.000 N 
ATOM      4  C   UNL     1      -1.162  10.505  19.318  0.00  0.00    +0.000 A 
ATOM      5  C   UNL     1      -1.302   9.964  18.063  0.00  0.00    +0.000 A 
ATOM      6  C   UNL     1      -2.326  10.485  17.260  0.00  0.00    +0.000 A 
ATOM      7  C   UNL     1      -3.274  11.380  17.795  0.00  0.00    +0.000 A 
ATOM      8  C   UNL     1      -3.041  11.992  19.022  0.00  0.00    +0.000 A 
ATOM      9  C   UNL     1      -1.839  11.687  19.619  0.00  0.00    +0.000 A 
ATOM     10  C   UNL     1      -0.788  12.540  20.289  0.00  0.00    +0.000 C 
ATOM     11  C   UNL     1      -1.061  13.878  20.971  0.00  0.00    +0.000 C 
ATOM     12  N   UNL     1      -0.618  14.995  20.134  0.00  0.00    +0.000 N 
ATOM     13  N   UNL     1      -0.481  16.242  20.607  0.00  0.00    +0.000 NA
ATOM     14  N   UNL     1       0.148  16.953  19.674  0.00  0.00    +0.000 NA
ATOM     15  C   UNL     1       0.408  16.137  18.608  0.00  0.00    +0.000 A 
ATOM     16  C   UNL     1      -0.115  14.898  18.876  0.00  0.00    +0.000 A 
ATOM     17  C   UNL     1      -0.054  13.607  18.221  0.00  0.00    +0.000 C 
ATOM     18  O   UNL     1       0.287  12.712  19.269  0.00  0.00    +0.000 OA
ENDROOT
BRANCH   3  19
ATOM     19  C   UNL     1       0.258   8.980  20.741  0.00  0.00    +0.000 C 
BRANCH  19  20
ATOM     20  C   UNL     1       1.266   8.399  19.786  0.00  0.00    +0.000 A 
ATOM     21  C   UNL     1       1.845   7.148  20.042  0.00  0.00    +0.000 A 
ATOM     22  C   UNL     1       2.830   6.642  19.195  0.00  0.00    +0.000 A 
ATOM     23  C   UNL     1       3.229   7.382  18.086  0.00  0.00    +0.000 A 
ATOM     24 BR   UNL     1       4.628   6.744  16.987  0.00  0.00    +0.000 Br
ATOM     25  C   UNL     1       2.628   8.606  17.793  0.00  0.00    +0.000 A 
ATOM     26  C   UNL     1       1.644   9.111  18.639  0.00  0.00    +0.000 A 
ENDBRANCH  19  20
ENDBRANCH   3  19
TORSDOF 2
ENDMDL
