MODEL 1
REMARK VINA RESULT:      -7.4      0.000      0.000
REMARK  Name = 
REMARK  8 active torsions:
REMARK  status: ('A' for Active; 'I' for Inactive)
REMARK    1  A    between atoms: C_2  and  C_3
REMARK    2  A    between atoms: C_3  and  C_4
REMARK    3  A    between atoms: C_7  and  O_8
REMARK    4  A    between atoms: O_8  and  C_9
REMARK    5  A    between atoms: C_10  and  C_11
REMARK    6  A    between atoms: C_14  and  O_15
REMARK    7  A    between atoms: C_16  and  C_17
REMARK    8  A    between atoms: C_17  and  C_18
REMARK                            x       y       z     vdW  Elec       q    Type
REMARK                         _______ _______ _______ _____ _____    ______ ____
ROOT
ATOM      1  C   UNL     1       5.648   4.215  15.129  0.00  0.00    +0.000 A 
ATOM      2  C   UNL     1       6.907   4.686  15.493  0.00  0.00    +0.000 A 
ATOM      3  C   UNL     1       7.224   4.878  16.836  0.00  0.00    +0.000 A 
ATOM      4  C   UNL     1       6.289   4.609  17.846  0.00  0.00    +0.000 A 
ATOM      5  C   UNL     1       4.991   4.135  17.512  0.00  0.00    +0.000 A 
ATOM      6  C   UNL     1       4.702   3.960  16.137  0.00  0.00    +0.000 A 
ENDROOT
BRANCH   5   7
ATOM      7  C   UNL     1       3.938   3.831  18.531  0.00  0.00    +0.000 A 
ATOM      8  C   UNL     1       3.624   2.507  18.889  0.00  0.00    +0.000 A 
ATOM      9  C   UNL     1       2.619   2.215  19.821  0.00  0.00    +0.000 A 
ATOM     10  C   UNL     1       1.898   3.249  20.413  0.00  0.00    +0.000 A 
ATOM     11  C   UNL     1       2.198   4.579  20.123  0.00  0.00    +0.000 A 
ATOM     12  C   UNL     1       3.219   4.849  19.188  0.00  0.00    +0.000 A 
BRANCH  10  13
ATOM     13  O   UNL     1       0.888   2.968  21.287  0.00  0.00    +0.000 OA
ATOM     14  H   UNL     1       0.211   2.449  20.825  0.00  0.00    +0.000 HD
ENDBRANCH  10  13
BRANCH  11  15
ATOM     15  C   UNL     1       1.453   5.728  20.763  0.00  0.00    +0.000 C 
BRANCH  15  16
ATOM     16  C   UNL     1       1.919   7.077  20.290  0.00  0.00    +0.000 C 
ATOM     17  C   UNL     1       1.455   8.247  20.753  0.00  0.00    +0.000 C 
ENDBRANCH  15  16
ENDBRANCH  11  15
ENDBRANCH   5   7
BRANCH   4  18
ATOM     18  O   UNL     1       6.577   4.766  19.180  0.00  0.00    +0.000 OA
ATOM     19  C   UNL     1       7.656   5.616  19.545  0.00  0.00    +0.000 C 
ENDBRANCH   4  18
BRANCH   1  20
ATOM     20  C   UNL     1       5.319   3.985  13.672  0.00  0.00    +0.000 C 
BRANCH  20  22
ATOM     21  C   UNL     1       6.500   2.912  11.733  0.00  0.00    +0.000 C 
ATOM     22  C   UNL     1       6.529   3.662  12.843  0.00  0.00    +0.000 C 
ENDBRANCH  20  22
ENDBRANCH   1  20
TORSDOF 7
ENDMDL
MODEL 2
REMARK VINA RESULT:      -7.3      1.760      2.322
REMARK  Name = 
REMARK  8 active torsions:
REMARK  status: ('A' for Active; 'I' for Inactive)
REMARK    1  A    between atoms: C_2  and  C_3
REMARK    2  A    between atoms: C_3  and  C_4
REMARK    3  A    between atoms: C_7  and  O_8
REMARK    4  A    between atoms: O_8  and  C_9
REMARK    5  A    between atoms: C_10  and  C_11
REMARK    6  A    between atoms: C_14  and  O_15
REMARK    7  A    between atoms: C_16  and  C_17
REMARK    8  A    between atoms: C_17  and  C_18
REMARK                            x       y       z     vdW  Elec       q    Type
REMARK                         _______ _______ _______ _____ _____    ______ ____
ROOT
ATOM      1  C   UNL     1       5.934   3.861  13.266  0.00  0.00    +0.000 A 
ATOM      2  C   UNL     1       7.199   4.430  13.400  0.00  0.00    +0.000 A 
ATOM      3  C   UNL     1       7.575   5.035  14.597  0.00  0.00    +0.000 A 
ATOM      4  C   UNL     1       6.695   5.089  15.688  0.00  0.00    +0.000 A 
ATOM      5  C   UNL     1       5.394   4.527  15.587  0.00  0.00    +0.000 A 
ATOM      6  C   UNL     1       5.043   3.928  14.352  0.00  0.00    +0.000 A 
ENDROOT
BRANCH   5   7
ATOM      7  C   UNL     1       4.398   4.550  16.703  0.00  0.00    +0.000 A 
ATOM      8  C   UNL     1       3.874   3.362  17.245  0.00  0.00    +0.000 A 
ATOM      9  C   UNL     1       2.919   3.378  18.270  0.00  0.00    +0.000 A 
ATOM     10  C   UNL     1       2.461   4.593  18.774  0.00  0.00    +0.000 A 
ATOM     11  C   UNL     1       2.978   5.798  18.301  0.00  0.00    +0.000 A 
ATOM     12  C   UNL     1       3.944   5.757  17.273  0.00  0.00    +0.000 A 
BRANCH  10  13
ATOM     13  O   UNL     1       1.499   4.615  19.742  0.00  0.00    +0.000 OA
ATOM     14  H   UNL     1       1.180   3.709  19.885  0.00  0.00    +0.000 HD
ENDBRANCH  10  13
BRANCH  11  15
ATOM     15  C   UNL     1       2.522   7.135  18.839  0.00  0.00    +0.000 C 
BRANCH  15  16
ATOM     16  C   UNL     1       2.433   8.202  17.784  0.00  0.00    +0.000 C 
ATOM     17  C   UNL     1       1.753   9.351  17.920  0.00  0.00    +0.000 C 
ENDBRANCH  15  16
ENDBRANCH  11  15
ENDBRANCH   5   7
BRANCH   4  18
ATOM     18  O   UNL     1       7.043   5.657  16.889  0.00  0.00    +0.000 OA
ATOM     19  C   UNL     1       7.635   4.831  17.883  0.00  0.00    +0.000 C 
ENDBRANCH   4  18
BRANCH   1  20
ATOM     20  C   UNL     1       5.541   3.185  11.974  0.00  0.00    +0.000 C 
BRANCH  20  22
ATOM     21  C   UNL     1       3.570   3.589  10.472  0.00  0.00    +0.000 C 
ATOM     22  C   UNL     1       4.073   3.296  11.678  0.00  0.00    +0.000 C 
ENDBRANCH  20  22
ENDBRANCH   1  20
TORSDOF 7
ENDMDL
MODEL 3
REMARK VINA RESULT:      -7.3      1.567      2.734
REMARK  Name = 
REMARK  8 active torsions:
REMARK  status: ('A' for Active; 'I' for Inactive)
REMARK    1  A    between atoms: C_2  and  C_3
REMARK    2  A    between atoms: C_3  and  C_4
REMARK    3  A    between atoms: C_7  and  O_8
REMARK    4  A    between atoms: O_8  and  C_9
REMARK    5  A    between atoms: C_10  and  C_11
REMARK    6  A    between atoms: C_14  and  O_15
REMARK    7  A    between atoms: C_16  and  C_17
REMARK    8  A    between atoms: C_17  and  C_18
REMARK                            x       y       z     vdW  Elec       q    Type
REMARK                         _______ _______ _______ _____ _____    ______ ____
ROOT
ATOM      1  C   UNL     1       5.596   4.255  14.048  0.00  0.00    +0.000 A 
ATOM      2  C   UNL     1       6.952   4.562  14.128  0.00  0.00    +0.000 A 
ATOM      3  C   UNL     1       7.481   5.116  15.292  0.00  0.00    +0.000 A 
ATOM      4  C   UNL     1       6.665   5.380  16.403  0.00  0.00    +0.000 A 
ATOM      5  C   UNL     1       5.275   5.088  16.355  0.00  0.00    +0.000 A 
ATOM      6  C   UNL     1       4.772   4.534  15.152  0.00  0.00    +0.000 A 
ENDROOT
BRANCH   5   7
ATOM      7  C   UNL     1       4.340   5.346  17.495  0.00  0.00    +0.000 A 
ATOM      8  C   UNL     1       3.768   6.615  17.703  0.00  0.00    +0.000 A 
ATOM      9  C   UNL     1       2.915   6.869  18.785  0.00  0.00    +0.000 A 
ATOM     10  C   UNL     1       2.620   5.854  19.691  0.00  0.00    +0.000 A 
ATOM     11  C   UNL     1       3.128   4.569  19.508  0.00  0.00    +0.000 A 
ATOM     12  C   UNL     1       3.979   4.334  18.406  0.00  0.00    +0.000 A 
BRANCH  10  13
ATOM     13  O   UNL     1       1.826   6.109  20.772  0.00  0.00    +0.000 OA
ATOM     14  H   UNL     1       1.100   6.692  20.495  0.00  0.00    +0.000 HD
ENDBRANCH  10  13
BRANCH  11  15
ATOM     15  C   UNL     1       2.812   3.437  20.458  0.00  0.00    +0.000 C 
BRANCH  15  16
ATOM     16  C   UNL     1       1.912   2.391  19.859  0.00  0.00    +0.000 C 
ATOM     17  C   UNL     1       0.818   2.656  19.130  0.00  0.00    +0.000 C 
ENDBRANCH  15  16
ENDBRANCH  11  15
ENDBRANCH   5   7
BRANCH   4  18
ATOM     18  O   UNL     1       7.158   5.904  17.573  0.00  0.00    +0.000 OA
ATOM     19  C   UNL     1       7.550   7.270  17.591  0.00  0.00    +0.000 C 
ENDBRANCH   4  18
BRANCH   1  20
ATOM     20  C   UNL     1       5.034   3.631  12.793  0.00  0.00    +0.000 C 
BRANCH  20  22
ATOM     21  C   UNL     1       5.893   1.713  11.417  0.00  0.00    +0.000 C 
ATOM     22  C   UNL     1       6.074   2.917  11.977  0.00  0.00    +0.000 C 
ENDBRANCH  20  22
ENDBRANCH   1  20
TORSDOF 7
ENDMDL
MODEL 4
REMARK VINA RESULT:      -7.1      1.962      3.481
REMARK  Name = 
REMARK  8 active torsions:
REMARK  status: ('A' for Active; 'I' for Inactive)
REMARK    1  A    between atoms: C_2  and  C_3
REMARK    2  A    between atoms: C_3  and  C_4
REMARK    3  A    between atoms: C_7  and  O_8
REMARK    4  A    between atoms: O_8  and  C_9
REMARK    5  A    between atoms: C_10  and  C_11
REMARK    6  A    between atoms: C_14  and  O_15
REMARK    7  A    between atoms: C_16  and  C_17
REMARK    8  A    between atoms: C_17  and  C_18
REMARK                            x       y       z     vdW  Elec       q    Type
REMARK                         _______ _______ _______ _____ _____    ______ ____
ROOT
ATOM      1  C   UNL     1       5.684   3.613  12.727  0.00  0.00    +0.000 A 
ATOM      2  C   UNL     1       6.984   4.097  12.595  0.00  0.00    +0.000 A 
ATOM      3  C   UNL     1       7.596   4.767  13.652  0.00  0.00    +0.000 A 
ATOM      4  C   UNL     1       6.921   4.974  14.865  0.00  0.00    +0.000 A 
ATOM      5  C   UNL     1       5.592   4.502  15.034  0.00  0.00    +0.000 A 
ATOM      6  C   UNL     1       4.999   3.833  13.935  0.00  0.00    +0.000 A 
ENDROOT
BRANCH   5   7
ATOM      7  C   UNL     1       4.806   4.689  16.293  0.00  0.00    +0.000 A 
ATOM      8  C   UNL     1       4.375   5.962  16.709  0.00  0.00    +0.000 A 
ATOM      9  C   UNL     1       3.665   6.146  17.903  0.00  0.00    +0.000 A 
ATOM     10  C   UNL     1       3.374   5.053  18.714  0.00  0.00    +0.000 A 
ATOM     11  C   UNL     1       3.742   3.764  18.328  0.00  0.00    +0.000 A 
ATOM     12  C   UNL     1       4.450   3.603  17.118  0.00  0.00    +0.000 A 
BRANCH  10  13
ATOM     13  O   UNL     1       2.721   5.232  19.899  0.00  0.00    +0.000 OA
ATOM     14  H   UNL     1       2.557   4.363  20.300  0.00  0.00    +0.000 HD
ENDBRANCH  10  13
BRANCH  11  15
ATOM     15  C   UNL     1       3.423   2.551  19.171  0.00  0.00    +0.000 C 
BRANCH  15  16
ATOM     16  C   UNL     1       2.123   1.893  18.800  0.00  0.00    +0.000 C 
ATOM     17  C   UNL     1       0.957   2.541  18.656  0.00  0.00    +0.000 C 
ENDBRANCH  15  16
ENDBRANCH  11  15
ENDBRANCH   5   7
BRANCH   4  18
ATOM     18  O   UNL     1       7.504   5.611  15.934  0.00  0.00    +0.000 OA
ATOM     19  C   UNL     1       7.746   4.864  17.118  0.00  0.00    +0.000 C 
ENDBRANCH   4  18
BRANCH   1  20
ATOM     20  C   UNL     1       5.036   2.864  11.587  0.00  0.00    +0.000 C 
BRANCH  20  22
ATOM     21  C   UNL     1       3.284   3.754  10.024  0.00  0.00    +0.000 C 
ATOM     22  C   UNL     1       3.665   3.380  11.252  0.00  0.00    +0.000 C 
ENDBRANCH  20  22
ENDBRANCH   1  20
TORSDOF 7
ENDMDL
MODEL 5
REMARK VINA RESULT:      -7.0      2.019      6.692
REMARK  Name = 
REMARK  8 active torsions:
REMARK  status: ('A' for Active; 'I' for Inactive)
REMARK    1  A    between atoms: C_2  and  C_3
REMARK    2  A    between atoms: C_3  and  C_4
REMARK    3  A    between atoms: C_7  and  O_8
REMARK    4  A    between atoms: O_8  and  C_9
REMARK    5  A    between atoms: C_10  and  C_11
REMARK    6  A    between atoms: C_14  and  O_15
REMARK    7  A    between atoms: C_16  and  C_17
REMARK    8  A    between atoms: C_17  and  C_18
REMARK                            x       y       z     vdW  Elec       q    Type
REMARK                         _______ _______ _______ _____ _____    ______ ____
ROOT
ATOM      1  C   UNL     1       1.529   5.350  20.129  0.00  0.00    +0.000 A 
ATOM      2  C   UNL     1       0.998   4.064  20.198  0.00  0.00    +0.000 A 
ATOM      3  C   UNL     1       1.553   3.032  19.445  0.00  0.00    +0.000 A 
ATOM      4  C   UNL     1       2.649   3.262  18.600  0.00  0.00    +0.000 A 
ATOM      5  C   UNL     1       3.213   4.562  18.496  0.00  0.00    +0.000 A 
ATOM      6  C   UNL     1       2.617   5.588  19.271  0.00  0.00    +0.000 A 
ENDROOT
BRANCH   5   7
ATOM      7  C   UNL     1       4.377   4.886  17.614  0.00  0.00    +0.000 A 
ATOM      8  C   UNL     1       4.437   4.438  16.281  0.00  0.00    +0.000 A 
ATOM      9  C   UNL     1       5.538   4.714  15.460  0.00  0.00    +0.000 A 
ATOM     10  C   UNL     1       6.612   5.444  15.961  0.00  0.00    +0.000 A 
ATOM     11  C   UNL     1       6.585   5.946  17.261  0.00  0.00    +0.000 A 
ATOM     12  C   UNL     1       5.463   5.662  18.067  0.00  0.00    +0.000 A 
BRANCH  10  13
ATOM     13  O   UNL     1       7.707   5.677  15.179  0.00  0.00    +0.000 OA
ATOM     14  H   UNL     1       7.506   5.402  14.270  0.00  0.00    +0.000 HD
ENDBRANCH  10  13
BRANCH  11  15
ATOM     15  C   UNL     1       7.724   6.761  17.831  0.00  0.00    +0.000 C 
BRANCH  15  16
ATOM     16  C   UNL     1       7.577   8.238  17.589  0.00  0.00    +0.000 C 
ATOM     17  C   UNL     1       8.389   9.177  18.099  0.00  0.00    +0.000 C 
ENDBRANCH  15  16
ENDBRANCH  11  15
ENDBRANCH   5   7
BRANCH   4  18
ATOM     18  O   UNL     1       3.233   2.261  17.862  0.00  0.00    +0.000 OA
ATOM     19  C   UNL     1       3.801   1.155  18.549  0.00  0.00    +0.000 C 
ENDBRANCH   4  18
BRANCH   1  20
ATOM     20  C   UNL     1       0.940   6.459  20.967  0.00  0.00    +0.000 C 
BRANCH  20  22
ATOM     21  C   UNL     1       1.375   8.882  21.464  0.00  0.00    +0.000 C 
ATOM     22  C   UNL     1       1.588   7.791  20.716  0.00  0.00    +0.000 C 
ENDBRANCH  20  22
ENDBRANCH   1  20
TORSDOF 7
ENDMDL
MODEL 6
REMARK VINA RESULT:      -7.0      1.206      2.382
REMARK  Name = 
REMARK  8 active torsions:
REMARK  status: ('A' for Active; 'I' for Inactive)
REMARK    1  A    between atoms: C_2  and  C_3
REMARK    2  A    between atoms: C_3  and  C_4
REMARK    3  A    between atoms: C_7  and  O_8
REMARK    4  A    between atoms: O_8  and  C_9
REMARK    5  A    between atoms: C_10  and  C_11
REMARK    6  A    between atoms: C_14  and  O_15
REMARK    7  A    between atoms: C_16  and  C_17
REMARK    8  A    between atoms: C_17  and  C_18
REMARK                            x       y       z     vdW  Elec       q    Type
REMARK                         _______ _______ _______ _____ _____    ______ ____
ROOT
ATOM      1  C   UNL     1       5.771   4.496  14.825  0.00  0.00    +0.000 A 
ATOM      2  C   UNL     1       7.084   4.362  15.272  0.00  0.00    +0.000 A 
ATOM      3  C   UNL     1       7.380   4.472  16.629  0.00  0.00    +0.000 A 
ATOM      4  C   UNL     1       6.371   4.722  17.571  0.00  0.00    +0.000 A 
ATOM      5  C   UNL     1       5.022   4.873  17.153  0.00  0.00    +0.000 A 
ATOM      6  C   UNL     1       4.760   4.763  15.765  0.00  0.00    +0.000 A 
ENDROOT
BRANCH   5   7
ATOM      7  C   UNL     1       3.893   5.146  18.096  0.00  0.00    +0.000 A 
ATOM      8  C   UNL     1       3.693   6.424  18.652  0.00  0.00    +0.000 A 
ATOM      9  C   UNL     1       2.655   6.678  19.558  0.00  0.00    +0.000 A 
ATOM     10  C   UNL     1       1.793   5.651  19.934  0.00  0.00    +0.000 A 
ATOM     11  C   UNL     1       1.922   4.377  19.381  0.00  0.00    +0.000 A 
ATOM     12  C   UNL     1       2.970   4.147  18.465  0.00  0.00    +0.000 A 
BRANCH  10  13
ATOM     13  O   UNL     1       0.808   5.883  20.850  0.00  0.00    +0.000 OA
ATOM     14  H   UNL     1       0.308   6.669  20.578  0.00  0.00    +0.000 HD
ENDBRANCH  10  13
BRANCH  11  15
ATOM     15  C   UNL     1       0.992   3.244  19.748  0.00  0.00    +0.000 C 
BRANCH  15  16
ATOM     16  C   UNL     1       1.271   2.661  21.106  0.00  0.00    +0.000 C 
ATOM     17  C   UNL     1       2.485   2.604  21.674  0.00  0.00    +0.000 C 
ENDBRANCH  15  16
ENDBRANCH  11  15
ENDBRANCH   5   7
BRANCH   4  18
ATOM     18  O   UNL     1       6.626   4.813  18.918  0.00  0.00    +0.000 OA
ATOM     19  C   UNL     1       7.577   5.770  19.365  0.00  0.00    +0.000 C 
ENDBRANCH   4  18
BRANCH   1  20
ATOM     20  C   UNL     1       5.453   4.351  13.356  0.00  0.00    +0.000 C 
BRANCH  20  22
ATOM     21  C   UNL     1       5.747   2.534  11.647  0.00  0.00    +0.000 C 
ATOM     22  C   UNL     1       6.200   3.222  12.704  0.00  0.00    +0.000 C 
ENDBRANCH  20  22
ENDBRANCH   1  20
TORSDOF 7
ENDMDL
MODEL 7
REMARK VINA RESULT:      -7.0      1.777      3.140
REMARK  Name = 
REMARK  8 active torsions:
REMARK  status: ('A' for Active; 'I' for Inactive)
REMARK    1  A    between atoms: C_2  and  C_3
REMARK    2  A    between atoms: C_3  and  C_4
REMARK    3  A    between atoms: C_7  and  O_8
REMARK    4  A    between atoms: O_8  and  C_9
REMARK    5  A    between atoms: C_10  and  C_11
REMARK    6  A    between atoms: C_14  and  O_15
REMARK    7  A    between atoms: C_16  and  C_17
REMARK    8  A    between atoms: C_17  and  C_18
REMARK                            x       y       z     vdW  Elec       q    Type
REMARK                         _______ _______ _______ _____ _____    ______ ____
ROOT
ATOM      1  C   UNL     1       5.848   3.833  13.159  0.00  0.00    +0.000 A 
ATOM      2  C   UNL     1       7.192   4.191  13.227  0.00  0.00    +0.000 A 
ATOM      3  C   UNL     1       7.698   4.816  14.365  0.00  0.00    +0.000 A 
ATOM      4  C   UNL     1       6.869   5.104  15.460  0.00  0.00    +0.000 A 
ATOM      5  C   UNL     1       5.491   4.762  15.424  0.00  0.00    +0.000 A 
ATOM      6  C   UNL     1       5.011   4.135  14.248  0.00  0.00    +0.000 A 
ENDROOT
BRANCH   5   7
ATOM      7  C   UNL     1       4.544   5.040  16.549  0.00  0.00    +0.000 A 
ATOM      8  C   UNL     1       4.260   6.355  16.962  0.00  0.00    +0.000 A 
ATOM      9  C   UNL     1       3.397   6.620  18.034  0.00  0.00    +0.000 A 
ATOM     10  C   UNL     1       2.801   5.567  18.723  0.00  0.00    +0.000 A 
ATOM     11  C   UNL     1       3.016   4.248  18.328  0.00  0.00    +0.000 A 
ATOM     12  C   UNL     1       3.883   4.005  17.241  0.00  0.00    +0.000 A 
BRANCH  10  13
ATOM     13  O   UNL     1       1.994   5.819  19.795  0.00  0.00    +0.000 OA
ATOM     14  H   UNL     1       2.369   6.559  20.301  0.00  0.00    +0.000 HD
ENDBRANCH  10  13
BRANCH  11  15
ATOM     15  C   UNL     1       2.369   3.081  19.038  0.00  0.00    +0.000 C 
BRANCH  15  16
ATOM     16  C   UNL     1       3.030   2.737  20.343  0.00  0.00    +0.000 C 
ATOM     17  C   UNL     1       2.412   2.743  21.534  0.00  0.00    +0.000 C 
ENDBRANCH  15  16
ENDBRANCH  11  15
ENDBRANCH   5   7
BRANCH   4  18
ATOM     18  O   UNL     1       7.341   5.699  16.605  0.00  0.00    +0.000 OA
ATOM     19  C   UNL     1       7.646   4.873  17.721  0.00  0.00    +0.000 C 
ENDBRANCH   4  18
BRANCH   1  20
ATOM     20  C   UNL     1       5.312   3.132  11.933  0.00  0.00    +0.000 C 
BRANCH  20  22
ATOM     21  C   UNL     1       3.374   3.357  10.353  0.00  0.00    +0.000 C 
ATOM     22  C   UNL     1       3.941   3.605  11.540  0.00  0.00    +0.000 C 
ENDBRANCH  20  22
ENDBRANCH   1  20
TORSDOF 7
ENDMDL
MODEL 8
REMARK VINA RESULT:      -6.9      1.532      1.933
REMARK  Name = 
REMARK  8 active torsions:
REMARK  status: ('A' for Active; 'I' for Inactive)
REMARK    1  A    between atoms: C_2  and  C_3
REMARK    2  A    between atoms: C_3  and  C_4
REMARK    3  A    between atoms: C_7  and  O_8
REMARK    4  A    between atoms: O_8  and  C_9
REMARK    5  A    between atoms: C_10  and  C_11
REMARK    6  A    between atoms: C_14  and  O_15
REMARK    7  A    between atoms: C_16  and  C_17
REMARK    8  A    between atoms: C_17  and  C_18
REMARK                            x       y       z     vdW  Elec       q    Type
REMARK                         _______ _______ _______ _____ _____    ______ ____
ROOT
ATOM      1  C   UNL     1       5.831   4.033  13.632  0.00  0.00    +0.000 A 
ATOM      2  C   UNL     1       7.100   4.576  13.819  0.00  0.00    +0.000 A 
ATOM      3  C   UNL     1       7.459   5.119  15.050  0.00  0.00    +0.000 A 
ATOM      4  C   UNL     1       6.556   5.136  16.124  0.00  0.00    +0.000 A 
ATOM      5  C   UNL     1       5.249   4.600  15.969  0.00  0.00    +0.000 A 
ATOM      6  C   UNL     1       4.917   4.064  14.701  0.00  0.00    +0.000 A 
ENDROOT
BRANCH   5   7
ATOM      7  C   UNL     1       4.230   4.587  17.064  0.00  0.00    +0.000 A 
ATOM      8  C   UNL     1       3.699   3.381  17.560  0.00  0.00    +0.000 A 
ATOM      9  C   UNL     1       2.722   3.364  18.565  0.00  0.00    +0.000 A 
ATOM     10  C   UNL     1       2.249   4.562  19.093  0.00  0.00    +0.000 A 
ATOM     11  C   UNL     1       2.771   5.782  18.667  0.00  0.00    +0.000 A 
ATOM     12  C   UNL     1       3.759   5.774  17.659  0.00  0.00    +0.000 A 
BRANCH  10  13
ATOM     13  O   UNL     1       1.266   4.552  20.041  0.00  0.00    +0.000 OA
ATOM     14  H   UNL     1       0.522   4.020  19.713  0.00  0.00    +0.000 HD
ENDBRANCH  10  13
BRANCH  11  15
ATOM     15  C   UNL     1       2.297   7.101  19.234  0.00  0.00    +0.000 C 
BRANCH  15  16
ATOM     16  C   UNL     1       2.527   8.263  18.308  0.00  0.00    +0.000 C 
ATOM     17  C   UNL     1       1.551   8.960  17.706  0.00  0.00    +0.000 C 
ENDBRANCH  15  16
ENDBRANCH  11  15
ENDBRANCH   5   7
BRANCH   4  18
ATOM     18  O   UNL     1       6.886   5.643  17.358  0.00  0.00    +0.000 OA
ATOM     19  C   UNL     1       7.441   6.949  17.427  0.00  0.00    +0.000 C 
ENDBRANCH   4  18
BRANCH   1  20
ATOM     20  C   UNL     1       5.456   3.423  12.302  0.00  0.00    +0.000 C 
BRANCH  20  22
ATOM     21  C   UNL     1       6.297   1.331  11.196  0.00  0.00    +0.000 C 
ATOM     22  C   UNL     1       6.529   2.531  11.744  0.00  0.00    +0.000 C 
ENDBRANCH  20  22
ENDBRANCH   1  20
TORSDOF 7
ENDMDL
MODEL 9
REMARK VINA RESULT:      -6.9      2.098      6.952
REMARK  Name = 
REMARK  8 active torsions:
REMARK  status: ('A' for Active; 'I' for Inactive)
REMARK    1  A    between atoms: C_2  and  C_3
REMARK    2  A    between atoms: C_3  and  C_4
REMARK    3  A    between atoms: C_7  and  O_8
REMARK    4  A    between atoms: O_8  and  C_9
REMARK    5  A    between atoms: C_10  and  C_11
REMARK    6  A    between atoms: C_14  and  O_15
REMARK    7  A    between atoms: C_16  and  C_17
REMARK    8  A    between atoms: C_17  and  C_18
REMARK                            x       y       z     vdW  Elec       q    Type
REMARK                         _______ _______ _______ _____ _____    ______ ____
ROOT
ATOM      1  C   UNL     1       2.460   4.806  20.600  0.00  0.00    +0.000 A 
ATOM      2  C   UNL     1       1.715   5.976  20.731  0.00  0.00    +0.000 A 
ATOM      3  C   UNL     1       1.956   7.061  19.890  0.00  0.00    +0.000 A 
ATOM      4  C   UNL     1       2.952   7.004  18.903  0.00  0.00    +0.000 A 
ATOM      5  C   UNL     1       3.738   5.830  18.746  0.00  0.00    +0.000 A 
ATOM      6  C   UNL     1       3.469   4.751  19.623  0.00  0.00    +0.000 A 
ENDROOT
BRANCH   5   7
ATOM      7  C   UNL     1       4.819   5.695  17.721  0.00  0.00    +0.000 A 
ATOM      8  C   UNL     1       6.157   6.018  18.018  0.00  0.00    +0.000 A 
ATOM      9  C   UNL     1       7.169   5.921  17.054  0.00  0.00    +0.000 A 
ATOM     10  C   UNL     1       6.860   5.502  15.762  0.00  0.00    +0.000 A 
ATOM     11  C   UNL     1       5.559   5.132  15.428  0.00  0.00    +0.000 A 
ATOM     12  C   UNL     1       4.558   5.230  16.417  0.00  0.00    +0.000 A 
BRANCH  10  13
ATOM     13  O   UNL     1       7.835   5.449  14.807  0.00  0.00    +0.000 OA
ATOM     14  H   UNL     1       7.421   5.538  13.934  0.00  0.00    +0.000 HD
ENDBRANCH  10  13
BRANCH  11  15
ATOM     15  C   UNL     1       5.191   4.651  14.042  0.00  0.00    +0.000 C 
BRANCH  15  16
ATOM     16  C   UNL     1       6.098   3.568  13.528  0.00  0.00    +0.000 C 
ATOM     17  C   UNL     1       6.261   3.264  12.232  0.00  0.00    +0.000 C 
ENDBRANCH  15  16
ENDBRANCH  11  15
ENDBRANCH   5   7
BRANCH   4  18
ATOM     18  O   UNL     1       3.199   8.047  18.044  0.00  0.00    +0.000 OA
ATOM     19  C   UNL     1       2.132   8.928  17.723  0.00  0.00    +0.000 C 
ENDBRANCH   4  18
BRANCH   1  20
ATOM     20  C   UNL     1       2.176   3.625  21.497  0.00  0.00    +0.000 C 
BRANCH  20  22
ATOM     21  C   UNL     1       0.780   2.605  19.676  0.00  0.00    +0.000 C 
ATOM     22  C   UNL     1       1.546   2.473  20.767  0.00  0.00    +0.000 C 
ENDBRANCH  20  22
ENDBRANCH   1  20
TORSDOF 7
ENDMDL
