MODEL 1
REMARK VINA RESULT:      -7.1      0.000      0.000
REMARK  Name = 
REMARK  8 active torsions:
REMARK  status: ('A' for Active; 'I' for Inactive)
REMARK    1  A    between atoms: C_1  and  S_2
REMARK    2  A    between atoms: S_2  and  C_3
REMARK    3  A    between atoms: C_7  and  N_8
REMARK    4  A    between atoms: C_9  and  C_11
REMARK    5  A    between atoms: C_11  and  N_12
REMARK    6  A    between atoms: N_12  and  C_13
REMARK    7  A    between atoms: N_12  and  S_19
REMARK    8  A    between atoms: S_19  and  C_20
REMARK                            x       y       z     vdW  Elec       q    Type
REMARK                         _______ _______ _______ _____ _____    ______ ____
ROOT
ATOM      1  N   UNL     1       2.420   7.144  20.242  0.00  0.00    +0.000 N 
ATOM      2  C   UNL     1       2.599   6.311  19.150  0.00  0.00    +0.000 C 
ATOM      3  O   UNL     1       2.167   6.481  18.012  0.00  0.00    +0.000 OA
ATOM      4  H   UNL     1       2.751   6.776  21.133  0.00  0.00    +0.000 HD
ENDROOT
BRANCH   1   9
ATOM      5  C   UNL     1       0.117   9.713  21.585  0.00  0.00    +0.000 A 
ATOM      6  C   UNL     1      -0.170  10.456  20.437  0.00  0.00    +0.000 A 
ATOM      7  C   UNL     1       0.438  10.137  19.225  0.00  0.00    +0.000 A 
ATOM      8  C   UNL     1       1.316   9.057  19.147  0.00  0.00    +0.000 A 
ATOM      9  C   UNL     1       1.599   8.289  20.278  0.00  0.00    +0.000 A 
ATOM     10  C   UNL     1       1.010   8.636  21.502  0.00  0.00    +0.000 A 
BRANCH   5  12
ATOM     11  C   UNL     1      -1.289  11.735  22.829  0.00  0.00    +0.000 C 
ATOM     12  S   UNL     1      -0.706  10.047  23.133  0.00  0.00    +0.000 S 
ENDBRANCH   5  12
ENDBRANCH   1   9
BRANCH   2  13
ATOM     13  C   UNL     1       3.433   5.093  19.462  0.00  0.00    +0.000 C 
BRANCH  13  14
ATOM     14  N   UNL     1       3.867   4.261  18.287  0.00  0.00    +0.000 NA
BRANCH  14  15
ATOM     15  C   UNL     1       5.352   4.345  17.969  0.00  0.00    +0.000 C 
ATOM     16  C   UNL     1       5.786   3.740  16.626  0.00  0.00    +0.000 C 
ATOM     17  C   UNL     1       5.144   4.441  15.428  0.00  0.00    +0.000 C 
ATOM     18  C   UNL     1       5.480   5.925  15.384  0.00  0.00    +0.000 C 
ATOM     19  C   UNL     1       5.287   6.611  16.731  0.00  0.00    +0.000 C 
ATOM     20  C   UNL     1       5.850   5.815  17.914  0.00  0.00    +0.000 C 
ENDBRANCH  14  15
BRANCH  14  21
ATOM     21  S   UNL     1       2.899   2.874  18.070  0.00  0.00    +0.000 S 
ATOM     22  C   UNL     1       1.777   2.841  19.462  0.00  0.00    +0.000 C 
ATOM     23  O   UNL     1       2.097   3.174  16.895  0.00  0.00    +0.000 OA
ATOM     24  O   UNL     1       3.671   1.657  18.131  0.00  0.00    +0.000 OA
ENDBRANCH  14  21
ENDBRANCH  13  14
ENDBRANCH   2  13
TORSDOF 6
ENDMDL
MODEL 2
REMARK VINA RESULT:      -6.8      3.322      7.887
REMARK  Name = 
REMARK  8 active torsions:
REMARK  status: ('A' for Active; 'I' for Inactive)
REMARK    1  A    between atoms: C_1  and  S_2
REMARK    2  A    between atoms: S_2  and  C_3
REMARK    3  A    between atoms: C_7  and  N_8
REMARK    4  A    between atoms: C_9  and  C_11
REMARK    5  A    between atoms: C_11  and  N_12
REMARK    6  A    between atoms: N_12  and  C_13
REMARK    7  A    between atoms: N_12  and  S_19
REMARK    8  A    between atoms: S_19  and  C_20
REMARK                            x       y       z     vdW  Elec       q    Type
REMARK                         _______ _______ _______ _____ _____    ______ ____
ROOT
ATOM      1  N   UNL     1       6.178   5.132  15.858  0.00  0.00    +0.000 N 
ATOM      2  C   UNL     1       5.411   6.195  16.307  0.00  0.00    +0.000 C 
ATOM      3  O   UNL     1       4.852   7.046  15.618  0.00  0.00    +0.000 OA
ATOM      4  H   UNL     1       6.660   4.603  16.583  0.00  0.00    +0.000 HD
ENDROOT
BRANCH   1   9
ATOM      5  C   UNL     1       6.241   3.603  12.486  0.00  0.00    +0.000 A 
ATOM      6  C   UNL     1       7.336   4.251  11.908  0.00  0.00    +0.000 A 
ATOM      7  C   UNL     1       8.024   5.232  12.617  0.00  0.00    +0.000 A 
ATOM      8  C   UNL     1       7.641   5.552  13.919  0.00  0.00    +0.000 A 
ATOM      9  C   UNL     1       6.563   4.901  14.522  0.00  0.00    +0.000 A 
ATOM     10  C   UNL     1       5.853   3.938  13.790  0.00  0.00    +0.000 A 
BRANCH   5  12
ATOM     11  C   UNL     1       3.899   3.165  11.096  0.00  0.00    +0.000 C 
ATOM     12  S   UNL     1       5.389   2.287  11.634  0.00  0.00    +0.000 S 
ENDBRANCH   5  12
ENDBRANCH   1   9
BRANCH   2  13
ATOM     13  C   UNL     1       5.281   6.241  17.809  0.00  0.00    +0.000 C 
BRANCH  13  14
ATOM     14  N   UNL     1       4.260   5.321  18.420  0.00  0.00    +0.000 NA
BRANCH  14  15
ATOM     15  C   UNL     1       2.827   5.597  17.993  0.00  0.00    +0.000 C 
ATOM     16  C   UNL     1       1.744   4.773  18.704  0.00  0.00    +0.000 C 
ATOM     17  C   UNL     1       1.702   5.030  20.212  0.00  0.00    +0.000 C 
ATOM     18  C   UNL     1       1.443   6.494  20.537  0.00  0.00    +0.000 C 
ATOM     19  C   UNL     1       2.324   7.440  19.730  0.00  0.00    +0.000 C 
ATOM     20  C   UNL     1       2.422   7.074  18.246  0.00  0.00    +0.000 C 
ENDBRANCH  14  15
BRANCH  14  21
ATOM     21  S   UNL     1       4.893   3.777  18.773  0.00  0.00    +0.000 S 
ATOM     22  C   UNL     1       4.285   2.696  17.484  0.00  0.00    +0.000 C 
ATOM     23  O   UNL     1       6.324   3.916  18.559  0.00  0.00    +0.000 OA
ATOM     24  O   UNL     1       4.392   3.256  20.020  0.00  0.00    +0.000 OA
ENDBRANCH  14  21
ENDBRANCH  13  14
ENDBRANCH   2  13
TORSDOF 6
ENDMDL
MODEL 3
REMARK VINA RESULT:      -6.8      2.078      3.594
REMARK  Name = 
REMARK  8 active torsions:
REMARK  status: ('A' for Active; 'I' for Inactive)
REMARK    1  A    between atoms: C_1  and  S_2
REMARK    2  A    between atoms: S_2  and  C_3
REMARK    3  A    between atoms: C_7  and  N_8
REMARK    4  A    between atoms: C_9  and  C_11
REMARK    5  A    between atoms: C_11  and  N_12
REMARK    6  A    between atoms: N_12  and  C_13
REMARK    7  A    between atoms: N_12  and  S_19
REMARK    8  A    between atoms: S_19  and  C_20
REMARK                            x       y       z     vdW  Elec       q    Type
REMARK                         _______ _______ _______ _____ _____    ______ ____
ROOT
ATOM      1  N   UNL     1       1.833   8.115  18.086  0.00  0.00    +0.000 N 
ATOM      2  C   UNL     1       2.382   7.022  18.736  0.00  0.00    +0.000 C 
ATOM      3  O   UNL     1       2.675   6.940  19.927  0.00  0.00    +0.000 OA
ATOM      4  H   UNL     1       1.772   8.037  17.072  0.00  0.00    +0.000 HD
ENDROOT
BRANCH   1   9
ATOM      5  C   UNL     1       0.557  10.711  20.398  0.00  0.00    +0.000 A 
ATOM      6  C   UNL     1       1.013  11.879  19.783  0.00  0.00    +0.000 A 
ATOM      7  C   UNL     1       1.787  11.807  18.628  0.00  0.00    +0.000 A 
ATOM      8  C   UNL     1       2.087  10.567  18.064  0.00  0.00    +0.000 A 
ATOM      9  C   UNL     1       1.622   9.389  18.652  0.00  0.00    +0.000 A 
ATOM     10  C   UNL     1       0.872   9.467  19.834  0.00  0.00    +0.000 A 
BRANCH   5  12
ATOM     11  C   UNL     1       0.233   9.454  22.833  0.00  0.00    +0.000 C 
ATOM     12  S   UNL     1      -0.503  10.773  21.833  0.00  0.00    +0.000 S 
ENDBRANCH   5  12
ENDBRANCH   1   9
BRANCH   2  13
ATOM     13  C   UNL     1       2.602   5.839  17.825  0.00  0.00    +0.000 C 
BRANCH  13  14
ATOM     14  N   UNL     1       3.389   4.693  18.397  0.00  0.00    +0.000 NA
BRANCH  14  15
ATOM     15  C   UNL     1       2.656   3.361  18.396  0.00  0.00    +0.000 C 
ATOM     16  C   UNL     1       3.183   2.304  19.377  0.00  0.00    +0.000 C 
ATOM     17  C   UNL     1       3.074   2.748  20.837  0.00  0.00    +0.000 C 
ATOM     18  C   UNL     1       1.638   3.059  21.237  0.00  0.00    +0.000 C 
ATOM     19  C   UNL     1       0.926   3.946  20.222  0.00  0.00    +0.000 C 
ATOM     20  C   UNL     1       1.157   3.525  18.767  0.00  0.00    +0.000 C 
ENDBRANCH  14  15
BRANCH  14  21
ATOM     21  S   UNL     1       5.071   4.881  18.188  0.00  0.00    +0.000 S 
ATOM     22  C   UNL     1       5.490   3.931  16.730  0.00  0.00    +0.000 C 
ATOM     23  O   UNL     1       5.237   6.282  17.834  0.00  0.00    +0.000 OA
ATOM     24  O   UNL     1       5.823   4.314  19.280  0.00  0.00    +0.000 OA
ENDBRANCH  14  21
ENDBRANCH  13  14
ENDBRANCH   2  13
TORSDOF 6
ENDMDL
MODEL 4
REMARK VINA RESULT:      -6.8      1.428      1.985
REMARK  Name = 
REMARK  8 active torsions:
REMARK  status: ('A' for Active; 'I' for Inactive)
REMARK    1  A    between atoms: C_1  and  S_2
REMARK    2  A    between atoms: S_2  and  C_3
REMARK    3  A    between atoms: C_7  and  N_8
REMARK    4  A    between atoms: C_9  and  C_11
REMARK    5  A    between atoms: C_11  and  N_12
REMARK    6  A    between atoms: N_12  and  C_13
REMARK    7  A    between atoms: N_12  and  S_19
REMARK    8  A    between atoms: S_19  and  C_20
REMARK                            x       y       z     vdW  Elec       q    Type
REMARK                         _______ _______ _______ _____ _____    ______ ____
ROOT
ATOM      1  N   UNL     1       1.873   7.225  20.953  0.00  0.00    +0.000 N 
ATOM      2  C   UNL     1       2.385   6.735  19.764  0.00  0.00    +0.000 C 
ATOM      3  O   UNL     1       2.332   7.270  18.659  0.00  0.00    +0.000 OA
ATOM      4  H   UNL     1       1.907   6.582  21.744  0.00  0.00    +0.000 HD
ENDROOT
BRANCH   1   9
ATOM      5  C   UNL     1      -0.028  10.257  20.005  0.00  0.00    +0.000 A 
ATOM      6  C   UNL     1      -0.369  10.775  21.257  0.00  0.00    +0.000 A 
ATOM      7  C   UNL     1      -0.013  10.093  22.417  0.00  0.00    +0.000 A 
ATOM      8  C   UNL     1       0.711   8.904  22.335  0.00  0.00    +0.000 A 
ATOM      9  C   UNL     1       1.080   8.382  21.093  0.00  0.00    +0.000 A 
ATOM     10  C   UNL     1       0.688   9.056  19.928  0.00  0.00    +0.000 A 
BRANCH   5  12
ATOM     11  C   UNL     1      -1.866  10.239  17.946  0.00  0.00    +0.000 C 
ATOM     12  S   UNL     1      -0.401  11.148  18.503  0.00  0.00    +0.000 S 
ENDBRANCH   5  12
ENDBRANCH   1   9
BRANCH   2  13
ATOM     13  C   UNL     1       3.082   5.405  19.921  0.00  0.00    +0.000 C 
BRANCH  13  14
ATOM     14  N   UNL     1       3.302   4.613  18.662  0.00  0.00    +0.000 NA
BRANCH  14  15
ATOM     15  C   UNL     1       4.759   4.307  18.355  0.00  0.00    +0.000 C 
ATOM     16  C   UNL     1       5.051   3.774  16.946  0.00  0.00    +0.000 C 
ATOM     17  C   UNL     1       4.678   4.772  15.848  0.00  0.00    +0.000 C 
ATOM     18  C   UNL     1       5.423   6.091  15.995  0.00  0.00    +0.000 C 
ATOM     19  C   UNL     1       5.385   6.631  17.419  0.00  0.00    +0.000 C 
ATOM     20  C   UNL     1       5.655   5.568  18.489  0.00  0.00    +0.000 C 
ENDBRANCH  14  15
BRANCH  14  21
ATOM     21  S   UNL     1       1.991   3.587  18.292  0.00  0.00    +0.000 S 
ATOM     22  C   UNL     1       1.000   3.507  19.780  0.00  0.00    +0.000 C 
ATOM     23  O   UNL     1       1.214   4.331  17.314  0.00  0.00    +0.000 OA
ATOM     24  O   UNL     1       2.418   2.239  18.008  0.00  0.00    +0.000 OA
ENDBRANCH  14  21
ENDBRANCH  13  14
ENDBRANCH   2  13
TORSDOF 6
ENDMDL
MODEL 5
REMARK VINA RESULT:      -6.8      1.118      1.287
REMARK  Name = 
REMARK  8 active torsions:
REMARK  status: ('A' for Active; 'I' for Inactive)
REMARK    1  A    between atoms: C_1  and  S_2
REMARK    2  A    between atoms: S_2  and  C_3
REMARK    3  A    between atoms: C_7  and  N_8
REMARK    4  A    between atoms: C_9  and  C_11
REMARK    5  A    between atoms: C_11  and  N_12
REMARK    6  A    between atoms: N_12  and  C_13
REMARK    7  A    between atoms: N_12  and  S_19
REMARK    8  A    between atoms: S_19  and  C_20
REMARK                            x       y       z     vdW  Elec       q    Type
REMARK                         _______ _______ _______ _____ _____    ______ ____
ROOT
ATOM      1  N   UNL     1       2.099   7.622  20.388  0.00  0.00    +0.000 N 
ATOM      2  C   UNL     1       2.533   6.922  19.274  0.00  0.00    +0.000 C 
ATOM      3  O   UNL     1       2.401   7.249  18.097  0.00  0.00    +0.000 OA
ATOM      4  H   UNL     1       2.192   7.133  21.277  0.00  0.00    +0.000 HD
ENDROOT
BRANCH   1   9
ATOM      5  C   UNL     1      -0.185  10.277  21.590  0.00  0.00    +0.000 A 
ATOM      6  C   UNL     1      -0.408  11.004  20.417  0.00  0.00    +0.000 A 
ATOM      7  C   UNL     1       0.238  10.644  19.237  0.00  0.00    +0.000 A 
ATOM      8  C   UNL     1       1.089   9.540  19.214  0.00  0.00    +0.000 A 
ATOM      9  C   UNL     1       1.308   8.788  20.370  0.00  0.00    +0.000 A 
ATOM     10  C   UNL     1       0.681   9.176  21.563  0.00  0.00    +0.000 A 
BRANCH   5  12
ATOM     11  C   UNL     1      -1.984  12.127  22.567  0.00  0.00    +0.000 C 
ATOM     12  S   UNL     1      -1.058  10.663  23.098  0.00  0.00    +0.000 S 
ENDBRANCH   5  12
ENDBRANCH   1   9
BRANCH   2  13
ATOM     13  C   UNL     1       3.250   5.640  19.621  0.00  0.00    +0.000 C 
BRANCH  13  14
ATOM     14  N   UNL     1       3.314   4.597  18.540  0.00  0.00    +0.000 NA
BRANCH  14  15
ATOM     15  C   UNL     1       4.709   4.056  18.267  0.00  0.00    +0.000 C 
ATOM     16  C   UNL     1       5.031   3.737  16.801  0.00  0.00    +0.000 C 
ATOM     17  C   UNL     1       4.966   4.972  15.900  0.00  0.00    +0.000 C 
ATOM     18  C   UNL     1       5.932   6.060  16.347  0.00  0.00    +0.000 C 
ATOM     19  C   UNL     1       5.858   6.331  17.845  0.00  0.00    +0.000 C 
ATOM     20  C   UNL     1       5.813   5.060  18.699  0.00  0.00    +0.000 C 
ENDBRANCH  14  15
BRANCH  14  21
ATOM     21  S   UNL     1       1.875   3.692  18.412  0.00  0.00    +0.000 S 
ATOM     22  C   UNL     1       2.387   1.995  18.170  0.00  0.00    +0.000 C 
ATOM     23  O   UNL     1       1.284   3.763  19.739  0.00  0.00    +0.000 OA
ATOM     24  O   UNL     1       1.101   4.060  17.251  0.00  0.00    +0.000 OA
ENDBRANCH  14  21
ENDBRANCH  13  14
ENDBRANCH   2  13
TORSDOF 6
ENDMDL
MODEL 6
REMARK VINA RESULT:      -6.7      2.124      3.351
REMARK  Name = 
REMARK  8 active torsions:
REMARK  status: ('A' for Active; 'I' for Inactive)
REMARK    1  A    between atoms: C_1  and  S_2
REMARK    2  A    between atoms: S_2  and  C_3
REMARK    3  A    between atoms: C_7  and  N_8
REMARK    4  A    between atoms: C_9  and  C_11
REMARK    5  A    between atoms: C_11  and  N_12
REMARK    6  A    between atoms: N_12  and  C_13
REMARK    7  A    between atoms: N_12  and  S_19
REMARK    8  A    between atoms: S_19  and  C_20
REMARK                            x       y       z     vdW  Elec       q    Type
REMARK                         _______ _______ _______ _____ _____    ______ ____
ROOT
ATOM      1  N   UNL     1       2.033   8.047  18.292  0.00  0.00    +0.000 N 
ATOM      2  C   UNL     1       2.635   6.917  18.820  0.00  0.00    +0.000 C 
ATOM      3  O   UNL     1       2.731   6.616  20.008  0.00  0.00    +0.000 OA
ATOM      4  H   UNL     1       2.160   8.183  17.290  0.00  0.00    +0.000 HD
ENDROOT
BRANCH   1   9
ATOM      5  C   UNL     1       0.472   9.898  21.093  0.00  0.00    +0.000 A 
ATOM      6  C   UNL     1       0.351  11.178  20.547  0.00  0.00    +0.000 A 
ATOM      7  C   UNL     1       0.832  11.442  19.267  0.00  0.00    +0.000 A 
ATOM      8  C   UNL     1       1.413  10.422  18.514  0.00  0.00    +0.000 A 
ATOM      9  C   UNL     1       1.523   9.130  19.034  0.00  0.00    +0.000 A 
ATOM     10  C   UNL     1       1.067   8.880  20.336  0.00  0.00    +0.000 A 
BRANCH   5  12
ATOM     11  C   UNL     1      -1.173  11.008  23.010  0.00  0.00    +0.000 C 
ATOM     12  S   UNL     1      -0.206   9.508  22.697  0.00  0.00    +0.000 S 
ENDBRANCH   5  12
ENDBRANCH   1   9
BRANCH   2  13
ATOM     13  C   UNL     1       3.199   5.996  17.765  0.00  0.00    +0.000 C 
BRANCH  13  14
ATOM     14  N   UNL     1       4.110   4.903  18.249  0.00  0.00    +0.000 NA
BRANCH  14  15
ATOM     15  C   UNL     1       3.652   3.497  17.896  0.00  0.00    +0.000 C 
ATOM     16  C   UNL     1       3.954   2.410  18.937  0.00  0.00    +0.000 C 
ATOM     17  C   UNL     1       3.258   2.665  20.276  0.00  0.00    +0.000 C 
ATOM     18  C   UNL     1       1.745   2.742  20.130  0.00  0.00    +0.000 C 
ATOM     19  C   UNL     1       1.311   3.641  18.979  0.00  0.00    +0.000 C 
ATOM     20  C   UNL     1       2.114   3.424  17.691  0.00  0.00    +0.000 C 
ENDBRANCH  14  15
BRANCH  14  21
ATOM     21  S   UNL     1       5.737   5.401  18.355  0.00  0.00    +0.000 S 
ATOM     22  C   UNL     1       6.641   4.357  17.217  0.00  0.00    +0.000 C 
ATOM     23  O   UNL     1       5.743   6.739  17.786  0.00  0.00    +0.000 OA
ATOM     24  O   UNL     1       6.295   5.165  19.664  0.00  0.00    +0.000 OA
ENDBRANCH  14  21
ENDBRANCH  13  14
ENDBRANCH   2  13
TORSDOF 6
ENDMDL
MODEL 7
REMARK VINA RESULT:      -6.7      1.939      3.396
REMARK  Name = 
REMARK  8 active torsions:
REMARK  status: ('A' for Active; 'I' for Inactive)
REMARK    1  A    between atoms: C_1  and  S_2
REMARK    2  A    between atoms: S_2  and  C_3
REMARK    3  A    between atoms: C_7  and  N_8
REMARK    4  A    between atoms: C_9  and  C_11
REMARK    5  A    between atoms: C_11  and  N_12
REMARK    6  A    between atoms: N_12  and  C_13
REMARK    7  A    between atoms: N_12  and  S_19
REMARK    8  A    between atoms: S_19  and  C_20
REMARK                            x       y       z     vdW  Elec       q    Type
REMARK                         _______ _______ _______ _____ _____    ______ ____
ROOT
ATOM      1  N   UNL     1       1.831   7.955  18.397  0.00  0.00    +0.000 N 
ATOM      2  C   UNL     1       2.582   6.889  18.863  0.00  0.00    +0.000 C 
ATOM      3  O   UNL     1       2.948   6.691  20.020  0.00  0.00    +0.000 OA
ATOM      4  H   UNL     1       1.730   8.010  17.384  0.00  0.00    +0.000 HD
ENDROOT
BRANCH   1   9
ATOM      5  C   UNL     1       0.517   9.951  21.225  0.00  0.00    +0.000 A 
ATOM      6  C   UNL     1       0.523  11.239  20.683  0.00  0.00    +0.000 A 
ATOM      7  C   UNL     1       1.010  11.455  19.396  0.00  0.00    +0.000 A 
ATOM      8  C   UNL     1       1.468  10.381  18.633  0.00  0.00    +0.000 A 
ATOM      9  C   UNL     1       1.450   9.084  19.149  0.00  0.00    +0.000 A 
ATOM     10  C   UNL     1       0.990   8.879  20.457  0.00  0.00    +0.000 A 
BRANCH   5  12
ATOM     11  C   UNL     1      -1.167  11.127  23.067  0.00  0.00    +0.000 C 
ATOM     12  S   UNL     1      -0.173   9.630  22.839  0.00  0.00    +0.000 S 
ENDBRANCH   5  12
ENDBRANCH   1   9
BRANCH   2  13
ATOM     13  C   UNL     1       2.941   5.897  17.783  0.00  0.00    +0.000 C 
BRANCH  13  14
ATOM     14  N   UNL     1       3.710   4.682  18.220  0.00  0.00    +0.000 NA
BRANCH  14  15
ATOM     15  C   UNL     1       2.947   3.373  18.096  0.00  0.00    +0.000 C 
ATOM     16  C   UNL     1       3.469   2.208  18.948  0.00  0.00    +0.000 C 
ATOM     17  C   UNL     1       3.402   2.497  20.449  0.00  0.00    +0.000 C 
ATOM     18  C   UNL     1       1.983   2.794  20.913  0.00  0.00    +0.000 C 
ATOM     19  C   UNL     1       1.270   3.798  20.015  0.00  0.00    +0.000 C 
ATOM     20  C   UNL     1       1.460   3.529  18.518  0.00  0.00    +0.000 C 
ENDBRANCH  14  15
BRANCH  14  21
ATOM     21  S   UNL     1       5.393   4.855  18.000  0.00  0.00    +0.000 S 
ATOM     22  C   UNL     1       5.642   6.540  17.453  0.00  0.00    +0.000 C 
ATOM     23  O   UNL     1       5.944   4.767  19.343  0.00  0.00    +0.000 OA
ATOM     24  O   UNL     1       5.895   4.001  16.951  0.00  0.00    +0.000 OA
ENDBRANCH  14  21
ENDBRANCH  13  14
ENDBRANCH   2  13
TORSDOF 6
ENDMDL
MODEL 8
REMARK VINA RESULT:      -6.6      1.009      1.146
REMARK  Name = 
REMARK  8 active torsions:
REMARK  status: ('A' for Active; 'I' for Inactive)
REMARK    1  A    between atoms: C_1  and  S_2
REMARK    2  A    between atoms: S_2  and  C_3
REMARK    3  A    between atoms: C_7  and  N_8
REMARK    4  A    between atoms: C_9  and  C_11
REMARK    5  A    between atoms: C_11  and  N_12
REMARK    6  A    between atoms: N_12  and  C_13
REMARK    7  A    between atoms: N_12  and  S_19
REMARK    8  A    between atoms: S_19  and  C_20
REMARK                            x       y       z     vdW  Elec       q    Type
REMARK                         _______ _______ _______ _____ _____    ______ ____
ROOT
ATOM      1  N   UNL     1       2.606   7.443  19.841  0.00  0.00    +0.000 N 
ATOM      2  C   UNL     1       2.622   6.203  19.223  0.00  0.00    +0.000 C 
ATOM      3  O   UNL     1       1.932   5.842  18.273  0.00  0.00    +0.000 OA
ATOM      4  H   UNL     1       3.164   7.516  20.691  0.00  0.00    +0.000 HD
ENDROOT
BRANCH   1   9
ATOM      5  C   UNL     1       0.094  10.094  20.446  0.00  0.00    +0.000 A 
ATOM      6  C   UNL     1      -0.233  10.471  19.141  0.00  0.00    +0.000 A 
ATOM      7  C   UNL     1       0.416   9.882  18.059  0.00  0.00    +0.000 A 
ATOM      8  C   UNL     1       1.375   8.893  18.273  0.00  0.00    +0.000 A 
ATOM      9  C   UNL     1       1.700   8.487  19.569  0.00  0.00    +0.000 A 
ATOM     10  C   UNL     1       1.067   9.109  20.655  0.00  0.00    +0.000 A 
BRANCH   5  12
ATOM     11  C   UNL     1      -0.210   9.648  23.152  0.00  0.00    +0.000 C 
ATOM     12  S   UNL     1      -0.776  10.773  21.850  0.00  0.00    +0.000 S 
ENDBRANCH   5  12
ENDBRANCH   1   9
BRANCH   2  13
ATOM     13  C   UNL     1       3.628   5.253  19.825  0.00  0.00    +0.000 C 
BRANCH  13  14
ATOM     14  N   UNL     1       4.355   4.354  18.864  0.00  0.00    +0.000 NA
BRANCH  14  15
ATOM     15  C   UNL     1       5.720   4.865  18.432  0.00  0.00    +0.000 C 
ATOM     16  C   UNL     1       6.391   4.100  17.283  0.00  0.00    +0.000 C 
ATOM     17  C   UNL     1       5.583   4.157  15.985  0.00  0.00    +0.000 C 
ATOM     18  C   UNL     1       5.363   5.587  15.508  0.00  0.00    +0.000 C 
ATOM     19  C   UNL     1       4.888   6.510  16.623  0.00  0.00    +0.000 C 
ATOM     20  C   UNL     1       5.657   6.336  17.938  0.00  0.00    +0.000 C 
ENDBRANCH  14  15
BRANCH  14  21
ATOM     21  S   UNL     1       3.948   2.710  19.064  0.00  0.00    +0.000 S 
ATOM     22  C   UNL     1       2.470   2.694  20.073  0.00  0.00    +0.000 C 
ATOM     23  O   UNL     1       3.550   2.272  17.736  0.00  0.00    +0.000 OA
ATOM     24  O   UNL     1       4.956   1.984  19.798  0.00  0.00    +0.000 OA
ENDBRANCH  14  21
ENDBRANCH  13  14
ENDBRANCH   2  13
TORSDOF 6
ENDMDL
MODEL 9
REMARK VINA RESULT:      -6.6      2.271      3.592
REMARK  Name = 
REMARK  8 active torsions:
REMARK  status: ('A' for Active; 'I' for Inactive)
REMARK    1  A    between atoms: C_1  and  S_2
REMARK    2  A    between atoms: S_2  and  C_3
REMARK    3  A    between atoms: C_7  and  N_8
REMARK    4  A    between atoms: C_9  and  C_11
REMARK    5  A    between atoms: C_11  and  N_12
REMARK    6  A    between atoms: N_12  and  C_13
REMARK    7  A    between atoms: N_12  and  S_19
REMARK    8  A    between atoms: S_19  and  C_20
REMARK                            x       y       z     vdW  Elec       q    Type
REMARK                         _______ _______ _______ _____ _____    ______ ____
ROOT
ATOM      1  N   UNL     1       1.676   8.073  18.084  0.00  0.00    +0.000 N 
ATOM      2  C   UNL     1       2.240   6.973  18.709  0.00  0.00    +0.000 C 
ATOM      3  O   UNL     1       2.638   6.906  19.870  0.00  0.00    +0.000 OA
ATOM      4  H   UNL     1       1.520   7.975  17.081  0.00  0.00    +0.000 HD
ENDROOT
BRANCH   1   9
ATOM      5  C   UNL     1       0.640  10.785  20.382  0.00  0.00    +0.000 A 
ATOM      6  C   UNL     1       1.158  11.910  19.736  0.00  0.00    +0.000 A 
ATOM      7  C   UNL     1       1.895  11.767  18.564  0.00  0.00    +0.000 A 
ATOM      8  C   UNL     1       2.096  10.501  18.014  0.00  0.00    +0.000 A 
ATOM      9  C   UNL     1       1.567   9.366  18.633  0.00  0.00    +0.000 A 
ATOM     10  C   UNL     1       0.855   9.514  19.831  0.00  0.00    +0.000 A 
BRANCH   5  12
ATOM     11  C   UNL     1      -0.296   9.245  22.472  0.00  0.00    +0.000 C 
ATOM     12  S   UNL     1      -0.376  10.942  21.842  0.00  0.00    +0.000 S 
ENDBRANCH   5  12
ENDBRANCH   1   9
BRANCH   2  13
ATOM     13  C   UNL     1       2.330   5.762  17.814  0.00  0.00    +0.000 C 
BRANCH  13  14
ATOM     14  N   UNL     1       3.317   4.703  18.220  0.00  0.00    +0.000 NA
BRANCH  14  15
ATOM     15  C   UNL     1       2.739   3.298  18.293  0.00  0.00    +0.000 C 
ATOM     16  C   UNL     1       3.358   2.372  19.350  0.00  0.00    +0.000 C 
ATOM     17  C   UNL     1       3.163   2.892  20.776  0.00  0.00    +0.000 C 
ATOM     18  C   UNL     1       1.692   3.061  21.129  0.00  0.00    +0.000 C 
ATOM     19  C   UNL     1       0.909   3.795  20.046  0.00  0.00    +0.000 C 
ATOM     20  C   UNL     1       1.223   3.313  18.626  0.00  0.00    +0.000 C 
ENDBRANCH  14  15
BRANCH  14  21
ATOM     21  S   UNL     1       4.914   5.078  17.755  0.00  0.00    +0.000 S 
ATOM     22  C   UNL     1       5.852   5.178  19.276  0.00  0.00    +0.000 C 
ATOM     23  O   UNL     1       5.376   3.889  17.058  0.00  0.00    +0.000 OA
ATOM     24  O   UNL     1       5.008   6.372  17.126  0.00  0.00    +0.000 OA
ENDBRANCH  14  21
ENDBRANCH  13  14
ENDBRANCH   2  13
TORSDOF 6
ENDMDL
