MODEL 1
REMARK VINA RESULT:      -8.4      0.000      0.000
REMARK  Name = 
REMARK  10 active torsions:
REMARK  status: ('A' for Active; 'I' for Inactive)
REMARK    1  A    between atoms: C_1  and  C_2
REMARK    2  A    between atoms: N_4  and  C_5
REMARK    3  A    between atoms: C_5  and  C_6
REMARK    4  A    between atoms: C_9  and  N_10
REMARK    5  A    between atoms: C_11  and  C_13
REMARK    6  A    between atoms: C_22  and  C_23
REMARK    7  A    between atoms: C_26  and  C_27
REMARK    8  A    between atoms: C_28  and  C_29
REMARK    9  A    between atoms: C_29  and  C_30
REMARK   10  A    between atoms: C_30  and  O_32
REMARK                            x       y       z     vdW  Elec       q    Type
REMARK                         _______ _______ _______ _____ _____    ______ ____
ROOT
ATOM      1  C   UNL     1       2.298   6.763  19.653  0.00  0.00    +0.000 A 
ATOM      2  C   UNL     1       1.605   7.413  20.681  0.00  0.00    +0.000 A 
ATOM      3  C   UNL     1       1.162   8.741  20.537  0.00  0.00    +0.000 A 
ATOM      4  C   UNL     1       1.389   9.464  19.363  0.00  0.00    +0.000 A 
ATOM      5  C   UNL     1       2.004   8.787  18.301  0.00  0.00    +0.000 A 
ATOM      6  C   UNL     1       2.455   7.455  18.443  0.00  0.00    +0.000 A 
ENDROOT
BRANCH   4   7
ATOM      7  N   UNL     1       1.066  10.843  19.203  0.00  0.00    +0.000 N 
ATOM      8  C   UNL     1       1.140  11.840  20.175  0.00  0.00    +0.000 C 
ATOM      9  O   UNL     1       1.438  11.633  21.347  0.00  0.00    +0.000 OA
ATOM     10  H   UNL     1       0.828  11.165  18.270  0.00  0.00    +0.000 HD
BRANCH   8  11
ATOM     11  C   UNL     1       0.858  13.201  19.711  0.00  0.00    +0.000 A 
ATOM     12  O   UNL     1       1.865  13.984  19.204  0.00  0.00    +0.000 OA
ATOM     13  C   UNL     1       1.312  15.186  18.843  0.00  0.00    +0.000 A 
ATOM     14  C   UNL     1       1.963  16.267  18.241  0.00  0.00    +0.000 A 
ATOM     15 CL   UNL     1       3.631  16.210  17.843  0.00  0.00    +0.000 Cl
ATOM     16  C   UNL     1       1.201  17.408  17.954  0.00  0.00    +0.000 A 
ATOM     17  C   UNL     1      -0.152  17.465  18.286  0.00  0.00    +0.000 A 
ATOM     18  C   UNL     1      -0.786  16.372  18.890  0.00  0.00    +0.000 A 
ATOM     19  C   UNL     1      -0.043  15.202  19.154  0.00  0.00    +0.000 A 
ATOM     20  C   UNL     1      -0.344  13.909  19.678  0.00  0.00    +0.000 A 
ATOM     21  C   UNL     1      -1.686  13.412  20.087  0.00  0.00    +0.000 C 
ENDBRANCH   8  11
ENDBRANCH   4   7
BRANCH   1  22
ATOM     22  C   UNL     1       2.959   5.422  19.905  0.00  0.00    +0.000 C 
BRANCH  22  26
ATOM     23  C   UNL     1       7.656   5.736  18.755  0.00  0.00    +0.000 C 
ATOM     24  C   UNL     1       6.230   5.339  18.606  0.00  0.00    +0.000 A 
ATOM     25  N   UNL     1       5.329   5.734  19.510  0.00  0.00    +0.000 NA
ATOM     26  N   UNL     1       4.168   5.156  19.124  0.00  0.00    +0.000 N 
ATOM     27  C   UNL     1       4.280   4.552  17.889  0.00  0.00    +0.000 A 
ATOM     28  C   UNL     1       3.147   3.969  17.125  0.00  0.00    +0.000 C 
ATOM     29  C   UNL     1       5.632   4.569  17.573  0.00  0.00    +0.000 A 
BRANCH  29  30
ATOM     30  C   UNL     1       6.301   3.901  16.410  0.00  0.00    +0.000 C 
BRANCH  30  31
ATOM     31  C   UNL     1       6.497   4.727  15.157  0.00  0.00    +0.000 C 
ATOM     32  O   UNL     1       7.464   5.467  15.015  0.00  0.00    +0.000 OA
BRANCH  31  33
ATOM     33  O   UNL     1       5.558   4.624  14.197  0.00  0.00    +0.000 OA
ATOM     34  H   UNL     1       5.093   3.764  14.172  0.00  0.00    +0.000 HD
ENDBRANCH  31  33
ENDBRANCH  30  31
ENDBRANCH  29  30
ENDBRANCH  22  26
ENDBRANCH   1  22
TORSDOF 7
ENDMDL
MODEL 2
REMARK VINA RESULT:      -8.3      5.503      7.387
REMARK  Name = 
REMARK  10 active torsions:
REMARK  status: ('A' for Active; 'I' for Inactive)
REMARK    1  A    between atoms: C_1  and  C_2
REMARK    2  A    between atoms: N_4  and  C_5
REMARK    3  A    between atoms: C_5  and  C_6
REMARK    4  A    between atoms: C_9  and  N_10
REMARK    5  A    between atoms: C_11  and  C_13
REMARK    6  A    between atoms: C_22  and  C_23
REMARK    7  A    between atoms: C_26  and  C_27
REMARK    8  A    between atoms: C_28  and  C_29
REMARK    9  A    between atoms: C_29  and  C_30
REMARK   10  A    between atoms: C_30  and  O_32
REMARK                            x       y       z     vdW  Elec       q    Type
REMARK                         _______ _______ _______ _____ _____    ______ ____
ROOT
ATOM      1  C   UNL     1       6.980   5.988  18.207  0.00  0.00    +0.000 A 
ATOM      2  C   UNL     1       6.433   6.833  17.235  0.00  0.00    +0.000 A 
ATOM      3  C   UNL     1       6.905   8.147  17.059  0.00  0.00    +0.000 A 
ATOM      4  C   UNL     1       7.942   8.661  17.842  0.00  0.00    +0.000 A 
ATOM      5  C   UNL     1       8.549   7.790  18.756  0.00  0.00    +0.000 A 
ATOM      6  C   UNL     1       8.074   6.470  18.939  0.00  0.00    +0.000 A 
ENDROOT
BRANCH   4   7
ATOM      7  N   UNL     1       8.384  10.015  17.787  0.00  0.00    +0.000 N 
ATOM      8  C   UNL     1       9.028  10.729  18.797  0.00  0.00    +0.000 C 
ATOM      9  O   UNL     1       9.242  10.285  19.920  0.00  0.00    +0.000 OA
ATOM     10  H   UNL     1       8.296  10.503  16.901  0.00  0.00    +0.000 HD
BRANCH   8  11
ATOM     11  C   UNL     1       9.478  12.075  18.434  0.00  0.00    +0.000 A 
ATOM     12  O   UNL     1       8.590  13.122  18.416  0.00  0.00    +0.000 OA
ATOM     13  C   UNL     1       9.286  14.248  18.059  0.00  0.00    +0.000 A 
ATOM     14  C   UNL     1       8.789  15.551  17.958  0.00  0.00    +0.000 A 
ATOM     15 CL   UNL     1       7.151  15.923  18.306  0.00  0.00    +0.000 Cl
ATOM     16  C   UNL     1       9.682  16.561  17.573  0.00  0.00    +0.000 A 
ATOM     17  C   UNL     1      11.012  16.264  17.277  0.00  0.00    +0.000 A 
ATOM     18  C   UNL     1      11.491  14.952  17.382  0.00  0.00    +0.000 A 
ATOM     19  C   UNL     1      10.615  13.928  17.802  0.00  0.00    +0.000 A 
ATOM     20  C   UNL     1      10.748  12.535  18.081  0.00  0.00    +0.000 A 
ATOM     21  C   UNL     1      12.004  11.739  18.027  0.00  0.00    +0.000 C 
ENDBRANCH   8  11
ENDBRANCH   4   7
BRANCH   1  22
ATOM     22  C   UNL     1       6.313   4.665  18.533  0.00  0.00    +0.000 C 
BRANCH  22  26
ATOM     23  C   UNL     1       2.091   6.110  20.420  0.00  0.00    +0.000 C 
ATOM     24  C   UNL     1       3.010   5.324  19.553  0.00  0.00    +0.000 A 
ATOM     25  N   UNL     1       4.329   5.514  19.633  0.00  0.00    +0.000 NA
ATOM     26  N   UNL     1       4.858   4.710  18.683  0.00  0.00    +0.000 N 
ATOM     27  C   UNL     1       3.909   3.877  18.128  0.00  0.00    +0.000 A 
ATOM     28  C   UNL     1       4.201   2.777  17.173  0.00  0.00    +0.000 C 
ATOM     29  C   UNL     1       2.682   4.321  18.602  0.00  0.00    +0.000 A 
BRANCH  29  30
ATOM     30  C   UNL     1       1.322   3.853  18.180  0.00  0.00    +0.000 C 
BRANCH  30  31
ATOM     31  C   UNL     1       0.695   2.734  18.982  0.00  0.00    +0.000 C 
ATOM     32  O   UNL     1       0.611   2.781  20.204  0.00  0.00    +0.000 OA
BRANCH  31  33
ATOM     33  O   UNL     1       0.237   1.667  18.299  0.00  0.00    +0.000 OA
ATOM     34  H   UNL     1       0.007   0.896  18.856  0.00  0.00    +0.000 HD
ENDBRANCH  31  33
ENDBRANCH  30  31
ENDBRANCH  29  30
ENDBRANCH  22  26
ENDBRANCH   1  22
TORSDOF 7
ENDMDL
MODEL 3
REMARK VINA RESULT:      -8.3      4.159     10.977
REMARK  Name = 
REMARK  10 active torsions:
REMARK  status: ('A' for Active; 'I' for Inactive)
REMARK    1  A    between atoms: C_1  and  C_2
REMARK    2  A    between atoms: N_4  and  C_5
REMARK    3  A    between atoms: C_5  and  C_6
REMARK    4  A    between atoms: C_9  and  N_10
REMARK    5  A    between atoms: C_11  and  C_13
REMARK    6  A    between atoms: C_22  and  C_23
REMARK    7  A    between atoms: C_26  and  C_27
REMARK    8  A    between atoms: C_28  and  C_29
REMARK    9  A    between atoms: C_29  and  C_30
REMARK   10  A    between atoms: C_30  and  O_32
REMARK                            x       y       z     vdW  Elec       q    Type
REMARK                         _______ _______ _______ _____ _____    ______ ____
ROOT
ATOM      1  C   UNL     1      -0.735  10.858  21.981  0.00  0.00    +0.000 A 
ATOM      2  C   UNL     1      -0.120  11.281  20.797  0.00  0.00    +0.000 A 
ATOM      3  C   UNL     1       0.703  10.416  20.052  0.00  0.00    +0.000 A 
ATOM      4  C   UNL     1       0.937   9.100  20.459  0.00  0.00    +0.000 A 
ATOM      5  C   UNL     1       0.253   8.648  21.595  0.00  0.00    +0.000 A 
ATOM      6  C   UNL     1      -0.571   9.515  22.349  0.00  0.00    +0.000 A 
ENDROOT
BRANCH   4   7
ATOM      7  N   UNL     1       1.848   8.217  19.810  0.00  0.00    +0.000 N 
ATOM      8  C   UNL     1       2.039   8.070  18.437  0.00  0.00    +0.000 C 
ATOM      9  O   UNL     1       1.376   8.654  17.586  0.00  0.00    +0.000 OA
ATOM     10  H   UNL     1       2.487   7.687  20.395  0.00  0.00    +0.000 HD
BRANCH   8  11
ATOM     11  C   UNL     1       3.126   7.171  18.039  0.00  0.00    +0.000 A 
ATOM     12  O   UNL     1       4.398   7.655  17.863  0.00  0.00    +0.000 OA
ATOM     13  C   UNL     1       5.197   6.598  17.510  0.00  0.00    +0.000 A 
ATOM     14  C   UNL     1       6.575   6.623  17.277  0.00  0.00    +0.000 A 
ATOM     15 CL   UNL     1       7.492   8.066  17.429  0.00  0.00    +0.000 Cl
ATOM     16  C   UNL     1       7.199   5.418  16.925  0.00  0.00    +0.000 A 
ATOM     17  C   UNL     1       6.459   4.244  16.788  0.00  0.00    +0.000 A 
ATOM     18  C   UNL     1       5.078   4.240  17.024  0.00  0.00    +0.000 A 
ATOM     19  C   UNL     1       4.439   5.436  17.414  0.00  0.00    +0.000 A 
ATOM     20  C   UNL     1       3.111   5.797  17.792  0.00  0.00    +0.000 A 
ATOM     21  C   UNL     1       1.948   4.878  17.919  0.00  0.00    +0.000 C 
ENDBRANCH   8  11
ENDBRANCH   4   7
BRANCH   1  22
ATOM     22  C   UNL     1      -1.431  11.861  22.882  0.00  0.00    +0.000 C 
BRANCH  22  26
ATOM     23  C   UNL     1      -4.910  13.125  19.756  0.00  0.00    +0.000 C 
ATOM     24  C   UNL     1      -4.284  12.859  21.079  0.00  0.00    +0.000 A 
ATOM     25  N   UNL     1      -3.003  12.486  21.149  0.00  0.00    +0.000 NA
ATOM     26  N   UNL     1      -2.774  12.262  22.463  0.00  0.00    +0.000 N 
ATOM     27  C   UNL     1      -3.836  12.664  23.246  0.00  0.00    +0.000 A 
ATOM     28  C   UNL     1      -3.831  12.694  24.732  0.00  0.00    +0.000 C 
ATOM     29  C   UNL     1      -4.870  12.964  22.369  0.00  0.00    +0.000 A 
BRANCH  29  30
ATOM     30  C   UNL     1      -6.288  13.300  22.718  0.00  0.00    +0.000 C 
BRANCH  30  31
ATOM     31  C   UNL     1      -7.287  12.163  22.724  0.00  0.00    +0.000 C 
ATOM     32  O   UNL     1      -7.916  11.848  21.721  0.00  0.00    +0.000 OA
BRANCH  31  33
ATOM     33  O   UNL     1      -7.469  11.508  23.887  0.00  0.00    +0.000 OA
ATOM     34  H   UNL     1      -8.390  11.226  24.056  0.00  0.00    +0.000 HD
ENDBRANCH  31  33
ENDBRANCH  30  31
ENDBRANCH  29  30
ENDBRANCH  22  26
ENDBRANCH   1  22
TORSDOF 7
ENDMDL
MODEL 4
REMARK VINA RESULT:      -8.2      1.784      2.220
REMARK  Name = 
REMARK  10 active torsions:
REMARK  status: ('A' for Active; 'I' for Inactive)
REMARK    1  A    between atoms: C_1  and  C_2
REMARK    2  A    between atoms: N_4  and  C_5
REMARK    3  A    between atoms: C_5  and  C_6
REMARK    4  A    between atoms: C_9  and  N_10
REMARK    5  A    between atoms: C_11  and  C_13
REMARK    6  A    between atoms: C_22  and  C_23
REMARK    7  A    between atoms: C_26  and  C_27
REMARK    8  A    between atoms: C_28  and  C_29
REMARK    9  A    between atoms: C_29  and  C_30
REMARK   10  A    between atoms: C_30  and  O_32
REMARK                            x       y       z     vdW  Elec       q    Type
REMARK                         _______ _______ _______ _____ _____    ______ ____
ROOT
ATOM      1  C   UNL     1       2.391   6.003  19.823  0.00  0.00    +0.000 A 
ATOM      2  C   UNL     1       1.599   6.261  20.948  0.00  0.00    +0.000 A 
ATOM      3  C   UNL     1       1.067   7.541  21.189  0.00  0.00    +0.000 A 
ATOM      4  C   UNL     1       1.300   8.606  20.314  0.00  0.00    +0.000 A 
ATOM      5  C   UNL     1       2.019   8.329  19.143  0.00  0.00    +0.000 A 
ATOM      6  C   UNL     1       2.559   7.045  18.901  0.00  0.00    +0.000 A 
ENDROOT
BRANCH   4   7
ATOM      7  N   UNL     1       0.884   9.946  20.563  0.00  0.00    +0.000 N 
ATOM      8  C   UNL     1      -0.264  10.572  20.079  0.00  0.00    +0.000 C 
ATOM      9  O   UNL     1      -1.050  10.049  19.297  0.00  0.00    +0.000 OA
ATOM     10  H   UNL     1       1.430  10.493  21.222  0.00  0.00    +0.000 HD
BRANCH   8  11
ATOM     11  C   UNL     1      -0.511  11.924  20.585  0.00  0.00    +0.000 A 
ATOM     12  O   UNL     1      -0.321  13.015  19.773  0.00  0.00    +0.000 OA
ATOM     13  C   UNL     1      -0.638  14.133  20.501  0.00  0.00    +0.000 A 
ATOM     14  C   UNL     1      -0.632  15.459  20.058  0.00  0.00    +0.000 A 
ATOM     15 CL   UNL     1      -0.217  15.870  18.444  0.00  0.00    +0.000 Cl
ATOM     16  C   UNL     1      -0.994  16.454  20.975  0.00  0.00    +0.000 A 
ATOM     17  C   UNL     1      -1.321  16.128  22.292  0.00  0.00    +0.000 A 
ATOM     18  C   UNL     1      -1.319  14.794  22.717  0.00  0.00    +0.000 A 
ATOM     19  C   UNL     1      -0.992  13.775  21.798  0.00  0.00    +0.000 A 
ATOM     20  C   UNL     1      -0.947  12.349  21.841  0.00  0.00    +0.000 A 
ATOM     21  C   UNL     1      -1.318  11.488  22.997  0.00  0.00    +0.000 C 
ENDBRANCH   8  11
ENDBRANCH   4   7
BRANCH   1  22
ATOM     22  C   UNL     1       3.137   4.688  19.698  0.00  0.00    +0.000 C 
BRANCH  22  26
ATOM     23  C   UNL     1       7.772   5.935  19.038  0.00  0.00    +0.000 C 
ATOM     24  C   UNL     1       6.447   5.347  18.702  0.00  0.00    +0.000 A 
ATOM     25  N   UNL     1       5.437   5.436  19.571  0.00  0.00    +0.000 NA
ATOM     26  N   UNL     1       4.419   4.753  18.998  0.00  0.00    +0.000 N 
ATOM     27  C   UNL     1       4.711   4.390  17.699  0.00  0.00    +0.000 A 
ATOM     28  C   UNL     1       3.746   3.769  16.755  0.00  0.00    +0.000 C 
ATOM     29  C   UNL     1       6.058   4.675  17.513  0.00  0.00    +0.000 A 
BRANCH  29  30
ATOM     30  C   UNL     1       6.903   4.326  16.325  0.00  0.00    +0.000 C 
BRANCH  30  31
ATOM     31  C   UNL     1       6.902   5.298  15.165  0.00  0.00    +0.000 C 
ATOM     32  O   UNL     1       7.850   5.387  14.395  0.00  0.00    +0.000 OA
BRANCH  31  33
ATOM     33  O   UNL     1       5.813   6.077  15.013  0.00  0.00    +0.000 OA
ATOM     34  H   UNL     1       5.461   6.450  15.846  0.00  0.00    +0.000 HD
ENDBRANCH  31  33
ENDBRANCH  30  31
ENDBRANCH  29  30
ENDBRANCH  22  26
ENDBRANCH   1  22
TORSDOF 7
ENDMDL
MODEL 5
REMARK VINA RESULT:      -8.2      3.577      4.734
REMARK  Name = 
REMARK  10 active torsions:
REMARK  status: ('A' for Active; 'I' for Inactive)
REMARK    1  A    between atoms: C_1  and  C_2
REMARK    2  A    between atoms: N_4  and  C_5
REMARK    3  A    between atoms: C_5  and  C_6
REMARK    4  A    between atoms: C_9  and  N_10
REMARK    5  A    between atoms: C_11  and  C_13
REMARK    6  A    between atoms: C_22  and  C_23
REMARK    7  A    between atoms: C_26  and  C_27
REMARK    8  A    between atoms: C_28  and  C_29
REMARK    9  A    between atoms: C_29  and  C_30
REMARK   10  A    between atoms: C_30  and  O_32
REMARK                            x       y       z     vdW  Elec       q    Type
REMARK                         _______ _______ _______ _____ _____    ______ ____
ROOT
ATOM      1  C   UNL     1       2.232   7.974  18.592  0.00  0.00    +0.000 A 
ATOM      2  C   UNL     1       1.910   7.811  19.944  0.00  0.00    +0.000 A 
ATOM      3  C   UNL     1       1.077   8.727  20.612  0.00  0.00    +0.000 A 
ATOM      4  C   UNL     1       0.532   9.834  19.954  0.00  0.00    +0.000 A 
ATOM      5  C   UNL     1       0.783   9.950  18.580  0.00  0.00    +0.000 A 
ATOM      6  C   UNL     1       1.623   9.034  17.907  0.00  0.00    +0.000 A 
ENDROOT
BRANCH   4   7
ATOM      7  N   UNL     1      -0.222  10.853  20.604  0.00  0.00    +0.000 N 
ATOM      8  C   UNL     1       0.273  12.012  21.199  0.00  0.00    +0.000 C 
ATOM      9  O   UNL     1       1.467  12.274  21.300  0.00  0.00    +0.000 OA
ATOM     10  H   UNL     1      -1.234  10.782  20.572  0.00  0.00    +0.000 HD
BRANCH   8  11
ATOM     11  C   UNL     1      -0.735  12.952  21.696  0.00  0.00    +0.000 A 
ATOM     12  O   UNL     1      -1.718  12.526  22.555  0.00  0.00    +0.000 OA
ATOM     13  C   UNL     1      -2.501  13.610  22.858  0.00  0.00    +0.000 A 
ATOM     14  C   UNL     1      -3.591  13.646  23.732  0.00  0.00    +0.000 A 
ATOM     15 CL   UNL     1      -4.102  12.255  24.596  0.00  0.00    +0.000 Cl
ATOM     16  C   UNL     1      -4.255  14.869  23.896  0.00  0.00    +0.000 A 
ATOM     17  C   UNL     1      -3.852  16.001  23.188  0.00  0.00    +0.000 A 
ATOM     18  C   UNL     1      -2.758  15.945  22.315  0.00  0.00    +0.000 A 
ATOM     19  C   UNL     1      -2.056  14.731  22.164  0.00  0.00    +0.000 A 
ATOM     20  C   UNL     1      -0.895  14.316  21.445  0.00  0.00    +0.000 A 
ATOM     21  C   UNL     1      -0.017  15.180  20.610  0.00  0.00    +0.000 C 
ENDBRANCH   8  11
ENDBRANCH   4   7
BRANCH   1  22
ATOM     22  C   UNL     1       3.303   7.110  17.952  0.00  0.00    +0.000 C 
BRANCH  22  26
ATOM     23  C   UNL     1       1.156   2.798  18.470  0.00  0.00    +0.000 C 
ATOM     24  C   UNL     1       2.256   3.798  18.517  0.00  0.00    +0.000 A 
ATOM     25  N   UNL     1       2.024   5.064  18.163  0.00  0.00    +0.000 NA
ATOM     26  N   UNL     1       3.225   5.680  18.252  0.00  0.00    +0.000 N 
ATOM     27  C   UNL     1       4.177   4.868  18.833  0.00  0.00    +0.000 A 
ATOM     28  C   UNL     1       5.546   5.304  19.210  0.00  0.00    +0.000 C 
ATOM     29  C   UNL     1       3.603   3.607  18.925  0.00  0.00    +0.000 A 
BRANCH  29  30
ATOM     30  C   UNL     1       4.274   2.333  19.342  0.00  0.00    +0.000 C 
BRANCH  30  31
ATOM     31  C   UNL     1       4.333   2.036  20.825  0.00  0.00    +0.000 C 
ATOM     32  O   UNL     1       5.301   1.485  21.336  0.00  0.00    +0.000 OA
BRANCH  31  33
ATOM     33  O   UNL     1       3.269   2.394  21.569  0.00  0.00    +0.000 OA
ATOM     34  H   UNL     1       2.481   2.657  21.053  0.00  0.00    +0.000 HD
ENDBRANCH  31  33
ENDBRANCH  30  31
ENDBRANCH  29  30
ENDBRANCH  22  26
ENDBRANCH   1  22
TORSDOF 7
ENDMDL
MODEL 6
REMARK VINA RESULT:      -8.1      1.487      1.977
REMARK  Name = 
REMARK  10 active torsions:
REMARK  status: ('A' for Active; 'I' for Inactive)
REMARK    1  A    between atoms: C_1  and  C_2
REMARK    2  A    between atoms: N_4  and  C_5
REMARK    3  A    between atoms: C_5  and  C_6
REMARK    4  A    between atoms: C_9  and  N_10
REMARK    5  A    between atoms: C_11  and  C_13
REMARK    6  A    between atoms: C_22  and  C_23
REMARK    7  A    between atoms: C_26  and  C_27
REMARK    8  A    between atoms: C_28  and  C_29
REMARK    9  A    between atoms: C_29  and  C_30
REMARK   10  A    between atoms: C_30  and  O_32
REMARK                            x       y       z     vdW  Elec       q    Type
REMARK                         _______ _______ _______ _____ _____    ______ ____
ROOT
ATOM      1  C   UNL     1       2.596   5.763  19.792  0.00  0.00    +0.000 A 
ATOM      2  C   UNL     1       1.718   5.975  20.861  0.00  0.00    +0.000 A 
ATOM      3  C   UNL     1       1.066   7.209  21.038  0.00  0.00    +0.000 A 
ATOM      4  C   UNL     1       1.263   8.273  20.153  0.00  0.00    +0.000 A 
ATOM      5  C   UNL     1       2.072   8.035  19.034  0.00  0.00    +0.000 A 
ATOM      6  C   UNL     1       2.732   6.797  18.856  0.00  0.00    +0.000 A 
ENDROOT
BRANCH   4   7
ATOM      7  N   UNL     1       0.721   9.577  20.344  0.00  0.00    +0.000 N 
ATOM      8  C   UNL     1       0.782  10.349  21.503  0.00  0.00    +0.000 C 
ATOM      9  O   UNL     1       1.269   9.961  22.559  0.00  0.00    +0.000 OA
ATOM     10  H   UNL     1       0.310  10.038  19.538  0.00  0.00    +0.000 HD
BRANCH   8  11
ATOM     11  C   UNL     1       0.241  11.706  21.391  0.00  0.00    +0.000 A 
ATOM     12  O   UNL     1       0.813  12.613  20.533  0.00  0.00    +0.000 OA
ATOM     13  C   UNL     1       0.098  13.779  20.629  0.00  0.00    +0.000 A 
ATOM     14  C   UNL     1       0.301  14.955  19.900  0.00  0.00    +0.000 A 
ATOM     15 CL   UNL     1       1.535  15.082  18.715  0.00  0.00    +0.000 Cl
ATOM     16  C   UNL     1      -0.552  16.037  20.158  0.00  0.00    +0.000 A 
ATOM     17  C   UNL     1      -1.550  15.945  21.129  0.00  0.00    +0.000 A 
ATOM     18  C   UNL     1      -1.736  14.758  21.850  0.00  0.00    +0.000 A 
ATOM     19  C   UNL     1      -0.909  13.647  21.578  0.00  0.00    +0.000 A 
ATOM     20  C   UNL     1      -0.842  12.299  22.042  0.00  0.00    +0.000 A 
ATOM     21  C   UNL     1      -1.764  11.652  23.014  0.00  0.00    +0.000 C 
ENDBRANCH   8  11
ENDBRANCH   4   7
BRANCH   1  22
ATOM     22  C   UNL     1       3.456   4.514  19.744  0.00  0.00    +0.000 C 
BRANCH  22  26
ATOM     23  C   UNL     1       8.020   5.956  18.993  0.00  0.00    +0.000 C 
ATOM     24  C   UNL     1       6.712   5.322  18.679  0.00  0.00    +0.000 A 
ATOM     25  N   UNL     1       5.721   5.355  19.574  0.00  0.00    +0.000 NA
ATOM     26  N   UNL     1       4.717   4.643  19.013  0.00  0.00    +0.000 N 
ATOM     27  C   UNL     1       4.989   4.315  17.702  0.00  0.00    +0.000 A 
ATOM     28  C   UNL     1       4.026   3.674  16.770  0.00  0.00    +0.000 C 
ATOM     29  C   UNL     1       6.318   4.657  17.487  0.00  0.00    +0.000 A 
BRANCH  29  30
ATOM     30  C   UNL     1       7.146   4.363  16.273  0.00  0.00    +0.000 C 
BRANCH  30  31
ATOM     31  C   UNL     1       6.973   5.278  15.079  0.00  0.00    +0.000 C 
ATOM     32  O   UNL     1       7.774   5.290  14.152  0.00  0.00    +0.000 OA
BRANCH  31  33
ATOM     33  O   UNL     1       5.901   6.093  15.077  0.00  0.00    +0.000 OA
ATOM     34  H   UNL     1       5.256   5.919  15.791  0.00  0.00    +0.000 HD
ENDBRANCH  31  33
ENDBRANCH  30  31
ENDBRANCH  29  30
ENDBRANCH  22  26
ENDBRANCH   1  22
TORSDOF 7
ENDMDL
MODEL 7
REMARK VINA RESULT:      -8.1      4.868     11.703
REMARK  Name = 
REMARK  10 active torsions:
REMARK  status: ('A' for Active; 'I' for Inactive)
REMARK    1  A    between atoms: C_1  and  C_2
REMARK    2  A    between atoms: N_4  and  C_5
REMARK    3  A    between atoms: C_5  and  C_6
REMARK    4  A    between atoms: C_9  and  N_10
REMARK    5  A    between atoms: C_11  and  C_13
REMARK    6  A    between atoms: C_22  and  C_23
REMARK    7  A    between atoms: C_26  and  C_27
REMARK    8  A    between atoms: C_28  and  C_29
REMARK    9  A    between atoms: C_29  and  C_30
REMARK   10  A    between atoms: C_30  and  O_32
REMARK                            x       y       z     vdW  Elec       q    Type
REMARK                         _______ _______ _______ _____ _____    ______ ____
ROOT
ATOM      1  C   UNL     1      -1.322  11.621  22.410  0.00  0.00    +0.000 A 
ATOM      2  C   UNL     1      -1.118  11.470  21.034  0.00  0.00    +0.000 A 
ATOM      3  C   UNL     1      -0.506  10.317  20.509  0.00  0.00    +0.000 A 
ATOM      4  C   UNL     1      -0.083   9.273  21.336  0.00  0.00    +0.000 A 
ATOM      5  C   UNL     1      -0.366   9.384  22.704  0.00  0.00    +0.000 A 
ATOM      6  C   UNL     1      -0.976  10.543  23.236  0.00  0.00    +0.000 A 
ENDROOT
BRANCH   4   7
ATOM      7  N   UNL     1       0.642   8.136  20.875  0.00  0.00    +0.000 N 
ATOM      8  C   UNL     1       1.589   8.104  19.852  0.00  0.00    +0.000 C 
ATOM      9  O   UNL     1       1.875   9.070  19.153  0.00  0.00    +0.000 OA
ATOM     10  H   UNL     1       0.525   7.265  21.384  0.00  0.00    +0.000 HD
BRANCH   8  11
ATOM     11  C   UNL     1       2.270   6.821  19.657  0.00  0.00    +0.000 A 
ATOM     12  O   UNL     1       1.983   5.752  20.470  0.00  0.00    +0.000 OA
ATOM     13  C   UNL     1       2.751   4.697  20.051  0.00  0.00    +0.000 A 
ATOM     14  C   UNL     1       2.750   3.397  20.564  0.00  0.00    +0.000 A 
ATOM     15 CL   UNL     1       1.711   2.932  21.848  0.00  0.00    +0.000 Cl
ATOM     16  C   UNL     1       3.623   2.466  19.983  0.00  0.00    +0.000 A 
ATOM     17  C   UNL     1       4.479   2.839  18.947  0.00  0.00    +0.000 A 
ATOM     18  C   UNL     1       4.466   4.148  18.448  0.00  0.00    +0.000 A 
ATOM     19  C   UNL     1       3.569   5.089  18.996  0.00  0.00    +0.000 A 
ATOM     20  C   UNL     1       3.232   6.447  18.717  0.00  0.00    +0.000 A 
ATOM     21  C   UNL     1       3.785   7.288  17.621  0.00  0.00    +0.000 C 
ENDBRANCH   8  11
ENDBRANCH   4   7
BRANCH   1  22
ATOM     22  C   UNL     1      -1.773  12.956  22.974  0.00  0.00    +0.000 C 
BRANCH  22  26
ATOM     23  C   UNL     1      -5.398  15.140  20.614  0.00  0.00    +0.000 C 
ATOM     24  C   UNL     1      -4.743  14.325  21.673  0.00  0.00    +0.000 A 
ATOM     25  N   UNL     1      -3.419  14.152  21.659  0.00  0.00    +0.000 NA
ATOM     26  N   UNL     1      -3.162  13.322  22.696  0.00  0.00    +0.000 N 
ATOM     27  C   UNL     1      -4.280  13.115  23.477  0.00  0.00    +0.000 A 
ATOM     28  C   UNL     1      -4.288  12.381  24.769  0.00  0.00    +0.000 C 
ATOM     29  C   UNL     1      -5.345  13.673  22.781  0.00  0.00    +0.000 A 
BRANCH  29  30
ATOM     30  C   UNL     1      -6.801  13.582  23.124  0.00  0.00    +0.000 C 
BRANCH  30  31
ATOM     31  C   UNL     1      -7.504  12.277  22.815  0.00  0.00    +0.000 C 
ATOM     32  O   UNL     1      -7.910  12.012  21.689  0.00  0.00    +0.000 OA
BRANCH  31  33
ATOM     33  O   UNL     1      -7.677  11.413  23.833  0.00  0.00    +0.000 OA
ATOM     34  H   UNL     1      -6.883  10.889  24.062  0.00  0.00    +0.000 HD
ENDBRANCH  31  33
ENDBRANCH  30  31
ENDBRANCH  29  30
ENDBRANCH  22  26
ENDBRANCH   1  22
TORSDOF 7
ENDMDL
MODEL 8
REMARK VINA RESULT:      -8.1      3.787      5.029
REMARK  Name = 
REMARK  10 active torsions:
REMARK  status: ('A' for Active; 'I' for Inactive)
REMARK    1  A    between atoms: C_1  and  C_2
REMARK    2  A    between atoms: N_4  and  C_5
REMARK    3  A    between atoms: C_5  and  C_6
REMARK    4  A    between atoms: C_9  and  N_10
REMARK    5  A    between atoms: C_11  and  C_13
REMARK    6  A    between atoms: C_22  and  C_23
REMARK    7  A    between atoms: C_26  and  C_27
REMARK    8  A    between atoms: C_28  and  C_29
REMARK    9  A    between atoms: C_29  and  C_30
REMARK   10  A    between atoms: C_30  and  O_32
REMARK                            x       y       z     vdW  Elec       q    Type
REMARK                         _______ _______ _______ _____ _____    ______ ____
ROOT
ATOM      1  C   UNL     1       2.600   7.950  18.398  0.00  0.00    +0.000 A 
ATOM      2  C   UNL     1       2.019   8.961  17.625  0.00  0.00    +0.000 A 
ATOM      3  C   UNL     1       0.987   9.770  18.135  0.00  0.00    +0.000 A 
ATOM      4  C   UNL     1       0.503   9.602  19.436  0.00  0.00    +0.000 A 
ATOM      5  C   UNL     1       1.142   8.650  20.241  0.00  0.00    +0.000 A 
ATOM      6  C   UNL     1       2.176   7.832  19.729  0.00  0.00    +0.000 A 
ENDROOT
BRANCH   4   7
ATOM      7  N   UNL     1      -0.613  10.312  19.967  0.00  0.00    +0.000 N 
ATOM      8  C   UNL     1      -0.649  11.652  20.350  0.00  0.00    +0.000 C 
ATOM      9  O   UNL     1       0.327  12.394  20.340  0.00  0.00    +0.000 OA
ATOM     10  H   UNL     1      -1.504   9.827  20.006  0.00  0.00    +0.000 HD
BRANCH   8  11
ATOM     11  C   UNL     1      -1.962  12.161  20.757  0.00  0.00    +0.000 A 
ATOM     12  O   UNL     1      -2.998  12.206  19.858  0.00  0.00    +0.000 OA
ATOM     13  C   UNL     1      -4.092  12.708  20.514  0.00  0.00    +0.000 A 
ATOM     14  C   UNL     1      -5.379  12.886  19.996  0.00  0.00    +0.000 A 
ATOM     15 CL   UNL     1      -5.771  12.455  18.382  0.00  0.00    +0.000 Cl
ATOM     16  C   UNL     1      -6.356  13.419  20.848  0.00  0.00    +0.000 A 
ATOM     17  C   UNL     1      -6.042  13.782  22.157  0.00  0.00    +0.000 A 
ATOM     18  C   UNL     1      -4.747  13.598  22.657  0.00  0.00    +0.000 A 
ATOM     19  C   UNL     1      -3.759  13.030  21.826  0.00  0.00    +0.000 A 
ATOM     20  C   UNL     1      -2.396  12.641  21.994  0.00  0.00    +0.000 A 
ATOM     21  C   UNL     1      -1.605  12.716  23.252  0.00  0.00    +0.000 C 
ENDBRANCH   8  11
ENDBRANCH   4   7
BRANCH   1  22
ATOM     22  C   UNL     1       3.546   6.949  17.762  0.00  0.00    +0.000 C 
BRANCH  22  26
ATOM     23  C   UNL     1       0.855   2.985  18.484  0.00  0.00    +0.000 C 
ATOM     24  C   UNL     1       2.086   3.819  18.439  0.00  0.00    +0.000 A 
ATOM     25  N   UNL     1       2.009   5.105  18.090  0.00  0.00    +0.000 NA
ATOM     26  N   UNL     1       3.289   5.545  18.083  0.00  0.00    +0.000 N 
ATOM     27  C   UNL     1       4.157   4.607  18.601  0.00  0.00    +0.000 A 
ATOM     28  C   UNL     1       5.599   4.843  18.871  0.00  0.00    +0.000 C 
ATOM     29  C   UNL     1       3.420   3.439  18.749  0.00  0.00    +0.000 A 
BRANCH  29  30
ATOM     30  C   UNL     1       3.933   2.083  19.130  0.00  0.00    +0.000 C 
BRANCH  30  31
ATOM     31  C   UNL     1       4.338   1.877  20.573  0.00  0.00    +0.000 C 
ATOM     32  O   UNL     1       3.645   2.273  21.503  0.00  0.00    +0.000 OA
BRANCH  31  33
ATOM     33  O   UNL     1       5.505   1.244  20.802  0.00  0.00    +0.000 OA
ATOM     34  H   UNL     1       5.648   0.445  20.257  0.00  0.00    +0.000 HD
ENDBRANCH  31  33
ENDBRANCH  30  31
ENDBRANCH  29  30
ENDBRANCH  22  26
ENDBRANCH   1  22
TORSDOF 7
ENDMDL
MODEL 9
REMARK VINA RESULT:      -8.1      3.827      4.772
REMARK  Name = 
REMARK  10 active torsions:
REMARK  status: ('A' for Active; 'I' for Inactive)
REMARK    1  A    between atoms: C_1  and  C_2
REMARK    2  A    between atoms: N_4  and  C_5
REMARK    3  A    between atoms: C_5  and  C_6
REMARK    4  A    between atoms: C_9  and  N_10
REMARK    5  A    between atoms: C_11  and  C_13
REMARK    6  A    between atoms: C_22  and  C_23
REMARK    7  A    between atoms: C_26  and  C_27
REMARK    8  A    between atoms: C_28  and  C_29
REMARK    9  A    between atoms: C_29  and  C_30
REMARK   10  A    between atoms: C_30  and  O_32
REMARK                            x       y       z     vdW  Elec       q    Type
REMARK                         _______ _______ _______ _____ _____    ______ ____
ROOT
ATOM      1  C   UNL     1       1.998   8.106  18.920  0.00  0.00    +0.000 A 
ATOM      2  C   UNL     1       1.806   7.908  20.292  0.00  0.00    +0.000 A 
ATOM      3  C   UNL     1       0.977   8.761  21.044  0.00  0.00    +0.000 A 
ATOM      4  C   UNL     1       0.308   9.836  20.454  0.00  0.00    +0.000 A 
ATOM      5  C   UNL     1       0.428   9.983  19.065  0.00  0.00    +0.000 A 
ATOM      6  C   UNL     1       1.264   9.131  18.307  0.00  0.00    +0.000 A 
ENDROOT
BRANCH   4   7
ATOM      7  N   UNL     1      -0.451  10.797  21.182  0.00  0.00    +0.000 N 
ATOM      8  C   UNL     1      -0.016  12.043  21.633  0.00  0.00    +0.000 C 
ATOM      9  O   UNL     1       1.134  12.451  21.511  0.00  0.00    +0.000 OA
ATOM     10  H   UNL     1      -1.436  10.603  21.332  0.00  0.00    +0.000 HD
BRANCH   8  11
ATOM     11  C   UNL     1      -1.038  12.884  22.259  0.00  0.00    +0.000 A 
ATOM     12  O   UNL     1      -0.767  13.554  23.427  0.00  0.00    +0.000 OA
ATOM     13  C   UNL     1      -1.890  14.262  23.768  0.00  0.00    +0.000 A 
ATOM     14  C   UNL     1      -2.048  15.121  24.860  0.00  0.00    +0.000 A 
ATOM     15 CL   UNL     1      -0.769  15.422  25.964  0.00  0.00    +0.000 Cl
ATOM     16  C   UNL     1      -3.290  15.749  25.021  0.00  0.00    +0.000 A 
ATOM     17  C   UNL     1      -4.337  15.500  24.134  0.00  0.00    +0.000 A 
ATOM     18  C   UNL     1      -4.161  14.635  23.047  0.00  0.00    +0.000 A 
ATOM     19  C   UNL     1      -2.906  14.021  22.848  0.00  0.00    +0.000 A 
ATOM     20  C   UNL     1      -2.345  13.163  21.855  0.00  0.00    +0.000 A 
ATOM     21  C   UNL     1      -3.021  12.683  20.619  0.00  0.00    +0.000 C 
ENDBRANCH   8  11
ENDBRANCH   4   7
BRANCH   1  22
ATOM     22  C   UNL     1       3.062   7.321  18.176  0.00  0.00    +0.000 C 
BRANCH  22  26
ATOM     23  C   UNL     1       1.101   2.901  18.481  0.00  0.00    +0.000 C 
ATOM     24  C   UNL     1       2.162   3.941  18.565  0.00  0.00    +0.000 A 
ATOM     25  N   UNL     1       1.871   5.215  18.291  0.00  0.00    +0.000 NA
ATOM     26  N   UNL     1       3.048   5.874  18.392  0.00  0.00    +0.000 N 
ATOM     27  C   UNL     1       4.044   5.070  18.906  0.00  0.00    +0.000 A 
ATOM     28  C   UNL     1       5.403   5.539  19.282  0.00  0.00    +0.000 C 
ATOM     29  C   UNL     1       3.524   3.783  18.935  0.00  0.00    +0.000 A 
BRANCH  29  30
ATOM     30  C   UNL     1       4.254   2.516  19.264  0.00  0.00    +0.000 C 
BRANCH  30  31
ATOM     31  C   UNL     1       4.338   2.124  20.723  0.00  0.00    +0.000 C 
ATOM     32  O   UNL     1       5.313   1.540  21.182  0.00  0.00    +0.000 OA
BRANCH  31  33
ATOM     33  O   UNL     1       3.288   2.436  21.508  0.00  0.00    +0.000 OA
ATOM     34  H   UNL     1       2.414   2.246  21.111  0.00  0.00    +0.000 HD
ENDBRANCH  31  33
ENDBRANCH  30  31
ENDBRANCH  29  30
ENDBRANCH  22  26
ENDBRANCH   1  22
TORSDOF 7
ENDMDL
