MODEL 1
REMARK VINA RESULT:      -8.5      0.000      0.000
REMARK  Name = 
REMARK  7 active torsions:
REMARK  status: ('A' for Active; 'I' for Inactive)
REMARK    1  A    between atoms: C_1  and  C_2
REMARK    2  A    between atoms: C_6  and  C_8
REMARK    3  A    between atoms: C_8  and  N_9
REMARK    4  A    between atoms: C_15  and  C_16
REMARK    5  A    between atoms: C_16  and  C_17
REMARK    6  A    between atoms: C_17  and  O_18
REMARK    7  A    between atoms: C_17  and  C_19
REMARK                            x       y       z     vdW  Elec       q    Type
REMARK                         _______ _______ _______ _____ _____    ______ ____
ROOT
ATOM      1  N   UNL     1       3.265   5.236  18.432  0.00  0.00    +0.000 NA
ATOM      2  C   UNL     1       2.270   4.376  17.768  0.00  0.00    +0.000 C 
ATOM      3  C   UNL     1       1.331   3.760  18.810  0.00  0.00    +0.000 C 
ATOM      4  C   UNL     1       1.915   2.585  19.580  0.00  0.00    +0.000 C 
ATOM      5  C   UNL     1       3.227   2.893  20.289  0.00  0.00    +0.000 C 
ATOM      6  C   UNL     1       4.383   3.113  19.319  0.00  0.00    +0.000 C 
ATOM      7  C   UNL     1       4.557   4.544  18.746  0.00  0.00    +0.000 C 
ENDROOT
BRANCH   1   8
ATOM      8  C   UNL     1       3.484   6.500  17.672  0.00  0.00    +0.000 C 
BRANCH   8  14
ATOM      9  C   UNL     1      -0.526   9.845  22.925  0.00  0.00    +0.000 C 
ATOM     10  C   UNL     1       0.237   9.361  21.765  0.00  0.00    +0.000 A 
ATOM     11  C   UNL     1       1.023   8.263  21.508  0.00  0.00    +0.000 A 
ATOM     12  C   UNL     1       1.466   8.442  20.174  0.00  0.00    +0.000 A 
ATOM     13  N   UNL     1       2.287   7.558  19.508  0.00  0.00    +0.000 N 
ATOM     14  C   UNL     1       2.657   7.684  18.186  0.00  0.00    +0.000 C 
ATOM     15  O   UNL     1       2.425   8.634  17.445  0.00  0.00    +0.000 OA
ATOM     16  N   UNL     1       0.963   9.572  19.666  0.00  0.00    +0.000 NA
ATOM     17  O   UNL     1       0.199  10.144  20.658  0.00  0.00    +0.000 OA
ATOM     18  H   UNL     1       2.569   6.706  19.976  0.00  0.00    +0.000 HD
ENDBRANCH   8  14
ENDBRANCH   1   8
BRANCH   7  19
ATOM     19  C   UNL     1       5.593   4.530  17.569  0.00  0.00    +0.000 C 
BRANCH  19  20
ATOM     20  C   UNL     1       7.060   4.776  17.971  0.00  0.00    +0.000 C 
BRANCH  20  21
ATOM     21  C   UNL     1       7.421   6.224  17.892  0.00  0.00    +0.000 A 
ATOM     22  C   UNL     1       7.045   7.260  17.063  0.00  0.00    +0.000 A 
ATOM     23  C   UNL     1       7.684   8.423  17.560  0.00  0.00    +0.000 A 
ATOM     24  C   UNL     1       8.413   8.021  18.655  0.00  0.00    +0.000 A 
ATOM     25  O   UNL     1       8.262   6.690  18.866  0.00  0.00    +0.000 OA
ENDBRANCH  20  21
BRANCH  20  26
ATOM     26  O   UNL     1       7.968   4.113  17.101  0.00  0.00    +0.000 OA
ATOM     27  H   UNL     1       8.822   4.573  17.200  0.00  0.00    +0.000 HD
ENDBRANCH  20  26
ENDBRANCH  19  20
ENDBRANCH   7  19
TORSDOF 6
ENDMDL
MODEL 2
REMARK VINA RESULT:      -8.4      0.851      1.051
REMARK  Name = 
REMARK  7 active torsions:
REMARK  status: ('A' for Active; 'I' for Inactive)
REMARK    1  A    between atoms: C_1  and  C_2
REMARK    2  A    between atoms: C_6  and  C_8
REMARK    3  A    between atoms: C_8  and  N_9
REMARK    4  A    between atoms: C_15  and  C_16
REMARK    5  A    between atoms: C_16  and  C_17
REMARK    6  A    between atoms: C_17  and  O_18
REMARK    7  A    between atoms: C_17  and  C_19
REMARK                            x       y       z     vdW  Elec       q    Type
REMARK                         _______ _______ _______ _____ _____    ______ ____
ROOT
ATOM      1  N   UNL     1       3.212   5.193  18.440  0.00  0.00    +0.000 NA
ATOM      2  C   UNL     1       1.866   4.654  18.178  0.00  0.00    +0.000 C 
ATOM      3  C   UNL     1       1.257   4.112  19.475  0.00  0.00    +0.000 C 
ATOM      4  C   UNL     1       1.780   2.750  19.905  0.00  0.00    +0.000 C 
ATOM      5  C   UNL     1       3.293   2.682  20.062  0.00  0.00    +0.000 C 
ATOM      6  C   UNL     1       4.028   2.786  18.730  0.00  0.00    +0.000 C 
ATOM      7  C   UNL     1       4.319   4.213  18.197  0.00  0.00    +0.000 C 
ENDROOT
BRANCH   1   8
ATOM      8  C   UNL     1       3.435   6.474  17.711  0.00  0.00    +0.000 C 
BRANCH   8  14
ATOM      9  C   UNL     1      -0.434   9.907  23.014  0.00  0.00    +0.000 C 
ATOM     10  C   UNL     1       0.279   9.392  21.834  0.00  0.00    +0.000 A 
ATOM     11  C   UNL     1       1.129   8.339  21.594  0.00  0.00    +0.000 A 
ATOM     12  C   UNL     1       1.457   8.448  20.221  0.00  0.00    +0.000 A 
ATOM     13  N   UNL     1       2.295   7.579  19.556  0.00  0.00    +0.000 N 
ATOM     14  C   UNL     1       2.556   7.629  18.204  0.00  0.00    +0.000 C 
ATOM     15  O   UNL     1       2.195   8.501  17.417  0.00  0.00    +0.000 OA
ATOM     16  N   UNL     1       0.830   9.495  19.675  0.00  0.00    +0.000 NA
ATOM     17  O   UNL     1       0.097  10.084  20.681  0.00  0.00    +0.000 OA
ATOM     18  H   UNL     1       2.678   6.788  20.060  0.00  0.00    +0.000 HD
ENDBRANCH   8  14
ENDBRANCH   1   8
BRANCH   7  19
ATOM     19  C   UNL     1       4.814   4.143  16.711  0.00  0.00    +0.000 C 
BRANCH  19  20
ATOM     20  C   UNL     1       6.343   4.114  16.519  0.00  0.00    +0.000 C 
BRANCH  20  21
ATOM     21  C   UNL     1       7.027   5.142  17.360  0.00  0.00    +0.000 A 
ATOM     22  C   UNL     1       7.230   6.500  17.235  0.00  0.00    +0.000 A 
ATOM     23  C   UNL     1       7.886   6.918  18.419  0.00  0.00    +0.000 A 
ATOM     24  C   UNL     1       8.048   5.788  19.188  0.00  0.00    +0.000 A 
ATOM     25  O   UNL     1       7.531   4.705  18.555  0.00  0.00    +0.000 OA
ENDBRANCH  20  21
BRANCH  20  26
ATOM     26  O   UNL     1       6.716   4.413  15.180  0.00  0.00    +0.000 OA
ATOM     27  H   UNL     1       5.964   4.142  14.623  0.00  0.00    +0.000 HD
ENDBRANCH  20  26
ENDBRANCH  19  20
ENDBRANCH   7  19
TORSDOF 6
ENDMDL
MODEL 3
REMARK VINA RESULT:      -8.3      1.723      2.317
REMARK  Name = 
REMARK  7 active torsions:
REMARK  status: ('A' for Active; 'I' for Inactive)
REMARK    1  A    between atoms: C_1  and  C_2
REMARK    2  A    between atoms: C_6  and  C_8
REMARK    3  A    between atoms: C_8  and  N_9
REMARK    4  A    between atoms: C_15  and  C_16
REMARK    5  A    between atoms: C_16  and  C_17
REMARK    6  A    between atoms: C_17  and  O_18
REMARK    7  A    between atoms: C_17  and  C_19
REMARK                            x       y       z     vdW  Elec       q    Type
REMARK                         _______ _______ _______ _____ _____    ______ ____
ROOT
ATOM      1  N   UNL     1       2.964   5.019  19.502  0.00  0.00    +0.000 NA
ATOM      2  C   UNL     1       1.629   4.495  19.168  0.00  0.00    +0.000 C 
ATOM      3  C   UNL     1       0.879   4.115  20.449  0.00  0.00    +0.000 C 
ATOM      4  C   UNL     1       1.303   2.792  21.068  0.00  0.00    +0.000 C 
ATOM      5  C   UNL     1       2.791   2.696  21.377  0.00  0.00    +0.000 C 
ATOM      6  C   UNL     1       3.652   2.634  20.120  0.00  0.00    +0.000 C 
ATOM      7  C   UNL     1       4.049   3.986  19.472  0.00  0.00    +0.000 C 
ENDROOT
BRANCH   1   8
ATOM      8  C   UNL     1       3.306   6.207  18.669  0.00  0.00    +0.000 C 
BRANCH   8  14
ATOM      9  C   UNL     1      -0.800  10.541  23.053  0.00  0.00    +0.000 C 
ATOM     10  C   UNL     1      -0.042   9.815  22.022  0.00  0.00    +0.000 A 
ATOM     11  C   UNL     1       0.846   8.767  22.026  0.00  0.00    +0.000 A 
ATOM     12  C   UNL     1       1.205   8.594  20.667  0.00  0.00    +0.000 A 
ATOM     13  N   UNL     1       2.087   7.635  20.217  0.00  0.00    +0.000 N 
ATOM     14  C   UNL     1       2.379   7.407  18.889  0.00  0.00    +0.000 C 
ATOM     15  O   UNL     1       2.010   8.078  17.930  0.00  0.00    +0.000 OA
ATOM     16  N   UNL     1       0.558   9.478  19.900  0.00  0.00    +0.000 NA
ATOM     17  O   UNL     1      -0.218  10.239  20.745  0.00  0.00    +0.000 OA
ATOM     18  H   UNL     1       2.482   6.983  20.884  0.00  0.00    +0.000 HD
ENDBRANCH   8  14
ENDBRANCH   1   8
BRANCH   7  19
ATOM     19  C   UNL     1       4.678   3.741  18.057  0.00  0.00    +0.000 C 
BRANCH  19  20
ATOM     20  C   UNL     1       5.908   4.604  17.717  0.00  0.00    +0.000 C 
BRANCH  20  21
ATOM     21  C   UNL     1       6.170   4.640  16.246  0.00  0.00    +0.000 A 
ATOM     22  C   UNL     1       7.247   5.024  15.474  0.00  0.00    +0.000 A 
ATOM     23  C   UNL     1       6.899   4.737  14.131  0.00  0.00    +0.000 A 
ATOM     24  C   UNL     1       5.631   4.204  14.168  0.00  0.00    +0.000 A 
ATOM     25  O   UNL     1       5.179   4.141  15.445  0.00  0.00    +0.000 OA
ENDBRANCH  20  21
BRANCH  20  26
ATOM     26  O   UNL     1       7.098   4.087  18.298  0.00  0.00    +0.000 OA
ATOM     27  H   UNL     1       7.315   4.678  19.041  0.00  0.00    +0.000 HD
ENDBRANCH  20  26
ENDBRANCH  19  20
ENDBRANCH   7  19
TORSDOF 6
ENDMDL
MODEL 4
REMARK VINA RESULT:      -8.2      2.386      7.033
REMARK  Name = 
REMARK  7 active torsions:
REMARK  status: ('A' for Active; 'I' for Inactive)
REMARK    1  A    between atoms: C_1  and  C_2
REMARK    2  A    between atoms: C_6  and  C_8
REMARK    3  A    between atoms: C_8  and  N_9
REMARK    4  A    between atoms: C_15  and  C_16
REMARK    5  A    between atoms: C_16  and  C_17
REMARK    6  A    between atoms: C_17  and  O_18
REMARK    7  A    between atoms: C_17  and  C_19
REMARK                            x       y       z     vdW  Elec       q    Type
REMARK                         _______ _______ _______ _____ _____    ______ ____
ROOT
ATOM      1  N   UNL     1       4.107   4.322  18.831  0.00  0.00    +0.000 NA
ATOM      2  C   UNL     1       4.069   3.170  19.749  0.00  0.00    +0.000 C 
ATOM      3  C   UNL     1       3.705   1.898  18.976  0.00  0.00    +0.000 C 
ATOM      4  C   UNL     1       2.228   1.753  18.644  0.00  0.00    +0.000 C 
ATOM      5  C   UNL     1       1.644   2.927  17.869  0.00  0.00    +0.000 C 
ATOM      6  C   UNL     1       1.555   4.199  18.705  0.00  0.00    +0.000 C 
ATOM      7  C   UNL     1       2.822   5.091  18.764  0.00  0.00    +0.000 C 
ENDROOT
BRANCH   1   8
ATOM      8  C   UNL     1       5.269   5.209  19.122  0.00  0.00    +0.000 C 
BRANCH   8  14
ATOM      9  C   UNL     1       7.155   4.122  12.042  0.00  0.00    +0.000 C 
ATOM     10  C   UNL     1       6.935   4.490  13.449  0.00  0.00    +0.000 A 
ATOM     11  C   UNL     1       6.011   4.154  14.409  0.00  0.00    +0.000 A 
ATOM     12  C   UNL     1       6.391   4.901  15.551  0.00  0.00    +0.000 A 
ATOM     13  N   UNL     1       5.725   4.860  16.757  0.00  0.00    +0.000 N 
ATOM     14  C   UNL     1       6.134   5.520  17.896  0.00  0.00    +0.000 C 
ATOM     15  O   UNL     1       7.058   6.324  17.987  0.00  0.00    +0.000 OA
ATOM     16  N   UNL     1       7.482   5.627  15.289  0.00  0.00    +0.000 NA
ATOM     17  O   UNL     1       7.820   5.372  13.978  0.00  0.00    +0.000 OA
ATOM     18  H   UNL     1       4.936   4.234  16.858  0.00  0.00    +0.000 HD
ENDBRANCH   8  14
ENDBRANCH   1   8
BRANCH   7  19
ATOM     19  C   UNL     1       2.658   6.186  19.874  0.00  0.00    +0.000 C 
BRANCH  19  20
ATOM     20  C   UNL     1       2.484   7.630  19.364  0.00  0.00    +0.000 C 
BRANCH  20  21
ATOM     21  C   UNL     1       1.431   8.365  20.128  0.00  0.00    +0.000 A 
ATOM     22  C   UNL     1       0.939   8.270  21.413  0.00  0.00    +0.000 A 
ATOM     23  C   UNL     1      -0.007   9.314  21.558  0.00  0.00    +0.000 A 
ATOM     24  C   UNL     1      -0.037   9.975  20.352  0.00  0.00    +0.000 A 
ATOM     25  O   UNL     1       0.831   9.408  19.477  0.00  0.00    +0.000 OA
ENDBRANCH  20  21
BRANCH  20  26
ATOM     26  O   UNL     1       2.060   7.667  18.007  0.00  0.00    +0.000 OA
ATOM     27  H   UNL     1       1.237   8.189  17.996  0.00  0.00    +0.000 HD
ENDBRANCH  20  26
ENDBRANCH  19  20
ENDBRANCH   7  19
TORSDOF 6
ENDMDL
MODEL 5
REMARK VINA RESULT:      -8.2      0.939      1.066
REMARK  Name = 
REMARK  7 active torsions:
REMARK  status: ('A' for Active; 'I' for Inactive)
REMARK    1  A    between atoms: C_1  and  C_2
REMARK    2  A    between atoms: C_6  and  C_8
REMARK    3  A    between atoms: C_8  and  N_9
REMARK    4  A    between atoms: C_15  and  C_16
REMARK    5  A    between atoms: C_16  and  C_17
REMARK    6  A    between atoms: C_17  and  O_18
REMARK    7  A    between atoms: C_17  and  C_19
REMARK                            x       y       z     vdW  Elec       q    Type
REMARK                         _______ _______ _______ _____ _____    ______ ____
ROOT
ATOM      1  N   UNL     1       3.286   5.746  18.200  0.00  0.00    +0.000 NA
ATOM      2  C   UNL     1       2.098   4.954  17.837  0.00  0.00    +0.000 C 
ATOM      3  C   UNL     1       1.507   4.295  19.088  0.00  0.00    +0.000 C 
ATOM      4  C   UNL     1       2.252   3.060  19.571  0.00  0.00    +0.000 C 
ATOM      5  C   UNL     1       3.731   3.291  19.847  0.00  0.00    +0.000 C 
ATOM      6  C   UNL     1       4.535   3.546  18.576  0.00  0.00    +0.000 C 
ATOM      7  C   UNL     1       4.581   5.006  18.054  0.00  0.00    +0.000 C 
ENDROOT
BRANCH   1   8
ATOM      8  C   UNL     1       3.310   7.051  17.478  0.00  0.00    +0.000 C 
BRANCH   8  14
ATOM      9  C   UNL     1      -0.517   9.812  23.188  0.00  0.00    +0.000 C 
ATOM     10  C   UNL     1       0.180   9.441  21.946  0.00  0.00    +0.000 A 
ATOM     11  C   UNL     1       1.053   8.444  21.582  0.00  0.00    +0.000 A 
ATOM     12  C   UNL     1       1.342   8.700  20.219  0.00  0.00    +0.000 A 
ATOM     13  N   UNL     1       2.187   7.929  19.451  0.00  0.00    +0.000 N 
ATOM     14  C   UNL     1       2.411   8.123  18.105  0.00  0.00    +0.000 C 
ATOM     15  O   UNL     1       2.005   9.057  17.419  0.00  0.00    +0.000 OA
ATOM     16  N   UNL     1       0.671   9.776  19.797  0.00  0.00    +0.000 NA
ATOM     17  O   UNL     1      -0.052  10.238  20.874  0.00  0.00    +0.000 OA
ATOM     18  H   UNL     1       2.605   7.104  19.863  0.00  0.00    +0.000 HD
ENDBRANCH   8  14
ENDBRANCH   1   8
BRANCH   7  19
ATOM     19  C   UNL     1       5.196   5.043  16.613  0.00  0.00    +0.000 C 
BRANCH  19  20
ATOM     20  C   UNL     1       6.735   5.103  16.547  0.00  0.00    +0.000 C 
BRANCH  20  21
ATOM     21  C   UNL     1       7.279   6.246  17.341  0.00  0.00    +0.000 A 
ATOM     22  C   UNL     1       7.917   6.348  18.559  0.00  0.00    +0.000 A 
ATOM     23  C   UNL     1       8.258   7.713  18.720  0.00  0.00    +0.000 A 
ATOM     24  C   UNL     1       7.803   8.358  17.593  0.00  0.00    +0.000 A 
ATOM     25  O   UNL     1       7.206   7.478  16.750  0.00  0.00    +0.000 OA
ENDBRANCH  20  21
BRANCH  20  26
ATOM     26  O   UNL     1       7.202   5.309  15.220  0.00  0.00    +0.000 OA
ATOM     27  H   UNL     1       7.934   4.680  15.091  0.00  0.00    +0.000 HD
ENDBRANCH  20  26
ENDBRANCH  19  20
ENDBRANCH   7  19
TORSDOF 6
ENDMDL
MODEL 6
REMARK VINA RESULT:      -8.1      2.594      6.884
REMARK  Name = 
REMARK  7 active torsions:
REMARK  status: ('A' for Active; 'I' for Inactive)
REMARK    1  A    between atoms: C_1  and  C_2
REMARK    2  A    between atoms: C_6  and  C_8
REMARK    3  A    between atoms: C_8  and  N_9
REMARK    4  A    between atoms: C_15  and  C_16
REMARK    5  A    between atoms: C_16  and  C_17
REMARK    6  A    between atoms: C_17  and  O_18
REMARK    7  A    between atoms: C_17  and  C_19
REMARK                            x       y       z     vdW  Elec       q    Type
REMARK                         _______ _______ _______ _____ _____    ______ ____
ROOT
ATOM      1  N   UNL     1       4.204   4.446  18.845  0.00  0.00    +0.000 NA
ATOM      2  C   UNL     1       3.620   3.904  20.084  0.00  0.00    +0.000 C 
ATOM      3  C   UNL     1       3.035   2.512  19.822  0.00  0.00    +0.000 C 
ATOM      4  C   UNL     1       1.686   2.509  19.119  0.00  0.00    +0.000 C 
ATOM      5  C   UNL     1       1.671   3.256  17.792  0.00  0.00    +0.000 C 
ATOM      6  C   UNL     1       1.823   4.763  17.963  0.00  0.00    +0.000 C 
ATOM      7  C   UNL     1       3.269   5.317  18.062  0.00  0.00    +0.000 C 
ENDROOT
BRANCH   1   8
ATOM      8  C   UNL     1       5.504   5.126  19.109  0.00  0.00    +0.000 C 
BRANCH   8  14
ATOM      9  C   UNL     1       7.115   4.011  11.966  0.00  0.00    +0.000 C 
ATOM     10  C   UNL     1       6.944   4.390  13.377  0.00  0.00    +0.000 A 
ATOM     11  C   UNL     1       6.076   4.034  14.381  0.00  0.00    +0.000 A 
ATOM     12  C   UNL     1       6.479   4.810  15.496  0.00  0.00    +0.000 A 
ATOM     13  N   UNL     1       5.868   4.761  16.731  0.00  0.00    +0.000 N 
ATOM     14  C   UNL     1       6.303   5.451  17.842  0.00  0.00    +0.000 C 
ATOM     15  O   UNL     1       7.201   6.287  17.884  0.00  0.00    +0.000 OA
ATOM     16  N   UNL     1       7.531   5.570  15.177  0.00  0.00    +0.000 NA
ATOM     17  O   UNL     1       7.820   5.309  13.857  0.00  0.00    +0.000 OA
ATOM     18  H   UNL     1       5.107   4.109  16.874  0.00  0.00    +0.000 HD
ENDBRANCH   8  14
ENDBRANCH   1   8
BRANCH   7  19
ATOM     19  C   UNL     1       3.241   6.818  18.514  0.00  0.00    +0.000 C 
BRANCH  19  20
ATOM     20  C   UNL     1       2.024   7.236  19.362  0.00  0.00    +0.000 C 
BRANCH  20  21
ATOM     21  C   UNL     1       1.667   8.671  19.149  0.00  0.00    +0.000 A 
ATOM     22  C   UNL     1       1.759   9.531  18.075  0.00  0.00    +0.000 A 
ATOM     23  C   UNL     1       1.170  10.751  18.487  0.00  0.00    +0.000 A 
ATOM     24  C   UNL     1       0.762  10.561  19.787  0.00  0.00    +0.000 A 
ATOM     25  O   UNL     1       1.058   9.303  20.199  0.00  0.00    +0.000 OA
ENDBRANCH  20  21
BRANCH  20  26
ATOM     26  O   UNL     1       2.280   7.115  20.755  0.00  0.00    +0.000 OA
ATOM     27  H   UNL     1       1.415   6.961  21.177  0.00  0.00    +0.000 HD
ENDBRANCH  20  26
ENDBRANCH  19  20
ENDBRANCH   7  19
TORSDOF 6
ENDMDL
MODEL 7
REMARK VINA RESULT:      -8.1      1.785      2.049
REMARK  Name = 
REMARK  7 active torsions:
REMARK  status: ('A' for Active; 'I' for Inactive)
REMARK    1  A    between atoms: C_1  and  C_2
REMARK    2  A    between atoms: C_6  and  C_8
REMARK    3  A    between atoms: C_8  and  N_9
REMARK    4  A    between atoms: C_15  and  C_16
REMARK    5  A    between atoms: C_16  and  C_17
REMARK    6  A    between atoms: C_17  and  O_18
REMARK    7  A    between atoms: C_17  and  C_19
REMARK                            x       y       z     vdW  Elec       q    Type
REMARK                         _______ _______ _______ _____ _____    ______ ____
ROOT
ATOM      1  N   UNL     1       3.076   4.742  18.217  0.00  0.00    +0.000 NA
ATOM      2  C   UNL     1       1.754   4.373  17.682  0.00  0.00    +0.000 C 
ATOM      3  C   UNL     1       1.030   3.448  18.665  0.00  0.00    +0.000 C 
ATOM      4  C   UNL     1       1.503   2.002  18.646  0.00  0.00    +0.000 C 
ATOM      5  C   UNL     1       2.997   1.829  18.889  0.00  0.00    +0.000 C 
ATOM      6  C   UNL     1       3.845   2.351  17.734  0.00  0.00    +0.000 C 
ATOM      7  C   UNL     1       4.193   3.862  17.743  0.00  0.00    +0.000 C 
ENDROOT
BRANCH   1   8
ATOM      8  C   UNL     1       3.372   6.185  17.988  0.00  0.00    +0.000 C 
BRANCH   8  14
ATOM      9  C   UNL     1      -0.040  12.658  19.139  0.00  0.00    +0.000 C 
ATOM     10  C   UNL     1       0.564  11.317  19.107  0.00  0.00    +0.000 A 
ATOM     11  C   UNL     1       1.222  10.570  18.160  0.00  0.00    +0.000 A 
ATOM     12  C   UNL     1       1.517   9.345  18.810  0.00  0.00    +0.000 A 
ATOM     13  N   UNL     1       2.182   8.296  18.213  0.00  0.00    +0.000 N 
ATOM     14  C   UNL     1       2.544   7.135  18.861  0.00  0.00    +0.000 C 
ATOM     15  O   UNL     1       2.236   6.803  20.003  0.00  0.00    +0.000 OA
ATOM     16  N   UNL     1       1.072   9.370  20.070  0.00  0.00    +0.000 NA
ATOM     17  O   UNL     1       0.477  10.598  20.254  0.00  0.00    +0.000 OA
ATOM     18  H   UNL     1       2.519   8.407  17.265  0.00  0.00    +0.000 HD
ENDBRANCH   8  14
ENDBRANCH   1   8
BRANCH   7  19
ATOM     19  C   UNL     1       4.814   4.280  16.366  0.00  0.00    +0.000 C 
BRANCH  19  20
ATOM     20  C   UNL     1       6.350   4.200  16.277  0.00  0.00    +0.000 C 
BRANCH  20  21
ATOM     21  C   UNL     1       7.011   5.169  17.203  0.00  0.00    +0.000 A 
ATOM     22  C   UNL     1       7.235   6.529  17.165  0.00  0.00    +0.000 A 
ATOM     23  C   UNL     1       7.846   6.869  18.397  0.00  0.00    +0.000 A 
ATOM     24  C   UNL     1       7.962   5.695  19.105  0.00  0.00    +0.000 A 
ATOM     25  O   UNL     1       7.459   4.657  18.390  0.00  0.00    +0.000 OA
ENDBRANCH  20  21
BRANCH  20  26
ATOM     26  O   UNL     1       6.826   4.535  14.979  0.00  0.00    +0.000 OA
ATOM     27  H   UNL     1       6.200   5.193  14.624  0.00  0.00    +0.000 HD
ENDBRANCH  20  26
ENDBRANCH  19  20
ENDBRANCH   7  19
TORSDOF 6
ENDMDL
MODEL 8
REMARK VINA RESULT:      -8.1      3.782      6.766
REMARK  Name = 
REMARK  7 active torsions:
REMARK  status: ('A' for Active; 'I' for Inactive)
REMARK    1  A    between atoms: C_1  and  C_2
REMARK    2  A    between atoms: C_6  and  C_8
REMARK    3  A    between atoms: C_8  and  N_9
REMARK    4  A    between atoms: C_15  and  C_16
REMARK    5  A    between atoms: C_16  and  C_17
REMARK    6  A    between atoms: C_17  and  O_18
REMARK    7  A    between atoms: C_17  and  C_19
REMARK                            x       y       z     vdW  Elec       q    Type
REMARK                         _______ _______ _______ _____ _____    ______ ____
ROOT
ATOM      1  N   UNL     1       6.674   5.669  17.219  0.00  0.00    +0.000 NA
ATOM      2  C   UNL     1       7.495   4.594  16.635  0.00  0.00    +0.000 C 
ATOM      3  C   UNL     1       7.360   4.603  15.109  0.00  0.00    +0.000 C 
ATOM      4  C   UNL     1       6.075   3.984  14.579  0.00  0.00    +0.000 C 
ATOM      5  C   UNL     1       4.804   4.606  15.143  0.00  0.00    +0.000 C 
ATOM      6  C   UNL     1       4.601   4.294  16.621  0.00  0.00    +0.000 C 
ATOM      7  C   UNL     1       5.305   5.229  17.640  0.00  0.00    +0.000 C 
ENDROOT
BRANCH   1   8
ATOM      8  C   UNL     1       7.396   6.365  18.322  0.00  0.00    +0.000 C 
BRANCH   8  14
ATOM      9  C   UNL     1      10.572  12.816  20.101  0.00  0.00    +0.000 C 
ATOM     10  C   UNL     1       9.910  11.622  19.551  0.00  0.00    +0.000 A 
ATOM     11  C   UNL     1       9.682  10.344  20.001  0.00  0.00    +0.000 A 
ATOM     12  C   UNL     1       8.995   9.707  18.938  0.00  0.00    +0.000 A 
ATOM     13  N   UNL     1       8.568   8.397  18.970  0.00  0.00    +0.000 N 
ATOM     14  C   UNL     1       7.829   7.794  17.976  0.00  0.00    +0.000 C 
ATOM     15  O   UNL     1       7.543   8.270  16.880  0.00  0.00    +0.000 OA
ATOM     16  N   UNL     1       8.814  10.560  17.925  0.00  0.00    +0.000 NA
ATOM     17  O   UNL     1       9.386  11.753  18.307  0.00  0.00    +0.000 OA
ATOM     18  H   UNL     1       8.716   7.855  19.813  0.00  0.00    +0.000 HD
ENDBRANCH   8  14
ENDBRANCH   1   8
BRANCH   7  19
ATOM     19  C   UNL     1       5.230   4.611  19.079  0.00  0.00    +0.000 C 
BRANCH  19  20
ATOM     20  C   UNL     1       4.526   3.244  19.181  0.00  0.00    +0.000 C 
BRANCH  20  21
ATOM     21  C   UNL     1       3.138   3.375  19.721  0.00  0.00    +0.000 A 
ATOM     22  C   UNL     1       2.613   3.839  20.909  0.00  0.00    +0.000 A 
ATOM     23  C   UNL     1       1.204   3.777  20.775  0.00  0.00    +0.000 A 
ATOM     24  C   UNL     1       0.960   3.273  19.519  0.00  0.00    +0.000 A 
ATOM     25  O   UNL     1       2.125   3.025  18.870  0.00  0.00    +0.000 OA
ENDBRANCH  20  21
BRANCH  20  26
ATOM     26  O   UNL     1       5.197   2.366  20.075  0.00  0.00    +0.000 OA
ATOM     27  H   UNL     1       5.088   2.751  20.964  0.00  0.00    +0.000 HD
ENDBRANCH  20  26
ENDBRANCH  19  20
ENDBRANCH   7  19
TORSDOF 6
ENDMDL
MODEL 9
REMARK VINA RESULT:      -8.0      1.863      2.448
REMARK  Name = 
REMARK  7 active torsions:
REMARK  status: ('A' for Active; 'I' for Inactive)
REMARK    1  A    between atoms: C_1  and  C_2
REMARK    2  A    between atoms: C_6  and  C_8
REMARK    3  A    between atoms: C_8  and  N_9
REMARK    4  A    between atoms: C_15  and  C_16
REMARK    5  A    between atoms: C_16  and  C_17
REMARK    6  A    between atoms: C_17  and  O_18
REMARK    7  A    between atoms: C_17  and  C_19
REMARK                            x       y       z     vdW  Elec       q    Type
REMARK                         _______ _______ _______ _____ _____    ______ ____
ROOT
ATOM      1  N   UNL     1       3.197   5.037  18.592  0.00  0.00    +0.000 NA
ATOM      2  C   UNL     1       1.785   4.728  18.307  0.00  0.00    +0.000 C 
ATOM      3  C   UNL     1       1.165   3.972  19.487  0.00  0.00    +0.000 C 
ATOM      4  C   UNL     1       1.530   2.497  19.562  0.00  0.00    +0.000 C 
ATOM      5  C   UNL     1       3.028   2.225  19.595  0.00  0.00    +0.000 C 
ATOM      6  C   UNL     1       3.716   2.552  18.274  0.00  0.00    +0.000 C 
ATOM      7  C   UNL     1       4.162   4.022  18.059  0.00  0.00    +0.000 C 
ENDROOT
BRANCH   1   8
ATOM      8  C   UNL     1       3.549   6.418  18.158  0.00  0.00    +0.000 C 
BRANCH   8  14
ATOM      9  C   UNL     1      -0.603   9.978  23.154  0.00  0.00    +0.000 C 
ATOM     10  C   UNL     1       0.131   9.403  22.015  0.00  0.00    +0.000 A 
ATOM     11  C   UNL     1       1.143   8.486  21.875  0.00  0.00    +0.000 A 
ATOM     12  C   UNL     1       1.377   8.418  20.480  0.00  0.00    +0.000 A 
ATOM     13  N   UNL     1       2.323   7.605  19.894  0.00  0.00    +0.000 N 
ATOM     14  C   UNL     1       2.501   7.473  18.533  0.00  0.00    +0.000 C 
ATOM     15  O   UNL     1       1.949   8.126  17.652  0.00  0.00    +0.000 OA
ATOM     16  N   UNL     1       0.543   9.236  19.830  0.00  0.00    +0.000 NA
ATOM     17  O   UNL     1      -0.232   9.851  20.787  0.00  0.00    +0.000 OA
ATOM     18  H   UNL     1       2.868   6.987  20.482  0.00  0.00    +0.000 HD
ENDBRANCH   8  14
ENDBRANCH   1   8
BRANCH   7  19
ATOM     19  C   UNL     1       4.584   4.243  16.566  0.00  0.00    +0.000 C 
BRANCH  19  20
ATOM     20  C   UNL     1       6.009   4.789  16.350  0.00  0.00    +0.000 C 
BRANCH  20  21
ATOM     21  C   UNL     1       6.463   4.608  14.938  0.00  0.00    +0.000 A 
ATOM     22  C   UNL     1       5.971   3.908  13.856  0.00  0.00    +0.000 A 
ATOM     23  C   UNL     1       6.823   4.209  12.764  0.00  0.00    +0.000 A 
ATOM     24  C   UNL     1       7.782   5.067  13.250  0.00  0.00    +0.000 A 
ATOM     25  O   UNL     1       7.575   5.315  14.567  0.00  0.00    +0.000 OA
ENDBRANCH  20  21
BRANCH  20  26
ATOM     26  O   UNL     1       6.967   4.101  17.144  0.00  0.00    +0.000 OA
ATOM     27  H   UNL     1       6.463   3.652  17.847  0.00  0.00    +0.000 HD
ENDBRANCH  20  26
ENDBRANCH  19  20
ENDBRANCH   7  19
TORSDOF 6
ENDMDL
