MODEL 1
REMARK VINA RESULT:      -5.5      0.000      0.000
REMARK  Name = 
REMARK  32 active torsions:
REMARK  status: ('A' for Active; 'I' for Inactive)
REMARK    1  A    between atoms: C_1  and  C_2
REMARK    2  A    between atoms: C_2  and  C_3
REMARK    3  A    between atoms: C_3  and  C_4
REMARK    4  A    between atoms: C_4  and  C_5
REMARK    5  A    between atoms: C_5  and  C_6
REMARK    6  A    between atoms: C_6  and  C_7
REMARK    7  A    between atoms: C_7  and  C_8
REMARK    8  A    between atoms: C_8  and  C_9
REMARK    9  A    between atoms: C_9  and  C_10
REMARK   10  A    between atoms: C_10  and  C_11
REMARK   11  A    between atoms: C_11  and  C_12
REMARK   12  A    between atoms: C_12  and  N_13
REMARK   13  A    between atoms: N_13  and  C_14
REMARK   14  A    between atoms: N_13  and  C_15
REMARK   15  A    between atoms: N_13  and  C_16
REMARK   16  A    between atoms: C_16  and  C_17
REMARK   17  A    between atoms: C_17  and  C_18
REMARK   18  A    between atoms: C_18  and  N_19
REMARK   19  A    between atoms: N_19  and  C_20
REMARK   20  A    between atoms: N_19  and  C_21
REMARK   21  A    between atoms: N_19  and  C_22
REMARK   22  A    between atoms: C_22  and  C_23
REMARK   23  A    between atoms: C_23  and  C_24
REMARK   24  A    between atoms: C_24  and  C_25
REMARK   25  A    between atoms: C_25  and  C_26
REMARK   26  A    between atoms: C_26  and  C_27
REMARK   27  A    between atoms: C_27  and  C_28
REMARK   28  A    between atoms: C_28  and  C_29
REMARK   29  A    between atoms: C_29  and  C_30
REMARK   30  A    between atoms: C_30  and  C_31
REMARK   31  A    between atoms: C_31  and  C_32
REMARK   32  A    between atoms: C_32  and  C_33
REMARK                            x       y       z     vdW  Elec       q    Type
REMARK                         _______ _______ _______ _____ _____    ______ ____
ROOT
ATOM      1  C   UNL     1       5.138   4.487  18.755  0.00  0.00    +0.000 C 
ENDROOT
BRANCH   1   2
ATOM      2  C   UNL     1       4.068   3.766  17.972  0.00  0.00    +0.000 C 
BRANCH   2   3
ATOM      3  N   UNL     1       3.509   2.600  18.828  0.00  0.00    +0.000 N 
ATOM      4  C   UNL     1       3.548   1.280  18.047  0.00  0.00    +0.000 C 
ATOM      5  C   UNL     1       4.309   2.454  20.128  0.00  0.00    +0.000 C 
BRANCH   3   6
ATOM      6  C   UNL     1       2.058   2.990  19.132  0.00  0.00    +0.000 C 
BRANCH   6   7
ATOM      7  C   UNL     1       1.749   2.885  20.610  0.00  0.00    +0.000 C 
BRANCH   7   8
ATOM      8  C   UNL     1       1.940   4.212  21.298  0.00  0.00    +0.000 C 
BRANCH   8   9
ATOM      9  C   UNL     1       1.474   5.286  20.331  0.00  0.00    +0.000 C 
BRANCH   9  10
ATOM     10  C   UNL     1       2.530   6.357  20.211  0.00  0.00    +0.000 C 
BRANCH  10  11
ATOM     11  C   UNL     1       1.879   7.654  19.777  0.00  0.00    +0.000 C 
BRANCH  11  12
ATOM     12  C   UNL     1       2.317   7.981  18.363  0.00  0.00    +0.000 C 
BRANCH  12  13
ATOM     13  C   UNL     1       1.416   9.047  17.772  0.00  0.00    +0.000 C 
BRANCH  13  14
ATOM     14  C   UNL     1       1.859  10.419  18.254  0.00  0.00    +0.000 C 
BRANCH  14  15
ATOM     15  C   UNL     1       0.670  11.195  18.797  0.00  0.00    +0.000 C 
BRANCH  15  16
ATOM     16  C   UNL     1      -0.510  10.265  19.046  0.00  0.00    +0.000 C 
ATOM     17  C   UNL     1      -1.725  10.716  18.257  0.00  0.00    +0.000 C 
ENDBRANCH  15  16
ENDBRANCH  14  15
ENDBRANCH  13  14
ENDBRANCH  12  13
ENDBRANCH  11  12
ENDBRANCH  10  11
ENDBRANCH   9  10
ENDBRANCH   8   9
ENDBRANCH   7   8
ENDBRANCH   6   7
ENDBRANCH   3   6
ENDBRANCH   2   3
ENDBRANCH   1   2
BRANCH   1  18
ATOM     18  C   UNL     1       5.580   5.809  18.186  0.00  0.00    +0.000 C 
BRANCH  18  19
ATOM     19  N   UNL     1       7.075   5.723  17.790  0.00  0.00    +0.000 N 
ATOM     20  C   UNL     1       7.310   4.664  16.702  0.00  0.00    +0.000 C 
ATOM     21  C   UNL     1       7.951   5.408  19.015  0.00  0.00    +0.000 C 
BRANCH  19  22
ATOM     22  C   UNL     1       7.432   7.122  17.235  0.00  0.00    +0.000 C 
BRANCH  22  23
ATOM     23  C   UNL     1       8.224   7.935  18.237  0.00  0.00    +0.000 C 
BRANCH  23  24
ATOM     24  C   UNL     1       8.131   9.411  17.928  0.00  0.00    +0.000 C 
BRANCH  24  25
ATOM     25  C   UNL     1       9.105  10.125  18.845  0.00  0.00    +0.000 C 
BRANCH  25  26
ATOM     26  C   UNL     1       9.772  11.249  18.103  0.00  0.00    +0.000 C 
BRANCH  26  27
ATOM     27  C   UNL     1      10.885  11.826  18.954  0.00  0.00    +0.000 C 
BRANCH  27  28
ATOM     28  C   UNL     1      10.492  13.205  19.429  0.00  0.00    +0.000 C 
BRANCH  28  29
ATOM     29  C   UNL     1      10.458  13.252  20.945  0.00  0.00    +0.000 C 
BRANCH  29  30
ATOM     30  C   UNL     1       9.119  12.739  21.446  0.00  0.00    +0.000 C 
BRANCH  30  31
ATOM     31  C   UNL     1       8.457  13.779  22.337  0.00  0.00    +0.000 C 
BRANCH  31  33
ATOM     32  C   UNL     1       6.112  14.504  22.815  0.00  0.00    +0.000 C 
ATOM     33  C   UNL     1       7.066  13.325  22.753  0.00  0.00    +0.000 C 
ENDBRANCH  31  33
ENDBRANCH  30  31
ENDBRANCH  29  30
ENDBRANCH  28  29
ENDBRANCH  27  28
ENDBRANCH  26  27
ENDBRANCH  25  26
ENDBRANCH  24  25
ENDBRANCH  23  24
ENDBRANCH  22  23
ENDBRANCH  19  22
ENDBRANCH  18  19
ENDBRANCH   1  18
TORSDOF 26
ENDMDL
MODEL 2
REMARK VINA RESULT:      -5.4      1.483      8.737
REMARK  Name = 
REMARK  32 active torsions:
REMARK  status: ('A' for Active; 'I' for Inactive)
REMARK    1  A    between atoms: C_1  and  C_2
REMARK    2  A    between atoms: C_2  and  C_3
REMARK    3  A    between atoms: C_3  and  C_4
REMARK    4  A    between atoms: C_4  and  C_5
REMARK    5  A    between atoms: C_5  and  C_6
REMARK    6  A    between atoms: C_6  and  C_7
REMARK    7  A    between atoms: C_7  and  C_8
REMARK    8  A    between atoms: C_8  and  C_9
REMARK    9  A    between atoms: C_9  and  C_10
REMARK   10  A    between atoms: C_10  and  C_11
REMARK   11  A    between atoms: C_11  and  C_12
REMARK   12  A    between atoms: C_12  and  N_13
REMARK   13  A    between atoms: N_13  and  C_14
REMARK   14  A    between atoms: N_13  and  C_15
REMARK   15  A    between atoms: N_13  and  C_16
REMARK   16  A    between atoms: C_16  and  C_17
REMARK   17  A    between atoms: C_17  and  C_18
REMARK   18  A    between atoms: C_18  and  N_19
REMARK   19  A    between atoms: N_19  and  C_20
REMARK   20  A    between atoms: N_19  and  C_21
REMARK   21  A    between atoms: N_19  and  C_22
REMARK   22  A    between atoms: C_22  and  C_23
REMARK   23  A    between atoms: C_23  and  C_24
REMARK   24  A    between atoms: C_24  and  C_25
REMARK   25  A    between atoms: C_25  and  C_26
REMARK   26  A    between atoms: C_26  and  C_27
REMARK   27  A    between atoms: C_27  and  C_28
REMARK   28  A    between atoms: C_28  and  C_29
REMARK   29  A    between atoms: C_29  and  C_30
REMARK   30  A    between atoms: C_30  and  C_31
REMARK   31  A    between atoms: C_31  and  C_32
REMARK   32  A    between atoms: C_32  and  C_33
REMARK                            x       y       z     vdW  Elec       q    Type
REMARK                         _______ _______ _______ _____ _____    ______ ____
ROOT
ATOM      1  C   UNL     1       4.437   5.191  19.095  0.00  0.00    +0.000 C 
ENDROOT
BRANCH   1   2
ATOM      2  C   UNL     1       5.913   5.293  18.805  0.00  0.00    +0.000 C 
BRANCH   2   3
ATOM      3  N   UNL     1       6.123   5.446  17.276  0.00  0.00    +0.000 N 
ATOM      4  C   UNL     1       7.288   4.570  16.793  0.00  0.00    +0.000 C 
ATOM      5  C   UNL     1       4.844   5.068  16.517  0.00  0.00    +0.000 C 
BRANCH   3   6
ATOM      6  C   UNL     1       6.455   6.927  17.066  0.00  0.00    +0.000 C 
BRANCH   6   7
ATOM      7  C   UNL     1       7.625   7.365  17.920  0.00  0.00    +0.000 C 
BRANCH   7   8
ATOM      8  C   UNL     1       7.957   8.815  17.679  0.00  0.00    +0.000 C 
BRANCH   8   9
ATOM      9  C   UNL     1       8.901   9.246  18.787  0.00  0.00    +0.000 C 
BRANCH   9  10
ATOM     10  C   UNL     1       9.288  10.692  18.594  0.00  0.00    +0.000 C 
BRANCH  10  11
ATOM     11  C   UNL     1       9.955  11.203  19.855  0.00  0.00    +0.000 C 
BRANCH  11  12
ATOM     12  C   UNL     1       9.612  12.669  20.037  0.00  0.00    +0.000 C 
BRANCH  12  13
ATOM     13  C   UNL     1       9.852  13.084  21.475  0.00  0.00    +0.000 C 
BRANCH  13  14
ATOM     14  C   UNL     1       8.753  14.033  21.926  0.00  0.00    +0.000 C 
BRANCH  14  15
ATOM     15  C   UNL     1       8.632  14.015  23.442  0.00  0.00    +0.000 C 
BRANCH  15  16
ATOM     16  C   UNL     1       8.338  12.607  23.940  0.00  0.00    +0.000 C 
ATOM     17  C   UNL     1       8.240  12.582  25.454  0.00  0.00    +0.000 C 
ENDBRANCH  15  16
ENDBRANCH  14  15
ENDBRANCH  13  14
ENDBRANCH  12  13
ENDBRANCH  11  12
ENDBRANCH  10  11
ENDBRANCH   9  10
ENDBRANCH   8   9
ENDBRANCH   7   8
ENDBRANCH   6   7
ENDBRANCH   3   6
ENDBRANCH   2   3
ENDBRANCH   1   2
BRANCH   1  18
ATOM     18  C   UNL     1       3.979   3.882  19.684  0.00  0.00    +0.000 C 
BRANCH  18  19
ATOM     19  N   UNL     1       2.463   3.961  19.994  0.00  0.00    +0.000 N 
ATOM     20  C   UNL     1       1.953   2.666  20.644  0.00  0.00    +0.000 C 
ATOM     21  C   UNL     1       1.656   4.252  18.718  0.00  0.00    +0.000 C 
BRANCH  19  22
ATOM     22  C   UNL     1       2.311   5.135  20.991  0.00  0.00    +0.000 C 
BRANCH  22  23
ATOM     23  C   UNL     1       1.274   6.134  20.523  0.00  0.00    +0.000 C 
BRANCH  23  24
ATOM     24  C   UNL     1       1.883   7.507  20.363  0.00  0.00    +0.000 C 
BRANCH  24  25
ATOM     25  C   UNL     1       1.369   8.363  21.503  0.00  0.00    +0.000 C 
BRANCH  25  26
ATOM     26  C   UNL     1       0.025   8.933  21.146  0.00  0.00    +0.000 C 
BRANCH  26  27
ATOM     27  C   UNL     1       0.113   9.632  19.803  0.00  0.00    +0.000 C 
BRANCH  27  28
ATOM     28  C   UNL     1      -0.403  11.045  19.938  0.00  0.00    +0.000 C 
BRANCH  28  29
ATOM     29  C   UNL     1      -1.233  11.422  18.724  0.00  0.00    +0.000 C 
BRANCH  29  30
ATOM     30  C   UNL     1      -1.523  10.183  17.896  0.00  0.00    +0.000 C 
BRANCH  30  31
ATOM     31  C   UNL     1      -2.749  10.408  17.024  0.00  0.00    +0.000 C 
BRANCH  31  33
ATOM     32  C   UNL     1      -5.030  10.866  17.942  0.00  0.00    +0.000 C 
ATOM     33  C   UNL     1      -3.664  11.456  17.641  0.00  0.00    +0.000 C 
ENDBRANCH  31  33
ENDBRANCH  30  31
ENDBRANCH  29  30
ENDBRANCH  28  29
ENDBRANCH  27  28
ENDBRANCH  26  27
ENDBRANCH  25  26
ENDBRANCH  24  25
ENDBRANCH  23  24
ENDBRANCH  22  23
ENDBRANCH  19  22
ENDBRANCH  18  19
ENDBRANCH   1  18
TORSDOF 26
ENDMDL
MODEL 3
REMARK VINA RESULT:      -5.3      2.013      7.748
REMARK  Name = 
REMARK  32 active torsions:
REMARK  status: ('A' for Active; 'I' for Inactive)
REMARK    1  A    between atoms: C_1  and  C_2
REMARK    2  A    between atoms: C_2  and  C_3
REMARK    3  A    between atoms: C_3  and  C_4
REMARK    4  A    between atoms: C_4  and  C_5
REMARK    5  A    between atoms: C_5  and  C_6
REMARK    6  A    between atoms: C_6  and  C_7
REMARK    7  A    between atoms: C_7  and  C_8
REMARK    8  A    between atoms: C_8  and  C_9
REMARK    9  A    between atoms: C_9  and  C_10
REMARK   10  A    between atoms: C_10  and  C_11
REMARK   11  A    between atoms: C_11  and  C_12
REMARK   12  A    between atoms: C_12  and  N_13
REMARK   13  A    between atoms: N_13  and  C_14
REMARK   14  A    between atoms: N_13  and  C_15
REMARK   15  A    between atoms: N_13  and  C_16
REMARK   16  A    between atoms: C_16  and  C_17
REMARK   17  A    between atoms: C_17  and  C_18
REMARK   18  A    between atoms: C_18  and  N_19
REMARK   19  A    between atoms: N_19  and  C_20
REMARK   20  A    between atoms: N_19  and  C_21
REMARK   21  A    between atoms: N_19  and  C_22
REMARK   22  A    between atoms: C_22  and  C_23
REMARK   23  A    between atoms: C_23  and  C_24
REMARK   24  A    between atoms: C_24  and  C_25
REMARK   25  A    between atoms: C_25  and  C_26
REMARK   26  A    between atoms: C_26  and  C_27
REMARK   27  A    between atoms: C_27  and  C_28
REMARK   28  A    between atoms: C_28  and  C_29
REMARK   29  A    between atoms: C_29  and  C_30
REMARK   30  A    between atoms: C_30  and  C_31
REMARK   31  A    between atoms: C_31  and  C_32
REMARK   32  A    between atoms: C_32  and  C_33
REMARK                            x       y       z     vdW  Elec       q    Type
REMARK                         _______ _______ _______ _____ _____    ______ ____
ROOT
ATOM      1  C   UNL     1       4.598   4.441  19.096  0.00  0.00    +0.000 C 
ENDROOT
BRANCH   1   2
ATOM      2  C   UNL     1       5.344   3.806  17.949  0.00  0.00    +0.000 C 
BRANCH   2   3
ATOM      3  N   UNL     1       6.024   4.916  17.107  0.00  0.00    +0.000 N 
ATOM      4  C   UNL     1       7.207   4.350  16.309  0.00  0.00    +0.000 C 
ATOM      5  C   UNL     1       5.015   5.559  16.147  0.00  0.00    +0.000 C 
BRANCH   3   6
ATOM      6  C   UNL     1       6.522   5.944  18.130  0.00  0.00    +0.000 C 
BRANCH   6   7
ATOM      7  C   UNL     1       6.451   7.354  17.584  0.00  0.00    +0.000 C 
BRANCH   7   8
ATOM      8  C   UNL     1       7.821   7.859  17.213  0.00  0.00    +0.000 C 
BRANCH   8   9
ATOM      9  C   UNL     1       8.455   8.400  18.482  0.00  0.00    +0.000 C 
BRANCH   9  10
ATOM     10  C   UNL     1       8.620   9.896  18.372  0.00  0.00    +0.000 C 
BRANCH  10  11
ATOM     11  C   UNL     1       9.410  10.400  19.562  0.00  0.00    +0.000 C 
BRANCH  11  12
ATOM     12  C   UNL     1      10.579  11.230  19.066  0.00  0.00    +0.000 C 
BRANCH  12  13
ATOM     13  C   UNL     1      10.165  12.035  17.850  0.00  0.00    +0.000 C 
BRANCH  13  14
ATOM     14  C   UNL     1      10.530  13.497  18.054  0.00  0.00    +0.000 C 
BRANCH  14  15
ATOM     15  C   UNL     1       9.285  14.366  17.971  0.00  0.00    +0.000 C 
BRANCH  15  16
ATOM     16  C   UNL     1       8.037  13.505  17.829  0.00  0.00    +0.000 C 
ATOM     17  C   UNL     1       6.798  14.372  17.707  0.00  0.00    +0.000 C 
ENDBRANCH  15  16
ENDBRANCH  14  15
ENDBRANCH  13  14
ENDBRANCH  12  13
ENDBRANCH  11  12
ENDBRANCH  10  11
ENDBRANCH   9  10
ENDBRANCH   8   9
ENDBRANCH   7   8
ENDBRANCH   6   7
ENDBRANCH   3   6
ENDBRANCH   2   3
ENDBRANCH   1   2
BRANCH   1  18
ATOM     18  C   UNL     1       3.621   3.545  19.812  0.00  0.00    +0.000 C 
BRANCH  18  19
ATOM     19  N   UNL     1       2.176   3.975  19.457  0.00  0.00    +0.000 N 
ATOM     20  C   UNL     1       1.452   4.575  20.674  0.00  0.00    +0.000 C 
ATOM     21  C   UNL     1       1.368   2.786  18.910  0.00  0.00    +0.000 C 
BRANCH  19  22
ATOM     22  C   UNL     1       2.328   5.057  18.362  0.00  0.00    +0.000 C 
BRANCH  22  23
ATOM     23  C   UNL     1       1.766   6.388  18.811  0.00  0.00    +0.000 C 
BRANCH  23  24
ATOM     24  C   UNL     1       2.729   7.512  18.504  0.00  0.00    +0.000 C 
BRANCH  24  25
ATOM     25  C   UNL     1       2.027   8.457  17.548  0.00  0.00    +0.000 C 
BRANCH  25  26
ATOM     26  C   UNL     1       1.865   9.804  18.193  0.00  0.00    +0.000 C 
BRANCH  26  27
ATOM     27  C   UNL     1       0.413  10.007  18.580  0.00  0.00    +0.000 C 
BRANCH  27  28
ATOM     28  C   UNL     1       0.251   9.775  20.064  0.00  0.00    +0.000 C 
BRANCH  28  29
ATOM     29  C   UNL     1      -0.095  11.076  20.766  0.00  0.00    +0.000 C 
BRANCH  29  30
ATOM     30  C   UNL     1      -1.236  11.765  20.038  0.00  0.00    +0.000 C 
BRANCH  30  31
ATOM     31  C   UNL     1      -1.733  12.955  20.844  0.00  0.00    +0.000 C 
BRANCH  31  33
ATOM     32  C   UNL     1      -1.611  13.332  23.313  0.00  0.00    +0.000 C 
ATOM     33  C   UNL     1      -2.244  12.509  22.206  0.00  0.00    +0.000 C 
ENDBRANCH  31  33
ENDBRANCH  30  31
ENDBRANCH  29  30
ENDBRANCH  28  29
ENDBRANCH  27  28
ENDBRANCH  26  27
ENDBRANCH  25  26
ENDBRANCH  24  25
ENDBRANCH  23  24
ENDBRANCH  22  23
ENDBRANCH  19  22
ENDBRANCH  18  19
ENDBRANCH   1  18
TORSDOF 26
ENDMDL
MODEL 4
REMARK VINA RESULT:      -5.3      1.470      8.406
REMARK  Name = 
REMARK  32 active torsions:
REMARK  status: ('A' for Active; 'I' for Inactive)
REMARK    1  A    between atoms: C_1  and  C_2
REMARK    2  A    between atoms: C_2  and  C_3
REMARK    3  A    between atoms: C_3  and  C_4
REMARK    4  A    between atoms: C_4  and  C_5
REMARK    5  A    between atoms: C_5  and  C_6
REMARK    6  A    between atoms: C_6  and  C_7
REMARK    7  A    between atoms: C_7  and  C_8
REMARK    8  A    between atoms: C_8  and  C_9
REMARK    9  A    between atoms: C_9  and  C_10
REMARK   10  A    between atoms: C_10  and  C_11
REMARK   11  A    between atoms: C_11  and  C_12
REMARK   12  A    between atoms: C_12  and  N_13
REMARK   13  A    between atoms: N_13  and  C_14
REMARK   14  A    between atoms: N_13  and  C_15
REMARK   15  A    between atoms: N_13  and  C_16
REMARK   16  A    between atoms: C_16  and  C_17
REMARK   17  A    between atoms: C_17  and  C_18
REMARK   18  A    between atoms: C_18  and  N_19
REMARK   19  A    between atoms: N_19  and  C_20
REMARK   20  A    between atoms: N_19  and  C_21
REMARK   21  A    between atoms: N_19  and  C_22
REMARK   22  A    between atoms: C_22  and  C_23
REMARK   23  A    between atoms: C_23  and  C_24
REMARK   24  A    between atoms: C_24  and  C_25
REMARK   25  A    between atoms: C_25  and  C_26
REMARK   26  A    between atoms: C_26  and  C_27
REMARK   27  A    between atoms: C_27  and  C_28
REMARK   28  A    between atoms: C_28  and  C_29
REMARK   29  A    between atoms: C_29  and  C_30
REMARK   30  A    between atoms: C_30  and  C_31
REMARK   31  A    between atoms: C_31  and  C_32
REMARK   32  A    between atoms: C_32  and  C_33
REMARK                            x       y       z     vdW  Elec       q    Type
REMARK                         _______ _______ _______ _____ _____    ______ ____
ROOT
ATOM      1  C   UNL     1       4.251   3.946  17.408  0.00  0.00    +0.000 C 
ENDROOT
BRANCH   1   2
ATOM      2  C   UNL     1       5.191   4.861  18.153  0.00  0.00    +0.000 C 
BRANCH   2   3
ATOM      3  N   UNL     1       6.093   5.605  17.135  0.00  0.00    +0.000 N 
ATOM      4  C   UNL     1       6.724   4.620  16.141  0.00  0.00    +0.000 C 
ATOM      5  C   UNL     1       5.284   6.661  16.371  0.00  0.00    +0.000 C 
BRANCH   3   6
ATOM      6  C   UNL     1       7.183   6.271  17.981  0.00  0.00    +0.000 C 
BRANCH   6   7
ATOM      7  C   UNL     1       7.455   7.689  17.525  0.00  0.00    +0.000 C 
BRANCH   7   8
ATOM      8  C   UNL     1       8.575   8.307  18.321  0.00  0.00    +0.000 C 
BRANCH   8   9
ATOM      9  C   UNL     1       8.364   9.810  18.296  0.00  0.00    +0.000 C 
BRANCH   9  10
ATOM     10  C   UNL     1       9.593  10.507  18.827  0.00  0.00    +0.000 C 
BRANCH  10  11
ATOM     11  C   UNL     1       9.280  11.108  20.182  0.00  0.00    +0.000 C 
BRANCH  11  12
ATOM     12  C   UNL     1      10.510  11.827  20.701  0.00  0.00    +0.000 C 
BRANCH  12  13
ATOM     13  C   UNL     1      10.508  13.268  20.230  0.00  0.00    +0.000 C 
BRANCH  13  14
ATOM     14  C   UNL     1       9.427  14.047  20.963  0.00  0.00    +0.000 C 
BRANCH  14  15
ATOM     15  C   UNL     1       8.355  14.504  19.987  0.00  0.00    +0.000 C 
BRANCH  15  16
ATOM     16  C   UNL     1       8.093  15.996  20.139  0.00  0.00    +0.000 C 
ATOM     17  C   UNL     1       9.221  16.805  19.525  0.00  0.00    +0.000 C 
ENDBRANCH  15  16
ENDBRANCH  14  15
ENDBRANCH  13  14
ENDBRANCH  12  13
ENDBRANCH  11  12
ENDBRANCH  10  11
ENDBRANCH   9  10
ENDBRANCH   8   9
ENDBRANCH   7   8
ENDBRANCH   6   7
ENDBRANCH   3   6
ENDBRANCH   2   3
ENDBRANCH   1   2
BRANCH   1  18
ATOM     18  C   UNL     1       2.797   4.066  17.780  0.00  0.00    +0.000 C 
BRANCH  18  19
ATOM     19  N   UNL     1       2.436   2.960  18.804  0.00  0.00    +0.000 N 
ATOM     20  C   UNL     1       3.415   1.778  18.723  0.00  0.00    +0.000 C 
ATOM     21  C   UNL     1       0.999   2.457  18.587  0.00  0.00    +0.000 C 
BRANCH  19  22
ATOM     22  C   UNL     1       2.554   3.635  20.191  0.00  0.00    +0.000 C 
BRANCH  22  23
ATOM     23  C   UNL     1       1.545   4.752  20.355  0.00  0.00    +0.000 C 
BRANCH  23  24
ATOM     24  C   UNL     1       2.207   6.002  20.885  0.00  0.00    +0.000 C 
BRANCH  24  25
ATOM     25  C   UNL     1       2.009   7.091  19.848  0.00  0.00    +0.000 C 
BRANCH  25  26
ATOM     26  C   UNL     1       1.489   8.335  20.510  0.00  0.00    +0.000 C 
BRANCH  26  27
ATOM     27  C   UNL     1       1.048   9.325  19.448  0.00  0.00    +0.000 C 
BRANCH  27  28
ATOM     28  C   UNL     1       0.912  10.697  20.066  0.00  0.00    +0.000 C 
BRANCH  28  29
ATOM     29  C   UNL     1       0.006  11.570  19.217  0.00  0.00    +0.000 C 
BRANCH  29  30
ATOM     30  C   UNL     1      -1.438  11.385  19.649  0.00  0.00    +0.000 C 
BRANCH  30  31
ATOM     31  C   UNL     1      -2.348  11.324  18.432  0.00  0.00    +0.000 C 
BRANCH  31  33
ATOM     32  C   UNL     1      -2.315   9.884  16.388  0.00  0.00    +0.000 C 
ATOM     33  C   UNL     1      -2.443   9.902  17.901  0.00  0.00    +0.000 C 
ENDBRANCH  31  33
ENDBRANCH  30  31
ENDBRANCH  29  30
ENDBRANCH  28  29
ENDBRANCH  27  28
ENDBRANCH  26  27
ENDBRANCH  25  26
ENDBRANCH  24  25
ENDBRANCH  23  24
ENDBRANCH  22  23
ENDBRANCH  19  22
ENDBRANCH  18  19
ENDBRANCH   1  18
TORSDOF 26
ENDMDL
MODEL 5
REMARK VINA RESULT:      -5.3      1.261      7.887
REMARK  Name = 
REMARK  32 active torsions:
REMARK  status: ('A' for Active; 'I' for Inactive)
REMARK    1  A    between atoms: C_1  and  C_2
REMARK    2  A    between atoms: C_2  and  C_3
REMARK    3  A    between atoms: C_3  and  C_4
REMARK    4  A    between atoms: C_4  and  C_5
REMARK    5  A    between atoms: C_5  and  C_6
REMARK    6  A    between atoms: C_6  and  C_7
REMARK    7  A    between atoms: C_7  and  C_8
REMARK    8  A    between atoms: C_8  and  C_9
REMARK    9  A    between atoms: C_9  and  C_10
REMARK   10  A    between atoms: C_10  and  C_11
REMARK   11  A    between atoms: C_11  and  C_12
REMARK   12  A    between atoms: C_12  and  N_13
REMARK   13  A    between atoms: N_13  and  C_14
REMARK   14  A    between atoms: N_13  and  C_15
REMARK   15  A    between atoms: N_13  and  C_16
REMARK   16  A    between atoms: C_16  and  C_17
REMARK   17  A    between atoms: C_17  and  C_18
REMARK   18  A    between atoms: C_18  and  N_19
REMARK   19  A    between atoms: N_19  and  C_20
REMARK   20  A    between atoms: N_19  and  C_21
REMARK   21  A    between atoms: N_19  and  C_22
REMARK   22  A    between atoms: C_22  and  C_23
REMARK   23  A    between atoms: C_23  and  C_24
REMARK   24  A    between atoms: C_24  and  C_25
REMARK   25  A    between atoms: C_25  and  C_26
REMARK   26  A    between atoms: C_26  and  C_27
REMARK   27  A    between atoms: C_27  and  C_28
REMARK   28  A    between atoms: C_28  and  C_29
REMARK   29  A    between atoms: C_29  and  C_30
REMARK   30  A    between atoms: C_30  and  C_31
REMARK   31  A    between atoms: C_31  and  C_32
REMARK   32  A    between atoms: C_32  and  C_33
REMARK                            x       y       z     vdW  Elec       q    Type
REMARK                         _______ _______ _______ _____ _____    ______ ____
ROOT
ATOM      1  C   UNL     1       5.456   3.934  18.660  0.00  0.00    +0.000 C 
ENDROOT
BRANCH   1   2
ATOM      2  C   UNL     1       5.796   5.390  18.854  0.00  0.00    +0.000 C 
BRANCH   2   3
ATOM      3  N   UNL     1       6.630   5.884  17.644  0.00  0.00    +0.000 N 
ATOM      4  C   UNL     1       7.333   4.711  16.947  0.00  0.00    +0.000 C 
ATOM      5  C   UNL     1       5.735   6.620  16.638  0.00  0.00    +0.000 C 
BRANCH   3   6
ATOM      6  C   UNL     1       7.667   6.842  18.240  0.00  0.00    +0.000 C 
BRANCH   6   7
ATOM      7  C   UNL     1       8.019   7.955  17.276  0.00  0.00    +0.000 C 
BRANCH   7   8
ATOM      8  C   UNL     1       7.762   9.306  17.893  0.00  0.00    +0.000 C 
BRANCH   8   9
ATOM      9  C   UNL     1       8.935   9.608  18.807  0.00  0.00    +0.000 C 
BRANCH   9  10
ATOM     10  C   UNL     1       9.377  11.039  18.614  0.00  0.00    +0.000 C 
BRANCH  10  11
ATOM     11  C   UNL     1      10.317  11.427  19.736  0.00  0.00    +0.000 C 
BRANCH  11  12
ATOM     12  C   UNL     1       9.502  11.811  20.955  0.00  0.00    +0.000 C 
BRANCH  12  13
ATOM     13  C   UNL     1       9.927  13.178  21.455  0.00  0.00    +0.000 C 
BRANCH  13  14
ATOM     14  C   UNL     1       9.579  14.235  20.419  0.00  0.00    +0.000 C 
BRANCH  14  15
ATOM     15  C   UNL     1       8.269  14.916  20.782  0.00  0.00    +0.000 C 
BRANCH  15  16
ATOM     16  C   UNL     1       7.268  14.798  19.640  0.00  0.00    +0.000 C 
ATOM     17  C   UNL     1       7.936  14.241  18.396  0.00  0.00    +0.000 C 
ENDBRANCH  15  16
ENDBRANCH  14  15
ENDBRANCH  13  14
ENDBRANCH  12  13
ENDBRANCH  11  12
ENDBRANCH  10  11
ENDBRANCH   9  10
ENDBRANCH   8   9
ENDBRANCH   7   8
ENDBRANCH   6   7
ENDBRANCH   3   6
ENDBRANCH   2   3
ENDBRANCH   1   2
BRANCH   1  18
ATOM     18  C   UNL     1       4.011   3.638  18.352  0.00  0.00    +0.000 C 
BRANCH  18  19
ATOM     19  N   UNL     1       3.572   2.368  19.122  0.00  0.00    +0.000 N 
ATOM     20  C   UNL     1       4.222   2.300  20.513  0.00  0.00    +0.000 C 
ATOM     21  C   UNL     1       3.916   1.097  18.328  0.00  0.00    +0.000 C 
BRANCH  19  22
ATOM     22  C   UNL     1       2.037   2.493  19.275  0.00  0.00    +0.000 C 
BRANCH  22  23
ATOM     23  C   UNL     1       1.582   3.933  19.166  0.00  0.00    +0.000 C 
BRANCH  23  24
ATOM     24  C   UNL     1       1.577   4.602  20.521  0.00  0.00    +0.000 C 
BRANCH  24  25
ATOM     25  C   UNL     1       1.916   6.063  20.304  0.00  0.00    +0.000 C 
BRANCH  25  26
ATOM     26  C   UNL     1       2.176   6.314  18.845  0.00  0.00    +0.000 C 
BRANCH  26  27
ATOM     27  C   UNL     1       2.728   7.714  18.664  0.00  0.00    +0.000 C 
BRANCH  27  28
ATOM     28  C   UNL     1       1.675   8.724  19.056  0.00  0.00    +0.000 C 
BRANCH  28  29
ATOM     29  C   UNL     1       1.645   9.869  18.059  0.00  0.00    +0.000 C 
BRANCH  29  30
ATOM     30  C   UNL     1       0.725  10.966  18.565  0.00  0.00    +0.000 C 
BRANCH  30  31
ATOM     31  C   UNL     1      -0.483  10.360  19.263  0.00  0.00    +0.000 C 
BRANCH  31  33
ATOM     32  C   UNL     1       0.312  11.152  21.498  0.00  0.00    +0.000 C 
ATOM     33  C   UNL     1      -0.840  11.157  20.510  0.00  0.00    +0.000 C 
ENDBRANCH  31  33
ENDBRANCH  30  31
ENDBRANCH  29  30
ENDBRANCH  28  29
ENDBRANCH  27  28
ENDBRANCH  26  27
ENDBRANCH  25  26
ENDBRANCH  24  25
ENDBRANCH  23  24
ENDBRANCH  22  23
ENDBRANCH  19  22
ENDBRANCH  18  19
ENDBRANCH   1  18
TORSDOF 26
ENDMDL
MODEL 6
REMARK VINA RESULT:      -5.3      1.848      2.903
REMARK  Name = 
REMARK  32 active torsions:
REMARK  status: ('A' for Active; 'I' for Inactive)
REMARK    1  A    between atoms: C_1  and  C_2
REMARK    2  A    between atoms: C_2  and  C_3
REMARK    3  A    between atoms: C_3  and  C_4
REMARK    4  A    between atoms: C_4  and  C_5
REMARK    5  A    between atoms: C_5  and  C_6
REMARK    6  A    between atoms: C_6  and  C_7
REMARK    7  A    between atoms: C_7  and  C_8
REMARK    8  A    between atoms: C_8  and  C_9
REMARK    9  A    between atoms: C_9  and  C_10
REMARK   10  A    between atoms: C_10  and  C_11
REMARK   11  A    between atoms: C_11  and  C_12
REMARK   12  A    between atoms: C_12  and  N_13
REMARK   13  A    between atoms: N_13  and  C_14
REMARK   14  A    between atoms: N_13  and  C_15
REMARK   15  A    between atoms: N_13  and  C_16
REMARK   16  A    between atoms: C_16  and  C_17
REMARK   17  A    between atoms: C_17  and  C_18
REMARK   18  A    between atoms: C_18  and  N_19
REMARK   19  A    between atoms: N_19  and  C_20
REMARK   20  A    between atoms: N_19  and  C_21
REMARK   21  A    between atoms: N_19  and  C_22
REMARK   22  A    between atoms: C_22  and  C_23
REMARK   23  A    between atoms: C_23  and  C_24
REMARK   24  A    between atoms: C_24  and  C_25
REMARK   25  A    between atoms: C_25  and  C_26
REMARK   26  A    between atoms: C_26  and  C_27
REMARK   27  A    between atoms: C_27  and  C_28
REMARK   28  A    between atoms: C_28  and  C_29
REMARK   29  A    between atoms: C_29  and  C_30
REMARK   30  A    between atoms: C_30  and  C_31
REMARK   31  A    between atoms: C_31  and  C_32
REMARK   32  A    between atoms: C_32  and  C_33
REMARK                            x       y       z     vdW  Elec       q    Type
REMARK                         _______ _______ _______ _____ _____    ______ ____
ROOT
ATOM      1  C   UNL     1       4.436   5.361  18.903  0.00  0.00    +0.000 C 
ENDROOT
BRANCH   1   2
ATOM      2  C   UNL     1       3.567   4.132  18.993  0.00  0.00    +0.000 C 
BRANCH   2   3
ATOM      3  N   UNL     1       2.291   4.468  19.808  0.00  0.00    +0.000 N 
ATOM      4  C   UNL     1       1.053   3.808  19.184  0.00  0.00    +0.000 C 
ATOM      5  C   UNL     1       2.444   4.004  21.262  0.00  0.00    +0.000 C 
BRANCH   3   6
ATOM      6  C   UNL     1       2.166   5.993  19.741  0.00  0.00    +0.000 C 
BRANCH   6   7
ATOM      7  C   UNL     1       1.755   6.579  21.075  0.00  0.00    +0.000 C 
BRANCH   7   8
ATOM      8  C   UNL     1       0.850   7.770  20.886  0.00  0.00    +0.000 C 
BRANCH   8   9
ATOM      9  C   UNL     1       1.439   8.909  21.698  0.00  0.00    +0.000 C 
BRANCH   9  10
ATOM     10  C   UNL     1       0.485   9.295  22.803  0.00  0.00    +0.000 C 
BRANCH  10  11
ATOM     11  C   UNL     1      -0.752   9.926  22.197  0.00  0.00    +0.000 C 
BRANCH  11  12
ATOM     12  C   UNL     1      -0.604  11.435  22.230  0.00  0.00    +0.000 C 
BRANCH  12  13
ATOM     13  C   UNL     1      -1.088  12.034  20.924  0.00  0.00    +0.000 C 
BRANCH  13  14
ATOM     14  C   UNL     1      -1.027  10.985  19.825  0.00  0.00    +0.000 C 
BRANCH  14  15
ATOM     15  C   UNL     1      -0.153  11.472  18.680  0.00  0.00    +0.000 C 
BRANCH  15  16
ATOM     16  C   UNL     1       1.317  11.436  19.073  0.00  0.00    +0.000 C 
ATOM     17  C   UNL     1       2.064  12.610  18.467  0.00  0.00    +0.000 C 
ENDBRANCH  15  16
ENDBRANCH  14  15
ENDBRANCH  13  14
ENDBRANCH  12  13
ENDBRANCH  11  12
ENDBRANCH  10  11
ENDBRANCH   9  10
ENDBRANCH   8   9
ENDBRANCH   7   8
ENDBRANCH   6   7
ENDBRANCH   3   6
ENDBRANCH   2   3
ENDBRANCH   1   2
BRANCH   1  18
ATOM     18  C   UNL     1       5.911   5.130  19.100  0.00  0.00    +0.000 C 
BRANCH  18  19
ATOM     19  N   UNL     1       6.683   5.673  17.871  0.00  0.00    +0.000 N 
ATOM     20  C   UNL     1       5.780   6.534  16.973  0.00  0.00    +0.000 C 
ATOM     21  C   UNL     1       7.284   4.522  17.047  0.00  0.00    +0.000 C 
BRANCH  19  22
ATOM     22  C   UNL     1       7.817   6.549  18.455  0.00  0.00    +0.000 C 
BRANCH  22  23
ATOM     23  C   UNL     1       7.822   7.935  17.844  0.00  0.00    +0.000 C 
BRANCH  23  24
ATOM     24  C   UNL     1       8.867   8.808  18.498  0.00  0.00    +0.000 C 
BRANCH  24  25
ATOM     25  C   UNL     1       8.568  10.241  18.102  0.00  0.00    +0.000 C 
BRANCH  25  26
ATOM     26  C   UNL     1       9.666  11.143  18.590  0.00  0.00    +0.000 C 
BRANCH  26  27
ATOM     27  C   UNL     1       9.639  11.197  20.105  0.00  0.00    +0.000 C 
BRANCH  27  28
ATOM     28  C   UNL     1      10.737  12.112  20.595  0.00  0.00    +0.000 C 
BRANCH  28  29
ATOM     29  C   UNL     1      10.163  13.462  20.987  0.00  0.00    +0.000 C 
BRANCH  29  30
ATOM     30  C   UNL     1       8.665  13.339  21.204  0.00  0.00    +0.000 C 
BRANCH  30  31
ATOM     31  C   UNL     1       7.938  14.488  20.521  0.00  0.00    +0.000 C 
BRANCH  31  33
ATOM     32  C   UNL     1       6.645  14.781  18.401  0.00  0.00    +0.000 C 
ATOM     33  C   UNL     1       7.955  14.314  19.009  0.00  0.00    +0.000 C 
ENDBRANCH  31  33
ENDBRANCH  30  31
ENDBRANCH  29  30
ENDBRANCH  28  29
ENDBRANCH  27  28
ENDBRANCH  26  27
ENDBRANCH  25  26
ENDBRANCH  24  25
ENDBRANCH  23  24
ENDBRANCH  22  23
ENDBRANCH  19  22
ENDBRANCH  18  19
ENDBRANCH   1  18
TORSDOF 26
ENDMDL
MODEL 7
REMARK VINA RESULT:      -5.2      1.811      8.747
REMARK  Name = 
REMARK  32 active torsions:
REMARK  status: ('A' for Active; 'I' for Inactive)
REMARK    1  A    between atoms: C_1  and  C_2
REMARK    2  A    between atoms: C_2  and  C_3
REMARK    3  A    between atoms: C_3  and  C_4
REMARK    4  A    between atoms: C_4  and  C_5
REMARK    5  A    between atoms: C_5  and  C_6
REMARK    6  A    between atoms: C_6  and  C_7
REMARK    7  A    between atoms: C_7  and  C_8
REMARK    8  A    between atoms: C_8  and  C_9
REMARK    9  A    between atoms: C_9  and  C_10
REMARK   10  A    between atoms: C_10  and  C_11
REMARK   11  A    between atoms: C_11  and  C_12
REMARK   12  A    between atoms: C_12  and  N_13
REMARK   13  A    between atoms: N_13  and  C_14
REMARK   14  A    between atoms: N_13  and  C_15
REMARK   15  A    between atoms: N_13  and  C_16
REMARK   16  A    between atoms: C_16  and  C_17
REMARK   17  A    between atoms: C_17  and  C_18
REMARK   18  A    between atoms: C_18  and  N_19
REMARK   19  A    between atoms: N_19  and  C_20
REMARK   20  A    between atoms: N_19  and  C_21
REMARK   21  A    between atoms: N_19  and  C_22
REMARK   22  A    between atoms: C_22  and  C_23
REMARK   23  A    between atoms: C_23  and  C_24
REMARK   24  A    between atoms: C_24  and  C_25
REMARK   25  A    between atoms: C_25  and  C_26
REMARK   26  A    between atoms: C_26  and  C_27
REMARK   27  A    between atoms: C_27  and  C_28
REMARK   28  A    between atoms: C_28  and  C_29
REMARK   29  A    between atoms: C_29  and  C_30
REMARK   30  A    between atoms: C_30  and  C_31
REMARK   31  A    between atoms: C_31  and  C_32
REMARK   32  A    between atoms: C_32  and  C_33
REMARK                            x       y       z     vdW  Elec       q    Type
REMARK                         _______ _______ _______ _____ _____    ______ ____
ROOT
ATOM      1  C   UNL     1       4.455   4.360  19.654  0.00  0.00    +0.000 C 
ENDROOT
BRANCH   1   2
ATOM      2  C   UNL     1       5.733   4.122  18.889  0.00  0.00    +0.000 C 
BRANCH   2   3
ATOM      3  N   UNL     1       5.712   4.962  17.586  0.00  0.00    +0.000 N 
ATOM      4  C   UNL     1       5.146   4.144  16.417  0.00  0.00    +0.000 C 
ATOM      5  C   UNL     1       4.875   6.233  17.779  0.00  0.00    +0.000 C 
BRANCH   3   6
ATOM      6  C   UNL     1       7.178   5.319  17.319  0.00  0.00    +0.000 C 
BRANCH   6   7
ATOM      7  C   UNL     1       7.355   6.802  17.069  0.00  0.00    +0.000 C 
BRANCH   7   8
ATOM      8  C   UNL     1       8.110   7.453  18.199  0.00  0.00    +0.000 C 
BRANCH   8   9
ATOM      9  C   UNL     1       8.219   8.931  17.869  0.00  0.00    +0.000 C 
BRANCH   9  10
ATOM     10  C   UNL     1       8.976   9.644  18.963  0.00  0.00    +0.000 C 
BRANCH  10  11
ATOM     11  C   UNL     1       9.347  11.034  18.488  0.00  0.00    +0.000 C 
BRANCH  11  12
ATOM     12  C   UNL     1      10.579  11.501  19.239  0.00  0.00    +0.000 C 
BRANCH  12  13
ATOM     13  C   UNL     1      10.177  12.412  20.382  0.00  0.00    +0.000 C 
BRANCH  13  14
ATOM     14  C   UNL     1      11.054  13.654  20.382  0.00  0.00    +0.000 C 
BRANCH  14  15
ATOM     15  C   UNL     1      11.767  13.794  19.046  0.00  0.00    +0.000 C 
BRANCH  15  16
ATOM     16  C   UNL     1      11.382  15.102  18.367  0.00  0.00    +0.000 C 
ATOM     17  C   UNL     1       9.875  15.207  18.220  0.00  0.00    +0.000 C 
ENDBRANCH  15  16
ENDBRANCH  14  15
ENDBRANCH  13  14
ENDBRANCH  12  13
ENDBRANCH  11  12
ENDBRANCH  10  11
ENDBRANCH   9  10
ENDBRANCH   8   9
ENDBRANCH   7   8
ENDBRANCH   6   7
ENDBRANCH   3   6
ENDBRANCH   2   3
ENDBRANCH   1   2
BRANCH   1  18
ATOM     18  C   UNL     1       3.199   3.854  18.994  0.00  0.00    +0.000 C 
BRANCH  18  19
ATOM     19  N   UNL     1       2.103   3.647  20.069  0.00  0.00    +0.000 N 
ATOM     20  C   UNL     1       2.641   2.866  21.279  0.00  0.00    +0.000 C 
ATOM     21  C   UNL     1       0.886   2.914  19.480  0.00  0.00    +0.000 C 
BRANCH  19  22
ATOM     22  C   UNL     1       1.694   5.071  20.515  0.00  0.00    +0.000 C 
BRANCH  22  23
ATOM     23  C   UNL     1       1.727   6.048  19.358  0.00  0.00    +0.000 C 
BRANCH  23  24
ATOM     24  C   UNL     1       2.080   7.437  19.836  0.00  0.00    +0.000 C 
BRANCH  24  25
ATOM     25  C   UNL     1       1.553   7.574  21.251  0.00  0.00    +0.000 C 
BRANCH  25  26
ATOM     26  C   UNL     1       1.098   8.985  21.491  0.00  0.00    +0.000 C 
BRANCH  26  27
ATOM     27  C   UNL     1      -0.335   9.141  21.022  0.00  0.00    +0.000 C 
BRANCH  27  28
ATOM     28  C   UNL     1      -0.507  10.492  20.369  0.00  0.00    +0.000 C 
BRANCH  28  29
ATOM     29  C   UNL     1      -0.554  10.345  18.859  0.00  0.00    +0.000 C 
BRANCH  29  30
ATOM     30  C   UNL     1      -1.291  11.525  18.250  0.00  0.00    +0.000 C 
BRANCH  30  31
ATOM     31  C   UNL     1      -2.748  11.166  18.002  0.00  0.00    +0.000 C 
BRANCH  31  33
ATOM     32  C   UNL     1      -2.839   9.863  15.870  0.00  0.00    +0.000 C 
ATOM     33  C   UNL     1      -2.863   9.780  17.385  0.00  0.00    +0.000 C 
ENDBRANCH  31  33
ENDBRANCH  30  31
ENDBRANCH  29  30
ENDBRANCH  28  29
ENDBRANCH  27  28
ENDBRANCH  26  27
ENDBRANCH  25  26
ENDBRANCH  24  25
ENDBRANCH  23  24
ENDBRANCH  22  23
ENDBRANCH  19  22
ENDBRANCH  18  19
ENDBRANCH   1  18
TORSDOF 26
ENDMDL
MODEL 8
REMARK VINA RESULT:      -5.1      2.458      8.215
REMARK  Name = 
REMARK  32 active torsions:
REMARK  status: ('A' for Active; 'I' for Inactive)
REMARK    1  A    between atoms: C_1  and  C_2
REMARK    2  A    between atoms: C_2  and  C_3
REMARK    3  A    between atoms: C_3  and  C_4
REMARK    4  A    between atoms: C_4  and  C_5
REMARK    5  A    between atoms: C_5  and  C_6
REMARK    6  A    between atoms: C_6  and  C_7
REMARK    7  A    between atoms: C_7  and  C_8
REMARK    8  A    between atoms: C_8  and  C_9
REMARK    9  A    between atoms: C_9  and  C_10
REMARK   10  A    between atoms: C_10  and  C_11
REMARK   11  A    between atoms: C_11  and  C_12
REMARK   12  A    between atoms: C_12  and  N_13
REMARK   13  A    between atoms: N_13  and  C_14
REMARK   14  A    between atoms: N_13  and  C_15
REMARK   15  A    between atoms: N_13  and  C_16
REMARK   16  A    between atoms: C_16  and  C_17
REMARK   17  A    between atoms: C_17  and  C_18
REMARK   18  A    between atoms: C_18  and  N_19
REMARK   19  A    between atoms: N_19  and  C_20
REMARK   20  A    between atoms: N_19  and  C_21
REMARK   21  A    between atoms: N_19  and  C_22
REMARK   22  A    between atoms: C_22  and  C_23
REMARK   23  A    between atoms: C_23  and  C_24
REMARK   24  A    between atoms: C_24  and  C_25
REMARK   25  A    between atoms: C_25  and  C_26
REMARK   26  A    between atoms: C_26  and  C_27
REMARK   27  A    between atoms: C_27  and  C_28
REMARK   28  A    between atoms: C_28  and  C_29
REMARK   29  A    between atoms: C_29  and  C_30
REMARK   30  A    between atoms: C_30  and  C_31
REMARK   31  A    between atoms: C_31  and  C_32
REMARK   32  A    between atoms: C_32  and  C_33
REMARK                            x       y       z     vdW  Elec       q    Type
REMARK                         _______ _______ _______ _____ _____    ______ ____
ROOT
ATOM      1  C   UNL     1       4.006   3.800  18.607  0.00  0.00    +0.000 C 
ENDROOT
BRANCH   1   2
ATOM      2  C   UNL     1       4.123   4.032  17.121  0.00  0.00    +0.000 C 
BRANCH   2   3
ATOM      3  N   UNL     1       5.149   5.164  16.861  0.00  0.00    +0.000 N 
ATOM      4  C   UNL     1       5.473   5.276  15.364  0.00  0.00    +0.000 C 
ATOM      5  C   UNL     1       4.612   6.506  17.374  0.00  0.00    +0.000 C 
BRANCH   3   6
ATOM      6  C   UNL     1       6.402   4.754  17.642  0.00  0.00    +0.000 C 
BRANCH   6   7
ATOM      7  C   UNL     1       7.491   5.801  17.543  0.00  0.00    +0.000 C 
BRANCH   7   8
ATOM      8  C   UNL     1       8.046   6.133  18.904  0.00  0.00    +0.000 C 
BRANCH   8   9
ATOM      9  C   UNL     1       8.447   7.596  18.878  0.00  0.00    +0.000 C 
BRANCH   9  10
ATOM     10  C   UNL     1       7.927   8.245  17.618  0.00  0.00    +0.000 C 
BRANCH  10  11
ATOM     11  C   UNL     1       8.242   9.726  17.652  0.00  0.00    +0.000 C 
BRANCH  11  12
ATOM     12  C   UNL     1       9.026  10.037  18.913  0.00  0.00    +0.000 C 
BRANCH  12  13
ATOM     13  C   UNL     1      10.172  10.977  18.594  0.00  0.00    +0.000 C 
BRANCH  13  14
ATOM     14  C   UNL     1       9.627  12.278  18.027  0.00  0.00    +0.000 C 
BRANCH  14  15
ATOM     15  C   UNL     1       9.060  13.141  19.143  0.00  0.00    +0.000 C 
BRANCH  15  16
ATOM     16  C   UNL     1      10.102  13.366  20.230  0.00  0.00    +0.000 C 
ATOM     17  C   UNL     1      11.199  14.292  19.738  0.00  0.00    +0.000 C 
ENDBRANCH  15  16
ENDBRANCH  14  15
ENDBRANCH  13  14
ENDBRANCH  12  13
ENDBRANCH  11  12
ENDBRANCH  10  11
ENDBRANCH   9  10
ENDBRANCH   8   9
ENDBRANCH   7   8
ENDBRANCH   6   7
ENDBRANCH   3   6
ENDBRANCH   2   3
ENDBRANCH   1   2
BRANCH   1  18
ATOM     18  C   UNL     1       3.165   2.620  19.018  0.00  0.00    +0.000 C 
BRANCH  18  19
ATOM     19  N   UNL     1       1.951   3.117  19.841  0.00  0.00    +0.000 N 
ATOM     20  C   UNL     1       2.267   3.154  21.345  0.00  0.00    +0.000 C 
ATOM     21  C   UNL     1       0.719   2.231  19.594  0.00  0.00    +0.000 C 
BRANCH  19  22
ATOM     22  C   UNL     1       1.675   4.554  19.336  0.00  0.00    +0.000 C 
BRANCH  22  23
ATOM     23  C   UNL     1       1.608   5.543  20.480  0.00  0.00    +0.000 C 
BRANCH  23  24
ATOM     24  C   UNL     1       1.731   6.962  19.973  0.00  0.00    +0.000 C 
BRANCH  24  25
ATOM     25  C   UNL     1       2.092   7.834  21.160  0.00  0.00    +0.000 C 
BRANCH  25  26
ATOM     26  C   UNL     1       0.846   8.431  21.750  0.00  0.00    +0.000 C 
BRANCH  26  27
ATOM     27  C   UNL     1       0.689   9.858  21.263  0.00  0.00    +0.000 C 
BRANCH  27  28
ATOM     28  C   UNL     1      -0.487  10.501  21.960  0.00  0.00    +0.000 C 
BRANCH  28  29
ATOM     29  C   UNL     1      -0.447  12.007  21.781  0.00  0.00    +0.000 C 
BRANCH  29  30
ATOM     30  C   UNL     1      -1.840  12.584  21.961  0.00  0.00    +0.000 C 
BRANCH  30  31
ATOM     31  C   UNL     1      -2.490  12.011  23.211  0.00  0.00    +0.000 C 
BRANCH  31  33
ATOM     32  C   UNL     1      -4.545  12.439  24.570  0.00  0.00    +0.000 C 
ATOM     33  C   UNL     1      -3.328  13.067  23.916  0.00  0.00    +0.000 C 
ENDBRANCH  31  33
ENDBRANCH  30  31
ENDBRANCH  29  30
ENDBRANCH  28  29
ENDBRANCH  27  28
ENDBRANCH  26  27
ENDBRANCH  25  26
ENDBRANCH  24  25
ENDBRANCH  23  24
ENDBRANCH  22  23
ENDBRANCH  19  22
ENDBRANCH  18  19
ENDBRANCH   1  18
TORSDOF 26
ENDMDL
MODEL 9
REMARK VINA RESULT:      -5.1      2.235      8.460
REMARK  Name = 
REMARK  32 active torsions:
REMARK  status: ('A' for Active; 'I' for Inactive)
REMARK    1  A    between atoms: C_1  and  C_2
REMARK    2  A    between atoms: C_2  and  C_3
REMARK    3  A    between atoms: C_3  and  C_4
REMARK    4  A    between atoms: C_4  and  C_5
REMARK    5  A    between atoms: C_5  and  C_6
REMARK    6  A    between atoms: C_6  and  C_7
REMARK    7  A    between atoms: C_7  and  C_8
REMARK    8  A    between atoms: C_8  and  C_9
REMARK    9  A    between atoms: C_9  and  C_10
REMARK   10  A    between atoms: C_10  and  C_11
REMARK   11  A    between atoms: C_11  and  C_12
REMARK   12  A    between atoms: C_12  and  N_13
REMARK   13  A    between atoms: N_13  and  C_14
REMARK   14  A    between atoms: N_13  and  C_15
REMARK   15  A    between atoms: N_13  and  C_16
REMARK   16  A    between atoms: C_16  and  C_17
REMARK   17  A    between atoms: C_17  and  C_18
REMARK   18  A    between atoms: C_18  and  N_19
REMARK   19  A    between atoms: N_19  and  C_20
REMARK   20  A    between atoms: N_19  and  C_21
REMARK   21  A    between atoms: N_19  and  C_22
REMARK   22  A    between atoms: C_22  and  C_23
REMARK   23  A    between atoms: C_23  and  C_24
REMARK   24  A    between atoms: C_24  and  C_25
REMARK   25  A    between atoms: C_25  and  C_26
REMARK   26  A    between atoms: C_26  and  C_27
REMARK   27  A    between atoms: C_27  and  C_28
REMARK   28  A    between atoms: C_28  and  C_29
REMARK   29  A    between atoms: C_29  and  C_30
REMARK   30  A    between atoms: C_30  and  C_31
REMARK   31  A    between atoms: C_31  and  C_32
REMARK   32  A    between atoms: C_32  and  C_33
REMARK                            x       y       z     vdW  Elec       q    Type
REMARK                         _______ _______ _______ _____ _____    ______ ____
ROOT
ATOM      1  C   UNL     1       5.000   5.162  18.732  0.00  0.00    +0.000 C 
ENDROOT
BRANCH   1   2
ATOM      2  C   UNL     1       5.526   4.222  17.677  0.00  0.00    +0.000 C 
BRANCH   2   3
ATOM      3  N   UNL     1       6.182   5.047  16.540  0.00  0.00    +0.000 N 
ATOM      4  C   UNL     1       6.759   4.125  15.457  0.00  0.00    +0.000 C 
ATOM      5  C   UNL     1       5.162   6.005  15.912  0.00  0.00    +0.000 C 
BRANCH   3   6
ATOM      6  C   UNL     1       7.309   5.833  17.219  0.00  0.00    +0.000 C 
BRANCH   6   7
ATOM      7  C   UNL     1       7.141   7.326  17.030  0.00  0.00    +0.000 C 
BRANCH   7   8
ATOM      8  C   UNL     1       7.638   8.082  18.235  0.00  0.00    +0.000 C 
BRANCH   8   9
ATOM      9  C   UNL     1       8.696   9.054  17.746  0.00  0.00    +0.000 C 
BRANCH   9  10
ATOM     10  C   UNL     1       8.558  10.368  18.477  0.00  0.00    +0.000 C 
BRANCH  10  11
ATOM     11  C   UNL     1       9.631  10.461  19.542  0.00  0.00    +0.000 C 
BRANCH  11  12
ATOM     12  C   UNL     1      10.741  11.368  19.050  0.00  0.00    +0.000 C 
BRANCH  12  13
ATOM     13  C   UNL     1      10.194  12.362  18.043  0.00  0.00    +0.000 C 
BRANCH  13  14
ATOM     14  C   UNL     1      11.301  12.797  17.097  0.00  0.00    +0.000 C 
BRANCH  14  15
ATOM     15  C   UNL     1      11.291  14.309  16.935  0.00  0.00    +0.000 C 
BRANCH  15  16
ATOM     16  C   UNL     1      10.530  14.966  18.079  0.00  0.00    +0.000 C 
ATOM     17  C   UNL     1      11.482  15.699  19.006  0.00  0.00    +0.000 C 
ENDBRANCH  15  16
ENDBRANCH  14  15
ENDBRANCH  13  14
ENDBRANCH  12  13
ENDBRANCH  11  12
ENDBRANCH  10  11
ENDBRANCH   9  10
ENDBRANCH   8   9
ENDBRANCH   7   8
ENDBRANCH   6   7
ENDBRANCH   3   6
ENDBRANCH   2   3
ENDBRANCH   1   2
BRANCH   1  18
ATOM     18  C   UNL     1       3.927   4.600  19.628  0.00  0.00    +0.000 C 
BRANCH  18  19
ATOM     19  N   UNL     1       2.567   5.250  19.268  0.00  0.00    +0.000 N 
ATOM     20  C   UNL     1       1.739   5.556  20.526  0.00  0.00    +0.000 C 
ATOM     21  C   UNL     1       1.757   4.344  18.325  0.00  0.00    +0.000 C 
BRANCH  19  22
ATOM     22  C   UNL     1       2.923   6.573  18.550  0.00  0.00    +0.000 C 
BRANCH  22  23
ATOM     23  C   UNL     1       2.135   7.740  19.107  0.00  0.00    +0.000 C 
BRANCH  23  24
ATOM     24  C   UNL     1       1.776   8.719  18.013  0.00  0.00    +0.000 C 
BRANCH  24  25
ATOM     25  C   UNL     1       0.966   9.830  18.652  0.00  0.00    +0.000 C 
BRANCH  25  26
ATOM     26  C   UNL     1      -0.339   9.991  17.925  0.00  0.00    +0.000 C 
BRANCH  26  27
ATOM     27  C   UNL     1      -1.416  10.409  18.906  0.00  0.00    +0.000 C 
BRANCH  27  28
ATOM     28  C   UNL     1      -0.784  11.148  20.062  0.00  0.00    +0.000 C 
BRANCH  28  29
ATOM     29  C   UNL     1      -1.074  12.635  19.959  0.00  0.00    +0.000 C 
BRANCH  29  30
ATOM     30  C   UNL     1      -2.217  13.001  20.889  0.00  0.00    +0.000 C 
BRANCH  30  31
ATOM     31  C   UNL     1      -2.173  12.140  22.143  0.00  0.00    +0.000 C 
BRANCH  31  33
ATOM     32  C   UNL     1      -1.184  14.067  23.393  0.00  0.00    +0.000 C 
ATOM     33  C   UNL     1      -2.267  13.003  23.393  0.00  0.00    +0.000 C 
ENDBRANCH  31  33
ENDBRANCH  30  31
ENDBRANCH  29  30
ENDBRANCH  28  29
ENDBRANCH  27  28
ENDBRANCH  26  27
ENDBRANCH  25  26
ENDBRANCH  24  25
ENDBRANCH  23  24
ENDBRANCH  22  23
ENDBRANCH  19  22
ENDBRANCH  18  19
ENDBRANCH   1  18
TORSDOF 26
ENDMDL
