MODEL 1
REMARK VINA RESULT:      -9.5      0.000      0.000
REMARK  Name = 
REMARK  4 active torsions:
REMARK  status: ('A' for Active; 'I' for Inactive)
REMARK    1  A    between atoms: C_2  and  C_3
REMARK    2  A    between atoms: C_7  and  N_8
REMARK    3  A    between atoms: C_13  and  C_14
REMARK    4  A    between atoms: N_28  and  C_29
REMARK                            x       y       z     vdW  Elec       q    Type
REMARK                         _______ _______ _______ _____ _____    ______ ____
ROOT
ATOM      1  C   UNL     1      -0.317  11.043  20.293  0.00  0.00    +0.000 A 
ATOM      2  C   UNL     1      -0.169  10.072  21.273  0.00  0.00    +0.000 A 
ATOM      3  C   UNL     1       0.647   9.027  20.753  0.00  0.00    +0.000 A 
ATOM      4  C   UNL     1       1.153   7.811  21.259  0.00  0.00    +0.000 A 
ATOM      5  C   UNL     1       1.937   6.977  20.437  0.00  0.00    +0.000 A 
ATOM      6  C   UNL     1       2.308   7.451  19.172  0.00  0.00    +0.000 A 
ATOM      7  C   UNL     1       1.816   8.642  18.640  0.00  0.00    +0.000 A 
ATOM      8  C   UNL     1       0.961   9.382  19.446  0.00  0.00    +0.000 A 
ATOM      9  N   UNL     1       0.263  10.525  19.161  0.00  0.00    +0.000 N 
ATOM     10  H   UNL     1       0.245  10.963  18.252  0.00  0.00    +0.000 HD
ENDROOT
BRANCH   1  12
ATOM     11  O   UNL     1      -2.186  12.372  20.719  0.00  0.00    +0.000 OA
ATOM     12  C   UNL     1      -1.011  12.312  20.364  0.00  0.00    +0.000 C 
ATOM     13  N   UNL     1      -0.294  13.466  20.026  0.00  0.00    +0.000 N 
ATOM     14  C   UNL     1      -1.025  14.728  19.883  0.00  0.00    +0.000 C 
ATOM     15  C   UNL     1      -0.212  15.953  20.359  0.00  0.00    +0.000 C 
ATOM     16  N   UNL     1       1.177  16.026  19.845  0.00  0.00    +0.000 NA
ATOM     17  C   UNL     1       1.844  14.759  20.183  0.00  0.00    +0.000 C 
ATOM     18  C   UNL     1       1.125  13.508  19.661  0.00  0.00    +0.000 C 
BRANCH  16  19
ATOM     19  C   UNL     1       1.247  16.384  18.420  0.00  0.00    +0.000 C 
ATOM     20  C   UNL     1       0.776  17.823  18.178  0.00  0.00    +0.000 C 
ATOM     21  C   UNL     1       1.317  18.154  16.797  0.00  0.00    +0.000 C 
ATOM     22  C   UNL     1       2.680  17.479  16.743  0.00  0.00    +0.000 C 
ATOM     23  C   UNL     1       2.668  16.398  17.822  0.00  0.00    +0.000 C 
ENDBRANCH  16  19
ENDBRANCH   1  12
BRANCH   5  24
ATOM     24  N   UNL     1       2.346   5.716  20.927  0.00  0.00    +0.000 N 
ATOM     25  C   UNL     1       3.012   4.704  20.222  0.00  0.00    +0.000 A 
ATOM     26  N   UNL     1       2.728   3.444  20.579  0.00  0.00    +0.000 NA
ATOM     27  C   UNL     1       3.250   2.465  19.812  0.00  0.00    +0.000 A 
ATOM     28  C   UNL     1       4.038   2.693  18.712  0.00  0.00    +0.000 A 
ATOM     29  C   UNL     1       4.319   4.011  18.438  0.00  0.00    +0.000 A 
ATOM     30  N   UNL     1       3.828   5.007  19.206  0.00  0.00    +0.000 NA
ATOM     31  H   UNL     1       1.668   5.258  21.522  0.00  0.00    +0.000 HD
BRANCH  29  32
ATOM     32  C   UNL     1       5.123   4.438  17.274  0.00  0.00    +0.000 A 
ATOM     33  C   UNL     1       4.775   4.080  15.969  0.00  0.00    +0.000 A 
ATOM     34  C   UNL     1       5.592   4.469  14.908  0.00  0.00    +0.000 A 
ATOM     35  C   UNL     1       6.745   5.193  15.172  0.00  0.00    +0.000 A 
ATOM     36  C   UNL     1       7.026   5.513  16.489  0.00  0.00    +0.000 A 
ATOM     37  N   UNL     1       6.242   5.170  17.536  0.00  0.00    +0.000 NA
ENDBRANCH  29  32
ENDBRANCH   5  24
TORSDOF 4
ENDMDL
MODEL 2
REMARK VINA RESULT:      -9.4      2.614      4.056
REMARK  Name = 
REMARK  4 active torsions:
REMARK  status: ('A' for Active; 'I' for Inactive)
REMARK    1  A    between atoms: C_2  and  C_3
REMARK    2  A    between atoms: C_7  and  N_8
REMARK    3  A    between atoms: C_13  and  C_14
REMARK    4  A    between atoms: N_28  and  C_29
REMARK                            x       y       z     vdW  Elec       q    Type
REMARK                         _______ _______ _______ _____ _____    ______ ____
ROOT
ATOM      1  C   UNL     1       0.776  11.077  20.793  0.00  0.00    +0.000 A 
ATOM      2  C   UNL     1       0.737   9.961  21.615  0.00  0.00    +0.000 A 
ATOM      3  C   UNL     1       1.165   8.831  20.862  0.00  0.00    +0.000 A 
ATOM      4  C   UNL     1       1.350   7.459  21.139  0.00  0.00    +0.000 A 
ATOM      5  C   UNL     1       1.779   6.585  20.120  0.00  0.00    +0.000 A 
ATOM      6  C   UNL     1       2.144   7.135  18.884  0.00  0.00    +0.000 A 
ATOM      7  C   UNL     1       1.963   8.483  18.577  0.00  0.00    +0.000 A 
ATOM      8  C   UNL     1       1.437   9.289  19.579  0.00  0.00    +0.000 A 
ATOM      9  N   UNL     1       1.071  10.607  19.536  0.00  0.00    +0.000 N 
ATOM     10  H   UNL     1       1.090  11.171  18.700  0.00  0.00    +0.000 HD
ENDROOT
BRANCH   1  12
ATOM     11  O   UNL     1       1.389  13.263  21.328  0.00  0.00    +0.000 OA
ATOM     12  C   UNL     1       0.484  12.458  21.115  0.00  0.00    +0.000 C 
ATOM     13  N   UNL     1      -0.860  12.845  21.163  0.00  0.00    +0.000 N 
ATOM     14  C   UNL     1      -1.188  14.172  21.694  0.00  0.00    +0.000 C 
ATOM     15  C   UNL     1      -2.391  14.827  20.977  0.00  0.00    +0.000 C 
ATOM     16  N   UNL     1      -3.580  13.956  20.818  0.00  0.00    +0.000 NA
ATOM     17  C   UNL     1      -3.143  12.724  20.142  0.00  0.00    +0.000 C 
ATOM     18  C   UNL     1      -2.004  11.983  20.857  0.00  0.00    +0.000 C 
BRANCH  16  19
ATOM     19  C   UNL     1      -4.302  13.730  22.079  0.00  0.00    +0.000 C 
ATOM     20  C   UNL     1      -4.909  15.029  22.621  0.00  0.00    +0.000 C 
ATOM     21  C   UNL     1      -5.944  14.554  23.627  0.00  0.00    +0.000 C 
ATOM     22  C   UNL     1      -6.545  13.303  23.004  0.00  0.00    +0.000 C 
ATOM     23  C   UNL     1      -5.536  12.812  21.965  0.00  0.00    +0.000 C 
ENDBRANCH  16  19
ENDBRANCH   1  12
BRANCH   5  24
ATOM     24  N   UNL     1       1.857   5.200  20.389  0.00  0.00    +0.000 N 
ATOM     25  C   UNL     1       2.485   4.216  19.612  0.00  0.00    +0.000 A 
ATOM     26  N   UNL     1       1.926   2.999  19.629  0.00  0.00    +0.000 NA
ATOM     27  C   UNL     1       2.433   2.087  18.775  0.00  0.00    +0.000 A 
ATOM     28  C   UNL     1       3.469   2.342  17.911  0.00  0.00    +0.000 A 
ATOM     29  C   UNL     1       4.016   3.602  17.986  0.00  0.00    +0.000 A 
ATOM     30  N   UNL     1       3.541   4.522  18.851  0.00  0.00    +0.000 NA
ATOM     31  H   UNL     1       0.999   4.792  20.738  0.00  0.00    +0.000 HD
BRANCH  29  32
ATOM     32  C   UNL     1       5.114   4.056  17.107  0.00  0.00    +0.000 A 
ATOM     33  C   UNL     1       4.983   4.076  15.716  0.00  0.00    +0.000 A 
ATOM     34  C   UNL     1       6.063   4.470  14.928  0.00  0.00    +0.000 A 
ATOM     35  C   UNL     1       7.256   4.820  15.543  0.00  0.00    +0.000 A 
ATOM     36  C   UNL     1       7.314   4.777  16.925  0.00  0.00    +0.000 A 
ATOM     37  N   UNL     1       6.276   4.422  17.717  0.00  0.00    +0.000 NA
ENDBRANCH  29  32
ENDBRANCH   5  24
TORSDOF 4
ENDMDL
MODEL 3
REMARK VINA RESULT:      -9.3      0.968      1.273
REMARK  Name = 
REMARK  4 active torsions:
REMARK  status: ('A' for Active; 'I' for Inactive)
REMARK    1  A    between atoms: C_2  and  C_3
REMARK    2  A    between atoms: C_7  and  N_8
REMARK    3  A    between atoms: C_13  and  C_14
REMARK    4  A    between atoms: N_28  and  C_29
REMARK                            x       y       z     vdW  Elec       q    Type
REMARK                         _______ _______ _______ _____ _____    ______ ____
ROOT
ATOM      1  C   UNL     1       0.028  11.395  19.420  0.00  0.00    +0.000 A 
ATOM      2  C   UNL     1       0.044  10.570  20.535  0.00  0.00    +0.000 A 
ATOM      3  C   UNL     1       0.777   9.392  20.213  0.00  0.00    +0.000 A 
ATOM      4  C   UNL     1       1.145   8.223  20.913  0.00  0.00    +0.000 A 
ATOM      5  C   UNL     1       1.877   7.211  20.261  0.00  0.00    +0.000 A 
ATOM      6  C   UNL     1       2.341   7.459  18.963  0.00  0.00    +0.000 A 
ATOM      7  C   UNL     1       1.986   8.599  18.241  0.00  0.00    +0.000 A 
ATOM      8  C   UNL     1       1.174   9.522  18.887  0.00  0.00    +0.000 A 
ATOM      9  N   UNL     1       0.600  10.667  18.406  0.00  0.00    +0.000 N 
ATOM     10  H   UNL     1       0.660  10.966  17.444  0.00  0.00    +0.000 HD
ENDROOT
BRANCH   1  12
ATOM     11  O   UNL     1      -1.690  12.867  18.854  0.00  0.00    +0.000 OA
ATOM     12  C   UNL     1      -0.544  12.717  19.273  0.00  0.00    +0.000 C 
ATOM     13  N   UNL     1       0.247  13.813  19.636  0.00  0.00    +0.000 N 
ATOM     14  C   UNL     1      -0.223  15.160  19.297  0.00  0.00    +0.000 C 
ATOM     15  C   UNL     1       0.146  16.214  20.365  0.00  0.00    +0.000 C 
ATOM     16  N   UNL     1       1.560  16.189  20.812  0.00  0.00    +0.000 NA
ATOM     17  C   UNL     1       1.861  14.821  21.263  0.00  0.00    +0.000 C 
ATOM     18  C   UNL     1       1.593  13.736  20.211  0.00  0.00    +0.000 C 
BRANCH  16  19
ATOM     19  C   UNL     1       2.493  16.711  19.801  0.00  0.00    +0.000 C 
ATOM     20  C   UNL     1       3.692  15.776  19.606  0.00  0.00    +0.000 C 
ATOM     21  C   UNL     1       4.282  16.217  18.277  0.00  0.00    +0.000 C 
ATOM     22  C   UNL     1       3.079  16.564  17.413  0.00  0.00    +0.000 C 
ATOM     23  C   UNL     1       1.916  16.811  18.375  0.00  0.00    +0.000 C 
ENDBRANCH  16  19
ENDBRANCH   1  12
BRANCH   5  24
ATOM     24  N   UNL     1       2.146   6.005  20.947  0.00  0.00    +0.000 N 
ATOM     25  C   UNL     1       2.833   4.884  20.460  0.00  0.00    +0.000 A 
ATOM     26  N   UNL     1       2.431   3.692  20.924  0.00  0.00    +0.000 NA
ATOM     27  C   UNL     1       2.985   2.603  20.354  0.00  0.00    +0.000 A 
ATOM     28  C   UNL     1       3.917   2.656  19.348  0.00  0.00    +0.000 A 
ATOM     29  C   UNL     1       4.308   3.916  18.959  0.00  0.00    +0.000 A 
ATOM     30  N   UNL     1       3.786   5.020  19.533  0.00  0.00    +0.000 NA
ATOM     31  H   UNL     1       1.372   5.655  21.498  0.00  0.00    +0.000 HD
BRANCH  29  32
ATOM     32  C   UNL     1       5.276   4.157  17.869  0.00  0.00    +0.000 A 
ATOM     33  C   UNL     1       4.908   4.064  16.524  0.00  0.00    +0.000 A 
ATOM     34  C   UNL     1       5.868   4.255  15.532  0.00  0.00    +0.000 A 
ATOM     35  C   UNL     1       7.178   4.521  15.902  0.00  0.00    +0.000 A 
ATOM     36  C   UNL     1       7.471   4.599  17.253  0.00  0.00    +0.000 A 
ATOM     37  N   UNL     1       6.557   4.441  18.237  0.00  0.00    +0.000 NA
ENDBRANCH  29  32
ENDBRANCH   5  24
TORSDOF 4
ENDMDL
MODEL 4
REMARK VINA RESULT:      -9.3      1.889      2.222
REMARK  Name = 
REMARK  4 active torsions:
REMARK  status: ('A' for Active; 'I' for Inactive)
REMARK    1  A    between atoms: C_2  and  C_3
REMARK    2  A    between atoms: C_7  and  N_8
REMARK    3  A    between atoms: C_13  and  C_14
REMARK    4  A    between atoms: N_28  and  C_29
REMARK                            x       y       z     vdW  Elec       q    Type
REMARK                         _______ _______ _______ _____ _____    ______ ____
ROOT
ATOM      1  C   UNL     1       0.759  11.980  19.235  0.00  0.00    +0.000 A 
ATOM      2  C   UNL     1       0.697  11.180  20.367  0.00  0.00    +0.000 A 
ATOM      3  C   UNL     1       1.156   9.877  20.025  0.00  0.00    +0.000 A 
ATOM      4  C   UNL     1       1.338   8.666  20.728  0.00  0.00    +0.000 A 
ATOM      5  C   UNL     1       1.806   7.522  20.052  0.00  0.00    +0.000 A 
ATOM      6  C   UNL     1       2.210   7.658  18.717  0.00  0.00    +0.000 A 
ATOM      7  C   UNL     1       2.033   8.837  17.993  0.00  0.00    +0.000 A 
ATOM      8  C   UNL     1       1.470   9.910  18.671  0.00  0.00    +0.000 A 
ATOM      9  N   UNL     1       1.099  11.141  18.202  0.00  0.00    +0.000 N 
ATOM     10  H   UNL     1       1.143  11.411  17.231  0.00  0.00    +0.000 HD
ENDROOT
BRANCH   1  12
ATOM     11  O   UNL     1      -0.565  13.755  18.504  0.00  0.00    +0.000 OA
ATOM     12  C   UNL     1       0.449  13.387  19.094  0.00  0.00    +0.000 C 
ATOM     13  N   UNL     1       1.334  14.309  19.664  0.00  0.00    +0.000 N 
ATOM     14  C   UNL     1       1.161  15.731  19.354  0.00  0.00    +0.000 C 
ATOM     15  C   UNL     1       1.507  16.655  20.544  0.00  0.00    +0.000 C 
ATOM     16  N   UNL     1       2.796  16.361  21.215  0.00  0.00    +0.000 NA
ATOM     17  C   UNL     1       2.782  14.943  21.606  0.00  0.00    +0.000 C 
ATOM     18  C   UNL     1       2.527  13.970  20.446  0.00  0.00    +0.000 C 
BRANCH  16  19
ATOM     19  C   UNL     1       3.965  16.755  20.415  0.00  0.00    +0.000 C 
ATOM     20  C   UNL     1       4.591  18.055  20.934  0.00  0.00    +0.000 C 
ATOM     21  C   UNL     1       5.976  18.065  20.311  0.00  0.00    +0.000 C 
ATOM     22  C   UNL     1       6.423  16.611  20.334  0.00  0.00    +0.000 C 
ATOM     23  C   UNL     1       5.152  15.773  20.472  0.00  0.00    +0.000 C 
ENDBRANCH  16  19
ENDBRANCH   1  12
BRANCH   5  24
ATOM     24  N   UNL     1       1.883   6.295  20.748  0.00  0.00    +0.000 N 
ATOM     25  C   UNL     1       2.532   5.122  20.338  0.00  0.00    +0.000 A 
ATOM     26  N   UNL     1       1.977   3.967  20.727  0.00  0.00    +0.000 NA
ATOM     27  C   UNL     1       2.507   2.837  20.218  0.00  0.00    +0.000 A 
ATOM     28  C   UNL     1       3.563   2.816  19.341  0.00  0.00    +0.000 A 
ATOM     29  C   UNL     1       4.105   4.040  19.025  0.00  0.00    +0.000 A 
ATOM     30  N   UNL     1       3.605   5.182  19.542  0.00  0.00    +0.000 NA
ATOM     31  H   UNL     1       1.018   6.009  21.190  0.00  0.00    +0.000 HD
BRANCH  29  32
ATOM     32  C   UNL     1       5.222   4.204  18.071  0.00  0.00    +0.000 A 
ATOM     33  C   UNL     1       5.053   4.008  16.698  0.00  0.00    +0.000 A 
ATOM     34  C   UNL     1       6.149   4.130  15.845  0.00  0.00    +0.000 A 
ATOM     35  C   UNL     1       7.392   4.429  16.381  0.00  0.00    +0.000 A 
ATOM     36  C   UNL     1       7.486   4.609  17.750  0.00  0.00    +0.000 A 
ATOM     37  N   UNL     1       6.437   4.520  18.600  0.00  0.00    +0.000 NA
ENDBRANCH  29  32
ENDBRANCH   5  24
TORSDOF 4
ENDMDL
MODEL 5
REMARK VINA RESULT:      -9.2      2.192      3.332
REMARK  Name = 
REMARK  4 active torsions:
REMARK  status: ('A' for Active; 'I' for Inactive)
REMARK    1  A    between atoms: C_2  and  C_3
REMARK    2  A    between atoms: C_7  and  N_8
REMARK    3  A    between atoms: C_13  and  C_14
REMARK    4  A    between atoms: N_28  and  C_29
REMARK                            x       y       z     vdW  Elec       q    Type
REMARK                         _______ _______ _______ _____ _____    ______ ____
ROOT
ATOM      1  C   UNL     1       0.096  11.522  19.334  0.00  0.00    +0.000 A 
ATOM      2  C   UNL     1       0.104  10.706  20.456  0.00  0.00    +0.000 A 
ATOM      3  C   UNL     1       0.811   9.511  20.140  0.00  0.00    +0.000 A 
ATOM      4  C   UNL     1       1.160   8.342  20.849  0.00  0.00    +0.000 A 
ATOM      5  C   UNL     1       1.869   7.310  20.201  0.00  0.00    +0.000 A 
ATOM      6  C   UNL     1       2.329   7.538  18.897  0.00  0.00    +0.000 A 
ATOM      7  C   UNL     1       1.992   8.678  18.167  0.00  0.00    +0.000 A 
ATOM      8  C   UNL     1       1.202   9.622  18.811  0.00  0.00    +0.000 A 
ATOM      9  N   UNL     1       0.648  10.774  18.323  0.00  0.00    +0.000 N 
ATOM     10  H   UNL     1       0.706  11.063  17.358  0.00  0.00    +0.000 HD
ENDROOT
BRANCH   1  12
ATOM     11  O   UNL     1      -0.486  13.398  18.077  0.00  0.00    +0.000 OA
ATOM     12  C   UNL     1      -0.452  12.853  19.178  0.00  0.00    +0.000 C 
ATOM     13  N   UNL     1      -0.950  13.490  20.321  0.00  0.00    +0.000 N 
ATOM     14  C   UNL     1      -1.309  14.909  20.232  0.00  0.00    +0.000 C 
ATOM     15  C   UNL     1      -2.535  15.276  21.099  0.00  0.00    +0.000 C 
ATOM     16  N   UNL     1      -2.492  14.775  22.494  0.00  0.00    +0.000 NA
ATOM     17  C   UNL     1      -2.274  13.321  22.439  0.00  0.00    +0.000 C 
ATOM     18  C   UNL     1      -1.021  12.900  21.661  0.00  0.00    +0.000 C 
BRANCH  16  19
ATOM     19  C   UNL     1      -1.529  15.499  23.338  0.00  0.00    +0.000 C 
ATOM     20  C   UNL     1      -1.920  16.971  23.502  0.00  0.00    +0.000 C 
ATOM     21  C   UNL     1      -1.113  17.429  24.706  0.00  0.00    +0.000 C 
ATOM     22  C   UNL     1      -1.117  16.237  25.651  0.00  0.00    +0.000 C 
ATOM     23  C   UNL     1      -1.451  15.013  24.799  0.00  0.00    +0.000 C 
ENDBRANCH  16  19
ENDBRANCH   1  12
BRANCH   5  24
ATOM     24  N   UNL     1       2.119   6.105  20.896  0.00  0.00    +0.000 N 
ATOM     25  C   UNL     1       2.798   4.974  20.422  0.00  0.00    +0.000 A 
ATOM     26  N   UNL     1       2.380   3.790  20.888  0.00  0.00    +0.000 NA
ATOM     27  C   UNL     1       2.927   2.691  20.330  0.00  0.00    +0.000 A 
ATOM     28  C   UNL     1       3.868   2.729  19.332  0.00  0.00    +0.000 A 
ATOM     29  C   UNL     1       4.276   3.982  18.939  0.00  0.00    +0.000 A 
ATOM     30  N   UNL     1       3.761   5.095  19.502  0.00  0.00    +0.000 NA
ATOM     31  H   UNL     1       1.336   5.767  21.441  0.00  0.00    +0.000 HD
BRANCH  29  32
ATOM     32  C   UNL     1       5.257   4.207  17.856  0.00  0.00    +0.000 A 
ATOM     33  C   UNL     1       4.893   4.139  16.509  0.00  0.00    +0.000 A 
ATOM     34  C   UNL     1       5.864   4.313  15.524  0.00  0.00    +0.000 A 
ATOM     35  C   UNL     1       7.179   4.537  15.903  0.00  0.00    +0.000 A 
ATOM     36  C   UNL     1       7.467   4.592  17.256  0.00  0.00    +0.000 A 
ATOM     37  N   UNL     1       6.543   4.450  18.234  0.00  0.00    +0.000 NA
ENDBRANCH  29  32
ENDBRANCH   5  24
TORSDOF 4
ENDMDL
MODEL 6
REMARK VINA RESULT:      -9.1      2.304      3.730
REMARK  Name = 
REMARK  4 active torsions:
REMARK  status: ('A' for Active; 'I' for Inactive)
REMARK    1  A    between atoms: C_2  and  C_3
REMARK    2  A    between atoms: C_7  and  N_8
REMARK    3  A    between atoms: C_13  and  C_14
REMARK    4  A    between atoms: N_28  and  C_29
REMARK                            x       y       z     vdW  Elec       q    Type
REMARK                         _______ _______ _______ _____ _____    ______ ____
ROOT
ATOM      1  C   UNL     1       0.176  11.453  19.297  0.00  0.00    +0.000 A 
ATOM      2  C   UNL     1       0.280  10.643  20.419  0.00  0.00    +0.000 A 
ATOM      3  C   UNL     1       0.954   9.445  20.048  0.00  0.00    +0.000 A 
ATOM      4  C   UNL     1       1.362   8.278  20.729  0.00  0.00    +0.000 A 
ATOM      5  C   UNL     1       2.009   7.241  20.027  0.00  0.00    +0.000 A 
ATOM      6  C   UNL     1       2.353   7.461  18.687  0.00  0.00    +0.000 A 
ATOM      7  C   UNL     1       1.956   8.598  17.984  0.00  0.00    +0.000 A 
ATOM      8  C   UNL     1       1.228   9.548  18.689  0.00  0.00    +0.000 A 
ATOM      9  N   UNL     1       0.635  10.699  18.245  0.00  0.00    +0.000 N 
ATOM     10  H   UNL     1       0.610  10.984  17.278  0.00  0.00    +0.000 HD
ENDROOT
BRANCH   1  12
ATOM     11  O   UNL     1      -0.165  13.478  18.191  0.00  0.00    +0.000 OA
ATOM     12  C   UNL     1      -0.380  12.786  19.184  0.00  0.00    +0.000 C 
ATOM     13  N   UNL     1      -1.178  13.250  20.235  0.00  0.00    +0.000 N 
ATOM     14  C   UNL     1      -1.573  14.662  20.245  0.00  0.00    +0.000 C 
ATOM     15  C   UNL     1      -2.992  14.887  20.813  0.00  0.00    +0.000 C 
ATOM     16  N   UNL     1      -3.275  14.198  22.095  0.00  0.00    +0.000 NA
ATOM     17  C   UNL     1      -2.979  12.769  21.907  0.00  0.00    +0.000 C 
ATOM     18  C   UNL     1      -1.552  12.478  21.424  0.00  0.00    +0.000 C 
BRANCH  16  19
ATOM     19  C   UNL     1      -2.589  14.811  23.242  0.00  0.00    +0.000 C 
ATOM     20  C   UNL     1      -2.961  16.291  23.395  0.00  0.00    +0.000 C 
ATOM     21  C   UNL     1      -2.542  16.625  24.817  0.00  0.00    +0.000 C 
ATOM     22  C   UNL     1      -2.875  15.377  25.622  0.00  0.00    +0.000 C 
ATOM     23  C   UNL     1      -2.976  14.231  24.617  0.00  0.00    +0.000 C 
ENDBRANCH  16  19
ENDBRANCH   1  12
BRANCH   5  24
ATOM     24  N   UNL     1       2.315   6.039  20.703  0.00  0.00    +0.000 N 
ATOM     25  C   UNL     1       2.978   4.916  20.187  0.00  0.00    +0.000 A 
ATOM     26  N   UNL     1       2.604   3.727  20.676  0.00  0.00    +0.000 NA
ATOM     27  C   UNL     1       3.128   2.635  20.084  0.00  0.00    +0.000 A 
ATOM     28  C   UNL     1       4.005   2.685  19.029  0.00  0.00    +0.000 A 
ATOM     29  C   UNL     1       4.373   3.943  18.614  0.00  0.00    +0.000 A 
ATOM     30  N   UNL     1       3.880   5.050  19.209  0.00  0.00    +0.000 NA
ATOM     31  H   UNL     1       1.572   5.691  21.296  0.00  0.00    +0.000 HD
BRANCH  29  32
ATOM     32  C   UNL     1       5.281   4.181  17.472  0.00  0.00    +0.000 A 
ATOM     33  C   UNL     1       6.611   4.568  17.658  0.00  0.00    +0.000 A 
ATOM     34  C   UNL     1       7.415   4.825  16.548  0.00  0.00    +0.000 A 
ATOM     35  C   UNL     1       6.871   4.704  15.278  0.00  0.00    +0.000 A 
ATOM     36  C   UNL     1       5.547   4.317  15.169  0.00  0.00    +0.000 A 
ATOM     37  N   UNL     1       4.750   4.039  16.226  0.00  0.00    +0.000 NA
ENDBRANCH  29  32
ENDBRANCH   5  24
TORSDOF 4
ENDMDL
MODEL 7
REMARK VINA RESULT:      -9.1      1.063      1.250
REMARK  Name = 
REMARK  4 active torsions:
REMARK  status: ('A' for Active; 'I' for Inactive)
REMARK    1  A    between atoms: C_2  and  C_3
REMARK    2  A    between atoms: C_7  and  N_8
REMARK    3  A    between atoms: C_13  and  C_14
REMARK    4  A    between atoms: N_28  and  C_29
REMARK                            x       y       z     vdW  Elec       q    Type
REMARK                         _______ _______ _______ _____ _____    ______ ____
ROOT
ATOM      1  C   UNL     1       0.554  10.821  20.916  0.00  0.00    +0.000 A 
ATOM      2  C   UNL     1       0.574   9.690  21.720  0.00  0.00    +0.000 A 
ATOM      3  C   UNL     1       1.104   8.607  20.962  0.00  0.00    +0.000 A 
ATOM      4  C   UNL     1       1.380   7.248  21.223  0.00  0.00    +0.000 A 
ATOM      5  C   UNL     1       1.899   6.426  20.203  0.00  0.00    +0.000 A 
ATOM      6  C   UNL     1       2.257   7.022  18.987  0.00  0.00    +0.000 A 
ATOM      7  C   UNL     1       1.987   8.359  18.695  0.00  0.00    +0.000 A 
ATOM      8  C   UNL     1       1.377   9.107  19.694  0.00  0.00    +0.000 A 
ATOM      9  N   UNL     1       0.917  10.396  19.661  0.00  0.00    +0.000 N 
ATOM     10  H   UNL     1       0.918  10.974  18.835  0.00  0.00    +0.000 HD
ENDROOT
BRANCH   1  12
ATOM     11  O   UNL     1      -0.764  12.381  22.042  0.00  0.00    +0.000 OA
ATOM     12  C   UNL     1       0.154  12.171  21.252  0.00  0.00    +0.000 C 
ATOM     13  N   UNL     1       0.855  13.225  20.655  0.00  0.00    +0.000 N 
ATOM     14  C   UNL     1       0.336  14.588  20.808  0.00  0.00    +0.000 C 
ATOM     15  C   UNL     1       1.453  15.650  20.921  0.00  0.00    +0.000 C 
ATOM     16  N   UNL     1       2.524  15.549  19.900  0.00  0.00    +0.000 NA
ATOM     17  C   UNL     1       3.060  14.180  19.951  0.00  0.00    +0.000 C 
ATOM     18  C   UNL     1       2.006  13.081  19.759  0.00  0.00    +0.000 C 
BRANCH  16  19
ATOM     19  C   UNL     1       2.087  15.978  18.563  0.00  0.00    +0.000 C 
ATOM     20  C   UNL     1       1.500  17.393  18.589  0.00  0.00    +0.000 C 
ATOM     21  C   UNL     1       1.522  17.823  17.132  0.00  0.00    +0.000 C 
ATOM     22  C   UNL     1       2.813  17.240  16.576  0.00  0.00    +0.000 C 
ATOM     23  C   UNL     1       3.217  16.109  17.522  0.00  0.00    +0.000 C 
ENDBRANCH  16  19
ENDBRANCH   1  12
BRANCH   5  24
ATOM     24  N   UNL     1       2.071   5.045  20.453  0.00  0.00    +0.000 N 
ATOM     25  C   UNL     1       2.722   4.108  19.639  0.00  0.00    +0.000 A 
ATOM     26  N   UNL     1       2.238   2.859  19.665  0.00  0.00    +0.000 NA
ATOM     27  C   UNL     1       2.761   1.987  18.780  0.00  0.00    +0.000 A 
ATOM     28  C   UNL     1       3.742   2.311  17.876  0.00  0.00    +0.000 A 
ATOM     29  C   UNL     1       4.217   3.600  17.943  0.00  0.00    +0.000 A 
ATOM     30  N   UNL     1       3.725   4.483  18.838  0.00  0.00    +0.000 NA
ATOM     31  H   UNL     1       1.254   4.584  20.832  0.00  0.00    +0.000 HD
BRANCH  29  32
ATOM     32  C   UNL     1       5.248   4.127  17.024  0.00  0.00    +0.000 A 
ATOM     33  C   UNL     1       6.050   5.218  17.367  0.00  0.00    +0.000 A 
ATOM     34  C   UNL     1       6.977   5.707  16.447  0.00  0.00    +0.000 A 
ATOM     35  C   UNL     1       7.073   5.106  15.200  0.00  0.00    +0.000 A 
ATOM     36  C   UNL     1       6.246   4.030  14.930  0.00  0.00    +0.000 A 
ATOM     37  N   UNL     1       5.355   3.519  15.809  0.00  0.00    +0.000 NA
ENDBRANCH  29  32
ENDBRANCH   5  24
TORSDOF 4
ENDMDL
MODEL 8
REMARK VINA RESULT:      -9.1      1.654      2.109
REMARK  Name = 
REMARK  4 active torsions:
REMARK  status: ('A' for Active; 'I' for Inactive)
REMARK    1  A    between atoms: C_2  and  C_3
REMARK    2  A    between atoms: C_7  and  N_8
REMARK    3  A    between atoms: C_13  and  C_14
REMARK    4  A    between atoms: N_28  and  C_29
REMARK                            x       y       z     vdW  Elec       q    Type
REMARK                         _______ _______ _______ _____ _____    ______ ____
ROOT
ATOM      1  C   UNL     1       0.646  11.727  19.361  0.00  0.00    +0.000 A 
ATOM      2  C   UNL     1       0.620  10.909  20.481  0.00  0.00    +0.000 A 
ATOM      3  C   UNL     1       1.122   9.627  20.115  0.00  0.00    +0.000 A 
ATOM      4  C   UNL     1       1.352   8.413  20.797  0.00  0.00    +0.000 A 
ATOM      5  C   UNL     1       1.854   7.297  20.100  0.00  0.00    +0.000 A 
ATOM      6  C   UNL     1       2.243   7.467  18.765  0.00  0.00    +0.000 A 
ATOM      7  C   UNL     1       2.020   8.650  18.061  0.00  0.00    +0.000 A 
ATOM      8  C   UNL     1       1.425   9.692  18.760  0.00  0.00    +0.000 A 
ATOM      9  N   UNL     1       1.007  10.917  18.312  0.00  0.00    +0.000 N 
ATOM     10  H   UNL     1       1.035  11.203  17.346  0.00  0.00    +0.000 HD
ENDROOT
BRANCH   1  12
ATOM     11  O   UNL     1      -0.837  13.460  18.875  0.00  0.00    +0.000 OA
ATOM     12  C   UNL     1       0.286  13.125  19.244  0.00  0.00    +0.000 C 
ATOM     13  N   UNL     1       1.256  14.077  19.578  0.00  0.00    +0.000 N 
ATOM     14  C   UNL     1       0.993  15.485  19.267  0.00  0.00    +0.000 C 
ATOM     15  C   UNL     1       1.570  16.454  20.323  0.00  0.00    +0.000 C 
ATOM     16  N   UNL     1       2.979  16.200  20.709  0.00  0.00    +0.000 NA
ATOM     17  C   UNL     1       3.076  14.797  21.141  0.00  0.00    +0.000 C 
ATOM     18  C   UNL     1       2.595  13.780  20.096  0.00  0.00    +0.000 C 
BRANCH  16  19
ATOM     19  C   UNL     1       3.940  16.579  19.663  0.00  0.00    +0.000 C 
ATOM     20  C   UNL     1       5.105  17.393  20.237  0.00  0.00    +0.000 C 
ATOM     21  C   UNL     1       6.172  17.310  19.158  0.00  0.00    +0.000 C 
ATOM     22  C   UNL     1       6.059  15.896  18.609  0.00  0.00    +0.000 C 
ATOM     23  C   UNL     1       4.665  15.397  18.989  0.00  0.00    +0.000 C 
ENDBRANCH  16  19
ENDBRANCH   1  12
BRANCH   5  24
ATOM     24  N   UNL     1       1.978   6.062  20.776  0.00  0.00    +0.000 N 
ATOM     25  C   UNL     1       2.626   4.904  20.323  0.00  0.00    +0.000 A 
ATOM     26  N   UNL     1       2.105   3.736  20.721  0.00  0.00    +0.000 NA
ATOM     27  C   UNL     1       2.630   2.621  20.175  0.00  0.00    +0.000 A 
ATOM     28  C   UNL     1       3.647   2.626  19.253  0.00  0.00    +0.000 A 
ATOM     29  C   UNL     1       4.156   3.862  18.930  0.00  0.00    +0.000 A 
ATOM     30  N   UNL     1       3.663   4.990  19.483  0.00  0.00    +0.000 NA
ATOM     31  H   UNL     1       1.137   5.758  21.251  0.00  0.00    +0.000 HD
BRANCH  29  32
ATOM     32  C   UNL     1       5.229   4.055  17.932  0.00  0.00    +0.000 A 
ATOM     33  C   UNL     1       6.461   4.620  18.275  0.00  0.00    +0.000 A 
ATOM     34  C   UNL     1       7.424   4.823  17.288  0.00  0.00    +0.000 A 
ATOM     35  C   UNL     1       7.133   4.472  15.978  0.00  0.00    +0.000 A 
ATOM     36  C   UNL     1       5.893   3.918  15.711  0.00  0.00    +0.000 A 
ATOM     37  N   UNL     1       4.948   3.688  16.650  0.00  0.00    +0.000 NA
ENDBRANCH  29  32
ENDBRANCH   5  24
TORSDOF 4
ENDMDL
MODEL 9
REMARK VINA RESULT:      -9.1      2.955      4.622
REMARK  Name = 
REMARK  4 active torsions:
REMARK  status: ('A' for Active; 'I' for Inactive)
REMARK    1  A    between atoms: C_2  and  C_3
REMARK    2  A    between atoms: C_7  and  N_8
REMARK    3  A    between atoms: C_13  and  C_14
REMARK    4  A    between atoms: N_28  and  C_29
REMARK                            x       y       z     vdW  Elec       q    Type
REMARK                         _______ _______ _______ _____ _____    ______ ____
ROOT
ATOM      1  C   UNL     1      -0.222  11.952  20.841  0.00  0.00    +0.000 A 
ATOM      2  C   UNL     1      -0.092  10.954  21.796  0.00  0.00    +0.000 A 
ATOM      3  C   UNL     1       0.523   9.824  21.186  0.00  0.00    +0.000 A 
ATOM      4  C   UNL     1       0.924   8.545  21.630  0.00  0.00    +0.000 A 
ATOM      5  C   UNL     1       1.501   7.633  20.724  0.00  0.00    +0.000 A 
ATOM      6  C   UNL     1       1.789   8.078  19.427  0.00  0.00    +0.000 A 
ATOM      7  C   UNL     1       1.396   9.330  18.955  0.00  0.00    +0.000 A 
ATOM      8  C   UNL     1       0.735  10.158  19.853  0.00  0.00    +0.000 A 
ATOM      9  N   UNL     1       0.161  11.384  19.650  0.00  0.00    +0.000 N 
ATOM     10  H   UNL     1       0.099  11.835  18.750  0.00  0.00    +0.000 HD
ENDROOT
BRANCH   1  12
ATOM     11  O   UNL     1       0.013  14.269  20.959  0.00  0.00    +0.000 OA
ATOM     12  C   UNL     1      -0.738  13.296  20.991  0.00  0.00    +0.000 C 
ATOM     13  N   UNL     1      -2.119  13.449  21.161  0.00  0.00    +0.000 N 
ATOM     14  C   UNL     1      -2.638  14.770  21.528  0.00  0.00    +0.000 C 
ATOM     15  C   UNL     1      -4.012  15.077  20.890  0.00  0.00    +0.000 C 
ATOM     16  N   UNL     1      -5.023  14.000  21.022  0.00  0.00    +0.000 NA
ATOM     17  C   UNL     1      -4.430  12.765  20.484  0.00  0.00    +0.000 C 
ATOM     18  C   UNL     1      -3.103  12.363  21.141  0.00  0.00    +0.000 C 
BRANCH  16  19
ATOM     19  C   UNL     1      -5.552  13.871  22.388  0.00  0.00    +0.000 C 
ATOM     20  C   UNL     1      -6.368  15.103  22.794  0.00  0.00    +0.000 C 
ATOM     21  C   UNL     1      -7.173  14.627  23.991  0.00  0.00    +0.000 C 
ATOM     22  C   UNL     1      -7.550  13.191  23.659  0.00  0.00    +0.000 C 
ATOM     23  C   UNL     1      -6.565  12.725  22.586  0.00  0.00    +0.000 C 
ENDBRANCH  16  19
ENDBRANCH   1  12
BRANCH   5  24
ATOM     24  N   UNL     1       1.799   6.323  21.162  0.00  0.00    +0.000 N 
ATOM     25  C   UNL     1       2.311   5.265  20.398  0.00  0.00    +0.000 A 
ATOM     26  N   UNL     1       1.913   4.034  20.744  0.00  0.00    +0.000 NA
ATOM     27  C   UNL     1       2.281   3.026  19.928  0.00  0.00    +0.000 A 
ATOM     28  C   UNL     1       3.026   3.198  18.788  0.00  0.00    +0.000 A 
ATOM     29  C   UNL     1       3.431   4.486  18.526  0.00  0.00    +0.000 A 
ATOM     30  N   UNL     1       3.095   5.507  19.342  0.00  0.00    +0.000 NA
ATOM     31  H   UNL     1       1.110   5.924  21.787  0.00  0.00    +0.000 HD
BRANCH  29  32
ATOM     32  C   UNL     1       4.209   4.856  17.325  0.00  0.00    +0.000 A 
ATOM     33  C   UNL     1       4.760   3.890  16.478  0.00  0.00    +0.000 A 
ATOM     34  C   UNL     1       5.524   4.290  15.383  0.00  0.00    +0.000 A 
ATOM     35  C   UNL     1       5.736   5.643  15.165  0.00  0.00    +0.000 A 
ATOM     36  C   UNL     1       5.160   6.543  16.044  0.00  0.00    +0.000 A 
ATOM     37  N   UNL     1       4.395   6.187  17.100  0.00  0.00    +0.000 NA
ENDBRANCH  29  32
ENDBRANCH   5  24
TORSDOF 4
ENDMDL
