MODEL 1
REMARK VINA RESULT:      -8.1      0.000      0.000
REMARK  Name = 
REMARK  6 active torsions:
REMARK  status: ('A' for Active; 'I' for Inactive)
REMARK    1  A    between atoms: C_1  and  N_2
REMARK    2  A    between atoms: C_3  and  C_4
REMARK    3  A    between atoms: C_4  and  O_5
REMARK    4  A    between atoms: C_4  and  C_6
REMARK    5  A    between atoms: N_14  and  S_15
REMARK    6  A    between atoms: S_15  and  C_18
REMARK                            x       y       z     vdW  Elec       q    Type
REMARK                         _______ _______ _______ _____ _____    ______ ____
ROOT
ATOM      1  C   UNL     1       0.392  10.820  18.654  0.00  0.00    +0.000 C 
ATOM      2  O   UNL     1      -0.603  10.103  18.826  0.00  0.00    +0.000 OA
ATOM      3  N   UNL     1       0.247  12.199  18.591  0.00  0.00    +0.000 N 
ATOM      4  C   UNL     1      -1.059  12.791  18.881  0.00  0.00    +0.000 C 
ATOM      5  C   UNL     1      -0.674  14.176  19.213  0.00  0.00    +0.000 C 
ATOM      6  C   UNL     1       0.612  14.417  18.966  0.00  0.00    +0.000 C 
ATOM      7  C   UNL     1       1.314  13.210  18.467  0.00  0.00    +0.000 C 
ATOM      8  C   UNL     1       1.095  15.605  19.694  0.00  0.00    +0.000 C 
ATOM      9  N   UNL     1      -0.009  15.845  20.696  0.00  0.00    +0.000 NA
ATOM     10  C   UNL     1      -1.241  15.122  20.191  0.00  0.00    +0.000 C 
ENDROOT
BRANCH   9  11
ATOM     11  S   UNL     1       0.389  15.397  22.303  0.00  0.00    +0.000 S 
ATOM     12  O   UNL     1       1.570  14.560  22.257  0.00  0.00    +0.000 OA
ATOM     13  O   UNL     1       0.352  16.595  23.110  0.00  0.00    +0.000 OA
BRANCH  11  14
ATOM     14  C   UNL     1      -0.946  14.365  22.796  0.00  0.00    +0.000 A 
ATOM     15  C   UNL     1      -0.790  12.990  22.781  0.00  0.00    +0.000 A 
ATOM     16  N   UNL     1      -1.772  12.130  23.147  0.00  0.00    +0.000 NA
ATOM     17  C   UNL     1      -2.947  12.672  23.531  0.00  0.00    +0.000 A 
ATOM     18  C   UNL     1      -3.193  14.048  23.545  0.00  0.00    +0.000 A 
ATOM     19  C   UNL     1      -2.171  14.913  23.172  0.00  0.00    +0.000 A 
ATOM     20  O   UNL     1      -4.380  14.611  23.931  0.00  0.00    +0.000 OA
ATOM     21  C   UNL     1      -5.421  13.632  24.048  0.00  0.00    +0.000 C 
ATOM     22  C   UNL     1      -4.909  12.364  24.712  0.00  0.00    +0.000 C 
ATOM     23  O   UNL     1      -3.891  11.754  23.916  0.00  0.00    +0.000 OA
ENDBRANCH  11  14
ENDBRANCH   9  11
BRANCH   1  24
ATOM     24  C   UNL     1       1.831  10.222  18.559  0.00  0.00    +0.000 C 
BRANCH  24  27
ATOM     25  C   UNL     1       1.342   8.590  21.265  0.00  0.00    +0.000 C 
ATOM     26  N   UNL     1       1.730   8.036  19.983  0.00  0.00    +0.000 N 
ATOM     27  C   UNL     1       1.922   8.721  18.792  0.00  0.00    +0.000 A 
ATOM     28  C   UNL     1       2.174   7.750  17.831  0.00  0.00    +0.000 A 
ATOM     29  C   UNL     1       2.174   6.469  18.446  0.00  0.00    +0.000 A 
ATOM     30  C   UNL     1       2.367   5.156  17.970  0.00  0.00    +0.000 A 
ATOM     31  C   UNL     1       2.322   4.082  18.868  0.00  0.00    +0.000 A 
ATOM     32  C   UNL     1       2.097   4.301  20.221  0.00  0.00    +0.000 A 
ATOM     33  C   UNL     1       1.897   5.598  20.711  0.00  0.00    +0.000 A 
ATOM     34  C   UNL     1       1.928   6.672  19.798  0.00  0.00    +0.000 A 
ENDBRANCH  24  27
BRANCH  24  35
ATOM     35  O   UNL     1       2.543  10.480  17.359  0.00  0.00    +0.000 OA
ATOM     36  H   UNL     1       1.886  10.719  16.686  0.00  0.00    +0.000 HD
ENDBRANCH  24  35
ENDBRANCH   1  24
TORSDOF 5
ENDMDL
MODEL 2
REMARK VINA RESULT:      -8.1      1.637      2.020
REMARK  Name = 
REMARK  6 active torsions:
REMARK  status: ('A' for Active; 'I' for Inactive)
REMARK    1  A    between atoms: C_1  and  N_2
REMARK    2  A    between atoms: C_3  and  C_4
REMARK    3  A    between atoms: C_4  and  O_5
REMARK    4  A    between atoms: C_4  and  C_6
REMARK    5  A    between atoms: N_14  and  S_15
REMARK    6  A    between atoms: S_15  and  C_18
REMARK                            x       y       z     vdW  Elec       q    Type
REMARK                         _______ _______ _______ _____ _____    ______ ____
ROOT
ATOM      1  C   UNL     1       0.273  10.333  18.076  0.00  0.00    +0.000 C 
ATOM      2  O   UNL     1      -0.597   9.563  17.647  0.00  0.00    +0.000 OA
ATOM      3  N   UNL     1      -0.073  11.624  18.450  0.00  0.00    +0.000 N 
ATOM      4  C   UNL     1      -1.486  12.004  18.475  0.00  0.00    +0.000 C 
ATOM      5  C   UNL     1      -1.449  13.173  19.375  0.00  0.00    +0.000 C 
ATOM      6  C   UNL     1      -0.206  13.545  19.670  0.00  0.00    +0.000 C 
ATOM      7  C   UNL     1       0.801  12.652  19.048  0.00  0.00    +0.000 C 
ATOM      8  C   UNL     1      -0.159  14.385  20.881  0.00  0.00    +0.000 C 
ATOM      9  N   UNL     1      -1.532  14.176  21.475  0.00  0.00    +0.000 NA
ATOM     10  C   UNL     1      -2.425  13.649  20.371  0.00  0.00    +0.000 C 
ENDROOT
BRANCH   9  11
ATOM     11  S   UNL     1      -1.553  13.167  22.862  0.00  0.00    +0.000 S 
ATOM     12  O   UNL     1      -1.181  11.829  22.450  0.00  0.00    +0.000 OA
ATOM     13  O   UNL     1      -0.834  13.854  23.910  0.00  0.00    +0.000 OA
BRANCH  11  14
ATOM     14  C   UNL     1      -3.251  13.106  23.313  0.00  0.00    +0.000 A 
ATOM     15  C   UNL     1      -3.708  12.080  24.120  0.00  0.00    +0.000 A 
ATOM     16  N   UNL     1      -5.001  11.965  24.510  0.00  0.00    +0.000 NA
ATOM     17  C   UNL     1      -5.859  12.907  24.066  0.00  0.00    +0.000 A 
ATOM     18  C   UNL     1      -5.482  13.958  23.224  0.00  0.00    +0.000 A 
ATOM     19  C   UNL     1      -4.150  14.060  22.841  0.00  0.00    +0.000 A 
ATOM     20  O   UNL     1      -6.341  14.919  22.765  0.00  0.00    +0.000 OA
ATOM     21  C   UNL     1      -7.711  14.573  23.014  0.00  0.00    +0.000 C 
ATOM     22  C   UNL     1      -7.882  13.974  24.400  0.00  0.00    +0.000 C 
ATOM     23  O   UNL     1      -7.146  12.755  24.516  0.00  0.00    +0.000 OA
ENDBRANCH  11  14
ENDBRANCH   9  11
BRANCH   1  24
ATOM     24  C   UNL     1       1.754   9.880  18.264  0.00  0.00    +0.000 C 
BRANCH  24  27
ATOM     25  C   UNL     1       1.423   8.362  21.059  0.00  0.00    +0.000 C 
ATOM     26  N   UNL     1       1.817   7.767  19.797  0.00  0.00    +0.000 N 
ATOM     27  C   UNL     1       1.942   8.400  18.569  0.00  0.00    +0.000 A 
ATOM     28  C   UNL     1       2.233   7.399  17.652  0.00  0.00    +0.000 A 
ATOM     29  C   UNL     1       2.324   6.154  18.330  0.00  0.00    +0.000 A 
ATOM     30  C   UNL     1       2.588   4.832  17.915  0.00  0.00    +0.000 A 
ATOM     31  C   UNL     1       2.627   3.804  18.866  0.00  0.00    +0.000 A 
ATOM     32  C   UNL     1       2.417   4.079  20.212  0.00  0.00    +0.000 A 
ATOM     33  C   UNL     1       2.149   5.384  20.641  0.00  0.00    +0.000 A 
ATOM     34  C   UNL     1       2.095   6.410  19.676  0.00  0.00    +0.000 A 
ENDBRANCH  24  27
BRANCH  24  35
ATOM     35  O   UNL     1       2.646  10.181  17.202  0.00  0.00    +0.000 OA
ATOM     36  H   UNL     1       2.117  10.581  16.493  0.00  0.00    +0.000 HD
ENDBRANCH  24  35
ENDBRANCH   1  24
TORSDOF 5
ENDMDL
MODEL 3
REMARK VINA RESULT:      -7.9      2.745      4.375
REMARK  Name = 
REMARK  6 active torsions:
REMARK  status: ('A' for Active; 'I' for Inactive)
REMARK    1  A    between atoms: C_1  and  N_2
REMARK    2  A    between atoms: C_3  and  C_4
REMARK    3  A    between atoms: C_4  and  O_5
REMARK    4  A    between atoms: C_4  and  C_6
REMARK    5  A    between atoms: N_14  and  S_15
REMARK    6  A    between atoms: S_15  and  C_18
REMARK                            x       y       z     vdW  Elec       q    Type
REMARK                         _______ _______ _______ _____ _____    ______ ____
ROOT
ATOM      1  C   UNL     1       0.002  12.637  20.283  0.00  0.00    +0.000 C 
ATOM      2  O   UNL     1       0.827  13.506  19.972  0.00  0.00    +0.000 OA
ATOM      3  N   UNL     1      -0.552  12.635  21.556  0.00  0.00    +0.000 N 
ATOM      4  C   UNL     1      -0.265  13.751  22.459  0.00  0.00    +0.000 C 
ATOM      5  C   UNL     1      -1.386  13.640  23.411  0.00  0.00    +0.000 C 
ATOM      6  C   UNL     1      -2.100  12.532  23.227  0.00  0.00    +0.000 C 
ATOM      7  C   UNL     1      -1.596  11.735  22.082  0.00  0.00    +0.000 C 
ATOM      8  C   UNL     1      -3.436  12.633  23.842  0.00  0.00    +0.000 C 
ATOM      9  N   UNL     1      -3.551  14.111  24.129  0.00  0.00    +0.000 NA
ATOM     10  C   UNL     1      -2.148  14.682  24.123  0.00  0.00    +0.000 C 
ENDROOT
BRANCH   9  11
ATOM     11  S   UNL     1      -4.598  14.955  23.065  0.00  0.00    +0.000 S 
ATOM     12  O   UNL     1      -5.701  15.481  23.843  0.00  0.00    +0.000 OA
ATOM     13  O   UNL     1      -3.781  15.821  22.246  0.00  0.00    +0.000 OA
BRANCH  11  14
ATOM     14  C   UNL     1      -5.259  13.694  22.035  0.00  0.00    +0.000 A 
ATOM     15  C   UNL     1      -6.338  12.947  22.473  0.00  0.00    +0.000 A 
ATOM     16  N   UNL     1      -6.903  11.959  21.737  0.00  0.00    +0.000 NA
ATOM     17  C   UNL     1      -6.357  11.711  20.527  0.00  0.00    +0.000 A 
ATOM     18  C   UNL     1      -5.249  12.400  20.025  0.00  0.00    +0.000 A 
ATOM     19  C   UNL     1      -4.689  13.414  20.795  0.00  0.00    +0.000 A 
ATOM     20  O   UNL     1      -4.685  12.158  18.802  0.00  0.00    +0.000 OA
ATOM     21  C   UNL     1      -5.178  10.944  18.218  0.00  0.00    +0.000 C 
ATOM     22  C   UNL     1      -6.677  10.805  18.426  0.00  0.00    +0.000 C 
ATOM     23  O   UNL     1      -6.988  10.720  19.818  0.00  0.00    +0.000 OA
ENDBRANCH  11  14
ENDBRANCH   9  11
BRANCH   1  24
ATOM     24  C   UNL     1      -0.486  11.561  19.263  0.00  0.00    +0.000 C 
BRANCH  24  27
ATOM     25  C   UNL     1      -0.113   9.135  21.311  0.00  0.00    +0.000 C 
ATOM     26  N   UNL     1       0.577   9.310  20.049  0.00  0.00    +0.000 N 
ATOM     27  C   UNL     1       0.413  10.340  19.134  0.00  0.00    +0.000 A 
ATOM     28  C   UNL     1       1.207  10.011  18.043  0.00  0.00    +0.000 A 
ATOM     29  C   UNL     1       1.890   8.794  18.310  0.00  0.00    +0.000 A 
ATOM     30  C   UNL     1       2.803   8.005  17.580  0.00  0.00    +0.000 A 
ATOM     31  C   UNL     1       3.319   6.836  18.155  0.00  0.00    +0.000 A 
ATOM     32  C   UNL     1       2.946   6.455  19.438  0.00  0.00    +0.000 A 
ATOM     33  C   UNL     1       2.036   7.223  20.175  0.00  0.00    +0.000 A 
ATOM     34  C   UNL     1       1.509   8.389  19.584  0.00  0.00    +0.000 A 
ENDBRANCH  24  27
BRANCH  24  35
ATOM     35  O   UNL     1      -1.803  11.065  19.451  0.00  0.00    +0.000 OA
ATOM     36  H   UNL     1      -2.389  11.836  19.510  0.00  0.00    +0.000 HD
ENDBRANCH  24  35
ENDBRANCH   1  24
TORSDOF 5
ENDMDL
MODEL 4
REMARK VINA RESULT:      -7.8      2.529      5.115
REMARK  Name = 
REMARK  6 active torsions:
REMARK  status: ('A' for Active; 'I' for Inactive)
REMARK    1  A    between atoms: C_1  and  N_2
REMARK    2  A    between atoms: C_3  and  C_4
REMARK    3  A    between atoms: C_4  and  O_5
REMARK    4  A    between atoms: C_4  and  C_6
REMARK    5  A    between atoms: N_14  and  S_15
REMARK    6  A    between atoms: S_15  and  C_18
REMARK                            x       y       z     vdW  Elec       q    Type
REMARK                         _______ _______ _______ _____ _____    ______ ____
ROOT
ATOM      1  C   UNL     1       1.370   8.412  20.642  0.00  0.00    +0.000 C 
ATOM      2  O   UNL     1       1.570   7.843  21.723  0.00  0.00    +0.000 OA
ATOM      3  N   UNL     1       0.425   9.425  20.560  0.00  0.00    +0.000 N 
ATOM      4  C   UNL     1      -0.210   9.908  21.788  0.00  0.00    +0.000 C 
ATOM      5  C   UNL     1      -0.689  11.235  21.356  0.00  0.00    +0.000 C 
ATOM      6  C   UNL     1      -0.545  11.423  20.046  0.00  0.00    +0.000 C 
ATOM      7  C   UNL     1       0.103  10.262  19.389  0.00  0.00    +0.000 C 
ATOM      8  C   UNL     1      -0.590  12.854  19.691  0.00  0.00    +0.000 C 
ATOM      9  N   UNL     1      -0.436  13.527  21.033  0.00  0.00    +0.000 NA
ATOM     10  C   UNL     1      -0.792  12.506  22.094  0.00  0.00    +0.000 C 
ENDROOT
BRANCH   9  11
ATOM     11  S   UNL     1       1.109  14.223  21.298  0.00  0.00    +0.000 S 
ATOM     12  O   UNL     1       1.074  14.929  22.562  0.00  0.00    +0.000 OA
ATOM     13  O   UNL     1       2.097  13.200  21.040  0.00  0.00    +0.000 OA
BRANCH  11  14
ATOM     14  C   UNL     1       1.244  15.442  20.039  0.00  0.00    +0.000 A 
ATOM     15  C   UNL     1       2.494  15.884  19.645  0.00  0.00    +0.000 A 
ATOM     16  N   UNL     1       2.679  16.820  18.682  0.00  0.00    +0.000 NA
ATOM     17  C   UNL     1       1.570  17.331  18.106  0.00  0.00    +0.000 A 
ATOM     18  C   UNL     1       0.272  16.959  18.469  0.00  0.00    +0.000 A 
ATOM     19  C   UNL     1       0.105  15.993  19.455  0.00  0.00    +0.000 A 
ATOM     20  O   UNL     1      -0.861  17.470  17.895  0.00  0.00    +0.000 OA
ATOM     21  C   UNL     1      -0.577  18.620  17.086  0.00  0.00    +0.000 C 
ATOM     22  C   UNL     1       0.687  18.416  16.267  0.00  0.00    +0.000 C 
ATOM     23  O   UNL     1       1.820  18.252  17.121  0.00  0.00    +0.000 OA
ENDBRANCH  11  14
ENDBRANCH   9  11
BRANCH   1  24
ATOM     24  C   UNL     1       2.192   8.062  19.362  0.00  0.00    +0.000 C 
BRANCH  24  27
ATOM     25  C   UNL     1       4.241   6.632  17.367  0.00  0.00    +0.000 C 
ATOM     26  N   UNL     1       3.268   5.976  18.219  0.00  0.00    +0.000 N 
ATOM     27  C   UNL     1       2.389   6.574  19.109  0.00  0.00    +0.000 A 
ATOM     28  C   UNL     1       1.745   5.532  19.765  0.00  0.00    +0.000 A 
ATOM     29  C   UNL     1       2.206   4.294  19.245  0.00  0.00    +0.000 A 
ATOM     30  C   UNL     1       1.911   2.944  19.528  0.00  0.00    +0.000 A 
ATOM     31  C   UNL     1       2.546   1.930  18.798  0.00  0.00    +0.000 A 
ATOM     32  C   UNL     1       3.454   2.245  17.795  0.00  0.00    +0.000 A 
ATOM     33  C   UNL     1       3.764   3.579  17.505  0.00  0.00    +0.000 A 
ATOM     34  C   UNL     1       3.133   4.593  18.254  0.00  0.00    +0.000 A 
ENDBRANCH  24  27
BRANCH  24  35
ATOM     35  O   UNL     1       1.723   8.612  18.141  0.00  0.00    +0.000 OA
ATOM     36  H   UNL     1       1.355   9.486  18.348  0.00  0.00    +0.000 HD
ENDBRANCH  24  35
ENDBRANCH   1  24
TORSDOF 5
ENDMDL
MODEL 5
REMARK VINA RESULT:      -7.8      5.566      7.474
REMARK  Name = 
REMARK  6 active torsions:
REMARK  status: ('A' for Active; 'I' for Inactive)
REMARK    1  A    between atoms: C_1  and  N_2
REMARK    2  A    between atoms: C_3  and  C_4
REMARK    3  A    between atoms: C_4  and  O_5
REMARK    4  A    between atoms: C_4  and  C_6
REMARK    5  A    between atoms: N_14  and  S_15
REMARK    6  A    between atoms: S_15  and  C_18
REMARK                            x       y       z     vdW  Elec       q    Type
REMARK                         _______ _______ _______ _____ _____    ______ ____
ROOT
ATOM      1  C   UNL     1       5.932  15.408  18.789  0.00  0.00    +0.000 C 
ATOM      2  O   UNL     1       6.210  14.798  17.748  0.00  0.00    +0.000 OA
ATOM      3  N   UNL     1       4.642  15.881  18.988  0.00  0.00    +0.000 N 
ATOM      4  C   UNL     1       3.595  15.519  18.032  0.00  0.00    +0.000 C 
ATOM      5  C   UNL     1       2.383  15.746  18.840  0.00  0.00    +0.000 C 
ATOM      6  C   UNL     1       2.653  16.335  20.004  0.00  0.00    +0.000 C 
ATOM      7  C   UNL     1       4.108  16.557  20.185  0.00  0.00    +0.000 C 
ATOM      8  C   UNL     1       1.557  16.156  20.974  0.00  0.00    +0.000 C 
ATOM      9  N   UNL     1       0.728  15.069  20.333  0.00  0.00    +0.000 NA
ATOM     10  C   UNL     1       1.095  15.029  18.864  0.00  0.00    +0.000 C 
ENDROOT
BRANCH   9  11
ATOM     11  S   UNL     1       0.881  13.533  21.080  0.00  0.00    +0.000 S 
ATOM     12  O   UNL     1       2.279  13.155  21.047  0.00  0.00    +0.000 OA
ATOM     13  O   UNL     1       0.148  13.579  22.324  0.00  0.00    +0.000 OA
BRANCH  11  14
ATOM     14  C   UNL     1       0.035  12.447  19.987  0.00  0.00    +0.000 A 
ATOM     15  C   UNL     1       0.744  11.475  19.303  0.00  0.00    +0.000 A 
ATOM     16  N   UNL     1       0.163  10.602  18.445  0.00  0.00    +0.000 NA
ATOM     17  C   UNL     1      -1.170  10.717  18.265  0.00  0.00    +0.000 A 
ATOM     18  C   UNL     1      -1.952  11.690  18.895  0.00  0.00    +0.000 A 
ATOM     19  C   UNL     1      -1.336  12.572  19.776  0.00  0.00    +0.000 A 
ATOM     20  O   UNL     1      -3.303  11.819  18.722  0.00  0.00    +0.000 OA
ATOM     21  C   UNL     1      -3.776  11.034  17.619  0.00  0.00    +0.000 C 
ATOM     22  C   UNL     1      -3.116   9.665  17.597  0.00  0.00    +0.000 C 
ATOM     23  O   UNL     1      -1.705   9.789  17.408  0.00  0.00    +0.000 OA
ENDBRANCH  11  14
ENDBRANCH   9  11
BRANCH   1  24
ATOM     24  C   UNL     1       6.981  15.618  19.926  0.00  0.00    +0.000 C 
BRANCH  24  27
ATOM     25  C   UNL     1       9.500  15.981  17.990  0.00  0.00    +0.000 C 
ATOM     26  N   UNL     1       9.300  14.916  18.953  0.00  0.00    +0.000 N 
ATOM     27  C   UNL     1       8.229  14.753  19.819  0.00  0.00    +0.000 A 
ATOM     28  C   UNL     1       8.544  13.656  20.612  0.00  0.00    +0.000 A 
ATOM     29  C   UNL     1       9.795  13.124  20.201  0.00  0.00    +0.000 A 
ATOM     30  C   UNL     1      10.588  12.042  20.637  0.00  0.00    +0.000 A 
ATOM     31  C   UNL     1      11.797  11.765  19.985  0.00  0.00    +0.000 A 
ATOM     32  C   UNL     1      12.215  12.541  18.911  0.00  0.00    +0.000 A 
ATOM     33  C   UNL     1      11.443  13.622  18.468  0.00  0.00    +0.000 A 
ATOM     34  C   UNL     1      10.236  13.905  19.139  0.00  0.00    +0.000 A 
ENDBRANCH  24  27
BRANCH  24  35
ATOM     35  O   UNL     1       7.437  16.947  20.125  0.00  0.00    +0.000 OA
ATOM     36  H   UNL     1       8.101  16.914  20.833  0.00  0.00    +0.000 HD
ENDBRANCH  24  35
ENDBRANCH   1  24
TORSDOF 5
ENDMDL
MODEL 6
REMARK VINA RESULT:      -7.7      1.592      2.078
REMARK  Name = 
REMARK  6 active torsions:
REMARK  status: ('A' for Active; 'I' for Inactive)
REMARK    1  A    between atoms: C_1  and  N_2
REMARK    2  A    between atoms: C_3  and  C_4
REMARK    3  A    between atoms: C_4  and  O_5
REMARK    4  A    between atoms: C_4  and  C_6
REMARK    5  A    between atoms: N_14  and  S_15
REMARK    6  A    between atoms: S_15  and  C_18
REMARK                            x       y       z     vdW  Elec       q    Type
REMARK                         _______ _______ _______ _____ _____    ______ ____
ROOT
ATOM      1  C   UNL     1       0.602  10.153  18.248  0.00  0.00    +0.000 C 
ATOM      2  O   UNL     1      -0.301   9.431  17.805  0.00  0.00    +0.000 OA
ATOM      3  N   UNL     1       0.353  11.495  18.498  0.00  0.00    +0.000 N 
ATOM      4  C   UNL     1      -1.015  12.000  18.378  0.00  0.00    +0.000 C 
ATOM      5  C   UNL     1      -0.936  13.228  19.191  0.00  0.00    +0.000 C 
ATOM      6  C   UNL     1       0.311  13.511  19.561  0.00  0.00    +0.000 C 
ATOM      7  C   UNL     1       1.272  12.485  19.091  0.00  0.00    +0.000 C 
ATOM      8  C   UNL     1       0.344  14.437  20.709  0.00  0.00    +0.000 C 
ATOM      9  N   UNL     1      -1.084  14.398  21.199  0.00  0.00    +0.000 NA
ATOM     10  C   UNL     1      -1.936  13.867  20.066  0.00  0.00    +0.000 C 
ENDROOT
BRANCH   9  11
ATOM     11  S   UNL     1      -1.306  13.509  22.648  0.00  0.00    +0.000 S 
ATOM     12  O   UNL     1      -1.230  12.099  22.326  0.00  0.00    +0.000 OA
ATOM     13  O   UNL     1      -0.449  14.093  23.654  0.00  0.00    +0.000 OA
BRANCH  11  14
ATOM     14  C   UNL     1      -2.974  13.838  23.093  0.00  0.00    +0.000 A 
ATOM     15  C   UNL     1      -3.328  15.101  23.536  0.00  0.00    +0.000 A 
ATOM     16  N   UNL     1      -4.592  15.432  23.897  0.00  0.00    +0.000 NA
ATOM     17  C   UNL     1      -5.524  14.459  23.817  0.00  0.00    +0.000 A 
ATOM     18  C   UNL     1      -5.242  13.152  23.408  0.00  0.00    +0.000 A 
ATOM     19  C   UNL     1      -3.940  12.836  23.037  0.00  0.00    +0.000 A 
ATOM     20  O   UNL     1      -6.177  12.156  23.323  0.00  0.00    +0.000 OA
ATOM     21  C   UNL     1      -7.408  12.524  23.961  0.00  0.00    +0.000 C 
ATOM     22  C   UNL     1      -7.776  13.966  23.651  0.00  0.00    +0.000 C 
ATOM     23  O   UNL     1      -6.788  14.860  24.167  0.00  0.00    +0.000 OA
ENDBRANCH  11  14
ENDBRANCH   9  11
BRANCH   1  24
ATOM     24  C   UNL     1       2.015   9.586  18.591  0.00  0.00    +0.000 C 
BRANCH  24  27
ATOM     25  C   UNL     1       1.247   8.115  21.324  0.00  0.00    +0.000 C 
ATOM     26  N   UNL     1       1.738   7.484  20.115  0.00  0.00    +0.000 N 
ATOM     27  C   UNL     1       2.053   8.098  18.911  0.00  0.00    +0.000 A 
ATOM     28  C   UNL     1       2.370   7.071  18.031  0.00  0.00    +0.000 A 
ATOM     29  C   UNL     1       2.287   5.828  18.712  0.00  0.00    +0.000 A 
ATOM     30  C   UNL     1       2.494   4.487  18.327  0.00  0.00    +0.000 A 
ATOM     31  C   UNL     1       2.344   3.465  19.274  0.00  0.00    +0.000 A 
ATOM     32  C   UNL     1       2.002   3.763  20.587  0.00  0.00    +0.000 A 
ATOM     33  C   UNL     1       1.786   5.088  20.985  0.00  0.00    +0.000 A 
ATOM     34  C   UNL     1       1.924   6.109  20.023  0.00  0.00    +0.000 A 
ENDBRANCH  24  27
BRANCH  24  35
ATOM     35  O   UNL     1       3.035   9.809  17.630  0.00  0.00    +0.000 OA
ATOM     36  H   UNL     1       3.882   9.771  18.103  0.00  0.00    +0.000 HD
ENDBRANCH  24  35
ENDBRANCH   1  24
TORSDOF 5
ENDMDL
MODEL 7
REMARK VINA RESULT:      -7.7      3.365      5.826
REMARK  Name = 
REMARK  6 active torsions:
REMARK  status: ('A' for Active; 'I' for Inactive)
REMARK    1  A    between atoms: C_1  and  N_2
REMARK    2  A    between atoms: C_3  and  C_4
REMARK    3  A    between atoms: C_4  and  O_5
REMARK    4  A    between atoms: C_4  and  C_6
REMARK    5  A    between atoms: N_14  and  S_15
REMARK    6  A    between atoms: S_15  and  C_18
REMARK                            x       y       z     vdW  Elec       q    Type
REMARK                         _______ _______ _______ _____ _____    ______ ____
ROOT
ATOM      1  C   UNL     1      -5.500  11.356  18.683  0.00  0.00    +0.000 C 
ATOM      2  O   UNL     1      -5.926  10.195  18.633  0.00  0.00    +0.000 OA
ATOM      3  N   UNL     1      -5.969  12.221  19.662  0.00  0.00    +0.000 N 
ATOM      4  C   UNL     1      -6.847  11.702  20.711  0.00  0.00    +0.000 C 
ATOM      5  C   UNL     1      -6.679  12.729  21.756  0.00  0.00    +0.000 C 
ATOM      6  C   UNL     1      -5.983  13.780  21.325  0.00  0.00    +0.000 C 
ATOM      7  C   UNL     1      -5.529  13.605  19.925  0.00  0.00    +0.000 C 
ATOM      8  C   UNL     1      -5.437  14.570  22.444  0.00  0.00    +0.000 C 
ATOM      9  N   UNL     1      -5.618  13.638  23.619  0.00  0.00    +0.000 NA
ATOM     10  C   UNL     1      -6.659  12.611  23.225  0.00  0.00    +0.000 C 
ENDROOT
BRANCH   9  11
ATOM     11  S   UNL     1      -4.166  12.908  24.168  0.00  0.00    +0.000 S 
ATOM     12  O   UNL     1      -4.397  12.395  25.503  0.00  0.00    +0.000 OA
ATOM     13  O   UNL     1      -3.683  12.050  23.111  0.00  0.00    +0.000 OA
BRANCH  11  14
ATOM     14  C   UNL     1      -3.051  14.257  24.328  0.00  0.00    +0.000 A 
ATOM     15  C   UNL     1      -3.394  15.339  25.120  0.00  0.00    +0.000 A 
ATOM     16  N   UNL     1      -2.588  16.415  25.293  0.00  0.00    +0.000 NA
ATOM     17  C   UNL     1      -1.406  16.404  24.642  0.00  0.00    +0.000 A 
ATOM     18  C   UNL     1      -0.999  15.363  23.801  0.00  0.00    +0.000 A 
ATOM     19  C   UNL     1      -1.838  14.266  23.642  0.00  0.00    +0.000 A 
ATOM     20  O   UNL     1       0.196  15.339  23.134  0.00  0.00    +0.000 OA
ATOM     21  C   UNL     1       0.854  16.613  23.172  0.00  0.00    +0.000 C 
ATOM     22  C   UNL     1       0.744  17.246  24.549  0.00  0.00    +0.000 C 
ATOM     23  O   UNL     1      -0.622  17.505  24.878  0.00  0.00    +0.000 OA
ENDBRANCH  11  14
ENDBRANCH   9  11
BRANCH   1  24
ATOM     24  C   UNL     1      -4.397  11.871  17.706  0.00  0.00    +0.000 C 
BRANCH  24  27
ATOM     25  C   UNL     1      -2.392  12.832  20.004  0.00  0.00    +0.000 C 
ATOM     26  N   UNL     1      -2.126  11.827  18.994  0.00  0.00    +0.000 N 
ATOM     27  C   UNL     1      -2.989  11.377  18.005  0.00  0.00    +0.000 A 
ATOM     28  C   UNL     1      -2.323  10.342  17.360  0.00  0.00    +0.000 A 
ATOM     29  C   UNL     1      -1.033  10.186  17.933  0.00  0.00    +0.000 A 
ATOM     30  C   UNL     1       0.048   9.314  17.685  0.00  0.00    +0.000 A 
ATOM     31  C   UNL     1       1.223   9.439  18.438  0.00  0.00    +0.000 A 
ATOM     32  C   UNL     1       1.334  10.419  19.417  0.00  0.00    +0.000 A 
ATOM     33  C   UNL     1       0.269  11.289  19.680  0.00  0.00    +0.000 A 
ATOM     34  C   UNL     1      -0.915  11.147  18.930  0.00  0.00    +0.000 A 
ENDBRANCH  24  27
BRANCH  24  35
ATOM     35  O   UNL     1      -4.616  11.631  16.325  0.00  0.00    +0.000 OA
ATOM     36  H   UNL     1      -4.277  12.405  15.846  0.00  0.00    +0.000 HD
ENDBRANCH  24  35
ENDBRANCH   1  24
TORSDOF 5
ENDMDL
MODEL 8
REMARK VINA RESULT:      -7.6      3.379      6.358
REMARK  Name = 
REMARK  6 active torsions:
REMARK  status: ('A' for Active; 'I' for Inactive)
REMARK    1  A    between atoms: C_1  and  N_2
REMARK    2  A    between atoms: C_3  and  C_4
REMARK    3  A    between atoms: C_4  and  O_5
REMARK    4  A    between atoms: C_4  and  C_6
REMARK    5  A    between atoms: N_14  and  S_15
REMARK    6  A    between atoms: S_15  and  C_18
REMARK                            x       y       z     vdW  Elec       q    Type
REMARK                         _______ _______ _______ _____ _____    ______ ____
ROOT
ATOM      1  C   UNL     1       0.899   9.426  19.949  0.00  0.00    +0.000 C 
ATOM      2  O   UNL     1       0.341   8.854  20.894  0.00  0.00    +0.000 OA
ATOM      3  N   UNL     1       0.636  10.767  19.702  0.00  0.00    +0.000 N 
ATOM      4  C   UNL     1      -0.181  11.520  20.655  0.00  0.00    +0.000 C 
ATOM      5  C   UNL     1       0.211  12.904  20.331  0.00  0.00    +0.000 C 
ATOM      6  C   UNL     1       0.973  12.974  19.242  0.00  0.00    +0.000 C 
ATOM      7  C   UNL     1       1.256  11.631  18.679  0.00  0.00    +0.000 C 
ATOM      8  C   UNL     1       1.719  14.244  19.176  0.00  0.00    +0.000 C 
ATOM      9  N   UNL     1       1.558  14.789  20.576  0.00  0.00    +0.000 NA
ATOM     10  C   UNL     1       0.371  14.085  21.199  0.00  0.00    +0.000 C 
ENDROOT
BRANCH   9  11
ATOM     11  S   UNL     1       2.966  14.665  21.546  0.00  0.00    +0.000 S 
ATOM     12  O   UNL     1       2.738  15.410  22.767  0.00  0.00    +0.000 OA
ATOM     13  O   UNL     1       3.350  13.273  21.581  0.00  0.00    +0.000 OA
BRANCH  11  14
ATOM     14  C   UNL     1       4.185  15.545  20.634  0.00  0.00    +0.000 A 
ATOM     15  C   UNL     1       4.042  16.907  20.438  0.00  0.00    +0.000 A 
ATOM     16  N   UNL     1       4.938  17.653  19.747  0.00  0.00    +0.000 NA
ATOM     17  C   UNL     1       6.005  17.005  19.232  0.00  0.00    +0.000 A 
ATOM     18  C   UNL     1       6.205  15.627  19.360  0.00  0.00    +0.000 A 
ATOM     19  C   UNL     1       5.277  14.882  20.078  0.00  0.00    +0.000 A 
ATOM     20  O   UNL     1       7.281  14.958  18.843  0.00  0.00    +0.000 OA
ATOM     21  C   UNL     1       8.024  15.771  17.925  0.00  0.00    +0.000 C 
ATOM     22  C   UNL     1       8.169  17.192  18.445  0.00  0.00    +0.000 C 
ATOM     23  O   UNL     1       6.890  17.816  18.568  0.00  0.00    +0.000 OA
ENDBRANCH  11  14
ENDBRANCH   9  11
BRANCH   1  24
ATOM     24  C   UNL     1       1.945   8.699  19.047  0.00  0.00    +0.000 C 
BRANCH  24  27
ATOM     25  C   UNL     1       4.077   6.685  17.773  0.00  0.00    +0.000 C 
ATOM     26  N   UNL     1       3.150   6.391  18.847  0.00  0.00    +0.000 N 
ATOM     27  C   UNL     1       2.235   7.255  19.432  0.00  0.00    +0.000 A 
ATOM     28  C   UNL     1       1.660   6.548  20.480  0.00  0.00    +0.000 A 
ATOM     29  C   UNL     1       2.198   5.234  20.511  0.00  0.00    +0.000 A 
ATOM     30  C   UNL     1       1.989   4.111  21.339  0.00  0.00    +0.000 A 
ATOM     31  C   UNL     1       2.685   2.924  21.080  0.00  0.00    +0.000 A 
ATOM     32  C   UNL     1       3.571   2.841  20.013  0.00  0.00    +0.000 A 
ATOM     33  C   UNL     1       3.795   3.948  19.184  0.00  0.00    +0.000 A 
ATOM     34  C   UNL     1       3.103   5.144  19.460  0.00  0.00    +0.000 A 
ENDBRANCH  24  27
BRANCH  24  35
ATOM     35  O   UNL     1       1.679   8.691  17.653  0.00  0.00    +0.000 OA
ATOM     36  H   UNL     1       0.835   8.228  17.530  0.00  0.00    +0.000 HD
ENDBRANCH  24  35
ENDBRANCH   1  24
TORSDOF 5
ENDMDL
MODEL 9
REMARK VINA RESULT:      -7.6      2.825      4.687
REMARK  Name = 
REMARK  6 active torsions:
REMARK  status: ('A' for Active; 'I' for Inactive)
REMARK    1  A    between atoms: C_1  and  N_2
REMARK    2  A    between atoms: C_3  and  C_4
REMARK    3  A    between atoms: C_4  and  O_5
REMARK    4  A    between atoms: C_4  and  C_6
REMARK    5  A    between atoms: N_14  and  S_15
REMARK    6  A    between atoms: S_15  and  C_18
REMARK                            x       y       z     vdW  Elec       q    Type
REMARK                         _______ _______ _______ _____ _____    ______ ____
ROOT
ATOM      1  C   UNL     1      -0.120  12.789  20.652  0.00  0.00    +0.000 C 
ATOM      2  O   UNL     1       0.694  13.691  20.413  0.00  0.00    +0.000 OA
ATOM      3  N   UNL     1      -0.747  12.735  21.889  0.00  0.00    +0.000 N 
ATOM      4  C   UNL     1      -0.549  13.832  22.837  0.00  0.00    +0.000 C 
ATOM      5  C   UNL     1      -1.720  13.661  23.717  0.00  0.00    +0.000 C 
ATOM      6  C   UNL     1      -2.386  12.536  23.461  0.00  0.00    +0.000 C 
ATOM      7  C   UNL     1      -1.790  11.788  22.327  0.00  0.00    +0.000 C 
ATOM      8  C   UNL     1      -3.759  12.579  23.998  0.00  0.00    +0.000 C 
ATOM      9  N   UNL     1      -3.937  14.045  24.317  0.00  0.00    +0.000 NA
ATOM     10  C   UNL     1      -2.556  14.658  24.409  0.00  0.00    +0.000 C 
ENDROOT
BRANCH   9  11
ATOM     11  S   UNL     1      -4.947  14.887  23.215  0.00  0.00    +0.000 S 
ATOM     12  O   UNL     1      -6.092  15.387  23.947  0.00  0.00    +0.000 OA
ATOM     13  O   UNL     1      -4.105  15.774  22.445  0.00  0.00    +0.000 OA
BRANCH  11  14
ATOM     14  C   UNL     1      -5.540  13.629  22.141  0.00  0.00    +0.000 A 
ATOM     15  C   UNL     1      -6.621  12.854  22.525  0.00  0.00    +0.000 A 
ATOM     16  N   UNL     1      -7.135  11.866  21.753  0.00  0.00    +0.000 NA
ATOM     17  C   UNL     1      -6.537  11.647  20.562  0.00  0.00    +0.000 A 
ATOM     18  C   UNL     1      -5.424  12.366  20.115  0.00  0.00    +0.000 A 
ATOM     19  C   UNL     1      -4.916  13.379  20.921  0.00  0.00    +0.000 A 
ATOM     20  O   UNL     1      -4.808  12.154  18.912  0.00  0.00    +0.000 OA
ATOM     21  C   UNL     1      -5.252  10.940  18.291  0.00  0.00    +0.000 C 
ATOM     22  C   UNL     1      -6.755  10.768  18.436  0.00  0.00    +0.000 C 
ATOM     23  O   UNL     1      -7.119  10.656  19.813  0.00  0.00    +0.000 OA
ENDBRANCH  11  14
ENDBRANCH   9  11
BRANCH   1  24
ATOM     24  C   UNL     1      -0.512  11.729  19.576  0.00  0.00    +0.000 C 
BRANCH  24  27
ATOM     25  C   UNL     1       1.858  10.571  17.769  0.00  0.00    +0.000 C 
ATOM     26  N   UNL     1       1.217   9.900  18.883  0.00  0.00    +0.000 N 
ATOM     27  C   UNL     1       0.206  10.393  19.695  0.00  0.00    +0.000 A 
ATOM     28  C   UNL     1       0.007   9.432  20.679  0.00  0.00    +0.000 A 
ATOM     29  C   UNL     1       0.873   8.332  20.443  0.00  0.00    +0.000 A 
ATOM     30  C   UNL     1       1.099   7.107  21.104  0.00  0.00    +0.000 A 
ATOM     31  C   UNL     1       2.039   6.205  20.586  0.00  0.00    +0.000 A 
ATOM     32  C   UNL     1       2.740   6.505  19.425  0.00  0.00    +0.000 A 
ATOM     33  C   UNL     1       2.533   7.720  18.759  0.00  0.00    +0.000 A 
ATOM     34  C   UNL     1       1.598   8.628  19.295  0.00  0.00    +0.000 A 
ENDBRANCH  24  27
BRANCH  24  35
ATOM     35  O   UNL     1      -1.894  11.426  19.464  0.00  0.00    +0.000 OA
ATOM     36  H   UNL     1      -2.006  10.914  18.646  0.00  0.00    +0.000 HD
ENDBRANCH  24  35
ENDBRANCH   1  24
TORSDOF 5
ENDMDL
