MODEL 1
REMARK VINA RESULT:      -7.5      0.000      0.000
REMARK  Name = 
REMARK  9 active torsions:
REMARK  status: ('A' for Active; 'I' for Inactive)
REMARK    1  A    between atoms: C_1  and  C_2
REMARK    2  A    between atoms: C_2  and  C_3
REMARK    3  A    between atoms: C_3  and  C_4
REMARK    4  A    between atoms: C_4  and  C_5
REMARK    5  A    between atoms: C_5  and  C_6
REMARK    6  A    between atoms: C_7  and  C_8
REMARK    7  A    between atoms: N_11  and  C_12
REMARK    8  A    between atoms: C_12  and  C_13
REMARK    9  A    between atoms: C_20  and  O_21
REMARK                            x       y       z     vdW  Elec       q    Type
REMARK                         _______ _______ _______ _____ _____    ______ ____
ROOT
ATOM      1  C   UNL     1       7.054   6.550  17.654  0.00  0.00    +0.000 A 
ATOM      2  C   UNL     1       5.895   6.007  17.124  0.00  0.00    +0.000 A 
ATOM      3  C   UNL     1       5.163   6.552  15.936  0.00  0.00    +0.000 C 
ATOM      4  N   UNL     1       5.301   4.913  17.664  0.00  0.00    +0.000 NA
ATOM      5  C   UNL     1       5.817   4.387  18.781  0.00  0.00    +0.000 A 
ATOM      6  N   UNL     1       5.267   3.269  19.355  0.00  0.00    +0.000 N 
ATOM      7  N   UNL     1       6.886   4.880  19.400  0.00  0.00    +0.000 NA
ATOM      8  C   UNL     1       7.478   5.912  18.801  0.00  0.00    +0.000 A 
ATOM      9  H   UNL     1       4.970   3.487  20.300  0.00  0.00    +0.000 HD
ENDROOT
BRANCH   8  10
ATOM     10  O   UNL     1       8.605   6.308  19.452  0.00  0.00    +0.000 OA
ATOM     11  H   UNL     1       9.007   6.868  18.762  0.00  0.00    +0.000 HD
ENDBRANCH   8  10
BRANCH   1  12
ATOM     12  C   UNL     1       7.803   7.733  17.106  0.00  0.00    +0.000 C 
BRANCH  12  13
ATOM     13  C   UNL     1       7.508   9.044  17.847  0.00  0.00    +0.000 C 
BRANCH  13  14
ATOM     14  C   UNL     1       8.783   9.619  18.469  0.00  0.00    +0.000 C 
BRANCH  14  16
ATOM     15  C   UNL     1      10.395  11.467  17.904  0.00  0.00    +0.000 C 
ATOM     16  C   UNL     1       8.938  11.102  18.138  0.00  0.00    +0.000 C 
ENDBRANCH  14  16
ENDBRANCH  13  14
ENDBRANCH  12  13
ENDBRANCH   1  12
BRANCH   6  17
ATOM     17  C   UNL     1       4.322   2.498  18.577  0.00  0.00    +0.000 C 
BRANCH  17  18
ATOM     18  C   UNL     1       2.946   2.707  19.181  0.00  0.00    +0.000 A 
ATOM     19  C   UNL     1       2.784   2.963  20.546  0.00  0.00    +0.000 A 
ATOM     20  C   UNL     1       1.503   3.131  21.086  0.00  0.00    +0.000 A 
ATOM     21  C   UNL     1       0.383   3.049  20.258  0.00  0.00    +0.000 A 
ATOM     22  C   UNL     1       0.527   2.813  18.897  0.00  0.00    +0.000 A 
ATOM     23  C   UNL     1       1.811   2.648  18.358  0.00  0.00    +0.000 A 
ENDBRANCH  17  18
ENDBRANCH   6  17
TORSDOF 7
ENDMDL
MODEL 2
REMARK VINA RESULT:      -7.5      0.301      1.096
REMARK  Name = 
REMARK  9 active torsions:
REMARK  status: ('A' for Active; 'I' for Inactive)
REMARK    1  A    between atoms: C_1  and  C_2
REMARK    2  A    between atoms: C_2  and  C_3
REMARK    3  A    between atoms: C_3  and  C_4
REMARK    4  A    between atoms: C_4  and  C_5
REMARK    5  A    between atoms: C_5  and  C_6
REMARK    6  A    between atoms: C_7  and  C_8
REMARK    7  A    between atoms: N_11  and  C_12
REMARK    8  A    between atoms: C_12  and  C_13
REMARK    9  A    between atoms: C_20  and  O_21
REMARK                            x       y       z     vdW  Elec       q    Type
REMARK                         _______ _______ _______ _____ _____    ______ ____
ROOT
ATOM      1  C   UNL     1       7.089   6.545  17.657  0.00  0.00    +0.000 A 
ATOM      2  C   UNL     1       5.934   6.017  17.104  0.00  0.00    +0.000 A 
ATOM      3  C   UNL     1       5.232   6.573  15.902  0.00  0.00    +0.000 C 
ATOM      4  N   UNL     1       5.317   4.928  17.629  0.00  0.00    +0.000 NA
ATOM      5  C   UNL     1       5.804   4.393  18.754  0.00  0.00    +0.000 A 
ATOM      6  N   UNL     1       5.229   3.280  19.315  0.00  0.00    +0.000 N 
ATOM      7  N   UNL     1       6.866   4.872  19.396  0.00  0.00    +0.000 NA
ATOM      8  C   UNL     1       7.482   5.899  18.811  0.00  0.00    +0.000 A 
ATOM      9  H   UNL     1       4.917   3.500  20.255  0.00  0.00    +0.000 HD
ENDROOT
BRANCH   8  10
ATOM     10  O   UNL     1       8.601   6.279  19.486  0.00  0.00    +0.000 OA
ATOM     11  H   UNL     1       8.278   7.109  19.885  0.00  0.00    +0.000 HD
ENDBRANCH   8  10
BRANCH   1  12
ATOM     12  C   UNL     1       7.862   7.719  17.128  0.00  0.00    +0.000 C 
BRANCH  12  13
ATOM     13  C   UNL     1       7.576   9.030  17.873  0.00  0.00    +0.000 C 
BRANCH  13  14
ATOM     14  C   UNL     1       8.813   9.503  18.640  0.00  0.00    +0.000 C 
BRANCH  14  16
ATOM     15  C   UNL     1      10.167  11.564  19.145  0.00  0.00    +0.000 C 
ATOM     16  C   UNL     1       9.305  10.852  18.116  0.00  0.00    +0.000 C 
ENDBRANCH  14  16
ENDBRANCH  13  14
ENDBRANCH  12  13
ENDBRANCH   1  12
BRANCH   6  17
ATOM     17  C   UNL     1       4.291   2.522  18.516  0.00  0.00    +0.000 C 
BRANCH  17  18
ATOM     18  C   UNL     1       2.913   2.702  19.127  0.00  0.00    +0.000 A 
ATOM     19  C   UNL     1       1.755   2.577  18.355  0.00  0.00    +0.000 A 
ATOM     20  C   UNL     1       0.495   2.769  18.936  0.00  0.00    +0.000 A 
ATOM     21  C   UNL     1       0.394   3.082  20.291  0.00  0.00    +0.000 A 
ATOM     22  C   UNL     1       1.534   3.193  21.076  0.00  0.00    +0.000 A 
ATOM     23  C   UNL     1       2.795   2.997  20.494  0.00  0.00    +0.000 A 
ENDBRANCH  17  18
ENDBRANCH   6  17
TORSDOF 7
ENDMDL
MODEL 3
REMARK VINA RESULT:      -7.4      2.992      4.526
REMARK  Name = 
REMARK  9 active torsions:
REMARK  status: ('A' for Active; 'I' for Inactive)
REMARK    1  A    between atoms: C_1  and  C_2
REMARK    2  A    between atoms: C_2  and  C_3
REMARK    3  A    between atoms: C_3  and  C_4
REMARK    4  A    between atoms: C_4  and  C_5
REMARK    5  A    between atoms: C_5  and  C_6
REMARK    6  A    between atoms: C_7  and  C_8
REMARK    7  A    between atoms: N_11  and  C_12
REMARK    8  A    between atoms: C_12  and  C_13
REMARK    9  A    between atoms: C_20  and  O_21
REMARK                            x       y       z     vdW  Elec       q    Type
REMARK                         _______ _______ _______ _____ _____    ______ ____
ROOT
ATOM      1  C   UNL     1       6.737   5.275  16.292  0.00  0.00    +0.000 A 
ATOM      2  C   UNL     1       5.566   6.013  16.353  0.00  0.00    +0.000 A 
ATOM      3  C   UNL     1       4.997   6.805  15.215  0.00  0.00    +0.000 C 
ATOM      4  N   UNL     1       4.825   6.094  17.487  0.00  0.00    +0.000 NA
ATOM      5  C   UNL     1       5.278   5.496  18.595  0.00  0.00    +0.000 A 
ATOM      6  N   UNL     1       4.557   5.531  19.762  0.00  0.00    +0.000 N 
ATOM      7  N   UNL     1       6.424   4.824  18.651  0.00  0.00    +0.000 NA
ATOM      8  C   UNL     1       7.087   4.711  17.501  0.00  0.00    +0.000 A 
ATOM      9  H   UNL     1       5.110   5.975  20.487  0.00  0.00    +0.000 HD
ENDROOT
BRANCH   8  10
ATOM     10  O   UNL     1       8.205   3.945  17.625  0.00  0.00    +0.000 OA
ATOM     11  H   UNL     1       8.024   3.528  18.488  0.00  0.00    +0.000 HD
ENDBRANCH   8  10
BRANCH   1  12
ATOM     12  C   UNL     1       7.602   5.094  15.076  0.00  0.00    +0.000 C 
BRANCH  12  13
ATOM     13  C   UNL     1       6.808   4.974  13.769  0.00  0.00    +0.000 C 
BRANCH  13  14
ATOM     14  C   UNL     1       6.140   3.601  13.660  0.00  0.00    +0.000 C 
BRANCH  14  16
ATOM     15  C   UNL     1       4.580   3.314  11.706  0.00  0.00    +0.000 C 
ATOM     16  C   UNL     1       6.009   3.165  12.202  0.00  0.00    +0.000 C 
ENDBRANCH  14  16
ENDBRANCH  13  14
ENDBRANCH  12  13
ENDBRANCH   1  12
BRANCH   6  17
ATOM     17  C   UNL     1       3.175   5.955  19.697  0.00  0.00    +0.000 C 
BRANCH  17  18
ATOM     18  C   UNL     1       2.312   4.708  19.660  0.00  0.00    +0.000 A 
ATOM     19  C   UNL     1       1.871   4.166  18.449  0.00  0.00    +0.000 A 
ATOM     20  C   UNL     1       1.056   3.027  18.440  0.00  0.00    +0.000 A 
ATOM     21  C   UNL     1       0.686   2.426  19.643  0.00  0.00    +0.000 A 
ATOM     22  C   UNL     1       1.131   2.941  20.854  0.00  0.00    +0.000 A 
ATOM     23  C   UNL     1       1.949   4.080  20.862  0.00  0.00    +0.000 A 
ENDBRANCH  17  18
ENDBRANCH   6  17
TORSDOF 7
ENDMDL
MODEL 4
REMARK VINA RESULT:      -7.3      3.212      7.256
REMARK  Name = 
REMARK  9 active torsions:
REMARK  status: ('A' for Active; 'I' for Inactive)
REMARK    1  A    between atoms: C_1  and  C_2
REMARK    2  A    between atoms: C_2  and  C_3
REMARK    3  A    between atoms: C_3  and  C_4
REMARK    4  A    between atoms: C_4  and  C_5
REMARK    5  A    between atoms: C_5  and  C_6
REMARK    6  A    between atoms: C_7  and  C_8
REMARK    7  A    between atoms: N_11  and  C_12
REMARK    8  A    between atoms: C_12  and  C_13
REMARK    9  A    between atoms: C_20  and  O_21
REMARK                            x       y       z     vdW  Elec       q    Type
REMARK                         _______ _______ _______ _____ _____    ______ ____
ROOT
ATOM      1  C   UNL     1       3.575   4.691  19.716  0.00  0.00    +0.000 A 
ATOM      2  C   UNL     1       3.667   5.565  18.645  0.00  0.00    +0.000 A 
ATOM      3  C   UNL     1       2.735   6.712  18.397  0.00  0.00    +0.000 C 
ATOM      4  N   UNL     1       4.628   5.440  17.694  0.00  0.00    +0.000 NA
ATOM      5  C   UNL     1       5.468   4.401  17.763  0.00  0.00    +0.000 A 
ATOM      6  N   UNL     1       6.470   4.240  16.838  0.00  0.00    +0.000 N 
ATOM      7  N   UNL     1       5.414   3.473  18.714  0.00  0.00    +0.000 NA
ATOM      8  C   UNL     1       4.500   3.670  19.664  0.00  0.00    +0.000 A 
ATOM      9  H   UNL     1       6.350   3.353  16.362  0.00  0.00    +0.000 HD
ENDROOT
BRANCH   8  10
ATOM     10  O   UNL     1       4.561   2.722  20.639  0.00  0.00    +0.000 OA
ATOM     11  H   UNL     1       4.218   1.955  20.144  0.00  0.00    +0.000 HD
ENDBRANCH   8  10
BRANCH   1  12
ATOM     12  C   UNL     1       2.573   4.770  20.833  0.00  0.00    +0.000 C 
BRANCH  12  13
ATOM     13  C   UNL     1       1.159   4.340  20.422  0.00  0.00    +0.000 C 
BRANCH  13  14
ATOM     14  C   UNL     1       1.095   2.830  20.182  0.00  0.00    +0.000 C 
BRANCH  14  16
ATOM     15  C   UNL     1       2.026   1.979  18.005  0.00  0.00    +0.000 C 
ATOM     16  C   UNL     1       0.796   2.515  18.717  0.00  0.00    +0.000 C 
ENDBRANCH  14  16
ENDBRANCH  13  14
ENDBRANCH  12  13
ENDBRANCH   1  12
BRANCH   6  17
ATOM     17  C   UNL     1       6.793   5.360  15.981  0.00  0.00    +0.000 C 
BRANCH  17  18
ATOM     18  C   UNL     1       6.784   4.862  14.548  0.00  0.00    +0.000 A 
ATOM     19  C   UNL     1       5.871   3.894  14.121  0.00  0.00    +0.000 A 
ATOM     20  C   UNL     1       5.896   3.433  12.799  0.00  0.00    +0.000 A 
ATOM     21  C   UNL     1       6.833   3.946  11.901  0.00  0.00    +0.000 A 
ATOM     22  C   UNL     1       7.736   4.921  12.305  0.00  0.00    +0.000 A 
ATOM     23  C   UNL     1       7.708   5.383  13.628  0.00  0.00    +0.000 A 
ENDBRANCH  17  18
ENDBRANCH   6  17
TORSDOF 7
ENDMDL
MODEL 5
REMARK VINA RESULT:      -7.3      3.047      4.459
REMARK  Name = 
REMARK  9 active torsions:
REMARK  status: ('A' for Active; 'I' for Inactive)
REMARK    1  A    between atoms: C_1  and  C_2
REMARK    2  A    between atoms: C_2  and  C_3
REMARK    3  A    between atoms: C_3  and  C_4
REMARK    4  A    between atoms: C_4  and  C_5
REMARK    5  A    between atoms: C_5  and  C_6
REMARK    6  A    between atoms: C_7  and  C_8
REMARK    7  A    between atoms: N_11  and  C_12
REMARK    8  A    between atoms: C_12  and  C_13
REMARK    9  A    between atoms: C_20  and  O_21
REMARK                            x       y       z     vdW  Elec       q    Type
REMARK                         _______ _______ _______ _____ _____    ______ ____
ROOT
ATOM      1  C   UNL     1       6.538   5.246  16.300  0.00  0.00    +0.000 A 
ATOM      2  C   UNL     1       5.361   5.971  16.381  0.00  0.00    +0.000 A 
ATOM      3  C   UNL     1       4.733   6.708  15.237  0.00  0.00    +0.000 C 
ATOM      4  N   UNL     1       4.667   6.089  17.541  0.00  0.00    +0.000 NA
ATOM      5  C   UNL     1       5.174   5.543  18.652  0.00  0.00    +0.000 A 
ATOM      6  N   UNL     1       4.502   5.617  19.846  0.00  0.00    +0.000 N 
ATOM      7  N   UNL     1       6.331   4.888  18.687  0.00  0.00    +0.000 NA
ATOM      8  C   UNL     1       6.947   4.736  17.515  0.00  0.00    +0.000 A 
ATOM      9  H   UNL     1       5.079   6.097  20.528  0.00  0.00    +0.000 HD
ENDROOT
BRANCH   8  10
ATOM     10  O   UNL     1       8.079   3.990  17.622  0.00  0.00    +0.000 OA
ATOM     11  H   UNL     1       8.748   4.680  17.453  0.00  0.00    +0.000 HD
ENDBRANCH   8  10
BRANCH   1  12
ATOM     12  C   UNL     1       7.354   5.027  15.057  0.00  0.00    +0.000 C 
BRANCH  12  13
ATOM     13  C   UNL     1       6.785   3.945  14.130  0.00  0.00    +0.000 C 
BRANCH  13  14
ATOM     14  C   UNL     1       6.907   4.363  12.663  0.00  0.00    +0.000 C 
BRANCH  14  16
ATOM     15  C   UNL     1       4.864   3.192  11.774  0.00  0.00    +0.000 C 
ATOM     16  C   UNL     1       6.381   3.271  11.732  0.00  0.00    +0.000 C 
ENDBRANCH  14  16
ENDBRANCH  13  14
ENDBRANCH  12  13
ENDBRANCH   1  12
BRANCH   6  17
ATOM     17  C   UNL     1       3.113   6.020  19.823  0.00  0.00    +0.000 C 
BRANCH  17  18
ATOM     18  C   UNL     1       2.267   4.760  19.819  0.00  0.00    +0.000 A 
ATOM     19  C   UNL     1       1.973   4.080  21.004  0.00  0.00    +0.000 A 
ATOM     20  C   UNL     1       1.208   2.907  20.974  0.00  0.00    +0.000 A 
ATOM     21  C   UNL     1       0.733   2.417  19.758  0.00  0.00    +0.000 A 
ATOM     22  C   UNL     1       1.001   3.091  18.573  0.00  0.00    +0.000 A 
ATOM     23  C   UNL     1       1.764   4.267  18.605  0.00  0.00    +0.000 A 
ENDBRANCH  17  18
ENDBRANCH   6  17
TORSDOF 7
ENDMDL
MODEL 6
REMARK VINA RESULT:      -7.2      3.233      7.251
REMARK  Name = 
REMARK  9 active torsions:
REMARK  status: ('A' for Active; 'I' for Inactive)
REMARK    1  A    between atoms: C_1  and  C_2
REMARK    2  A    between atoms: C_2  and  C_3
REMARK    3  A    between atoms: C_3  and  C_4
REMARK    4  A    between atoms: C_4  and  C_5
REMARK    5  A    between atoms: C_5  and  C_6
REMARK    6  A    between atoms: C_7  and  C_8
REMARK    7  A    between atoms: N_11  and  C_12
REMARK    8  A    between atoms: C_12  and  C_13
REMARK    9  A    between atoms: C_20  and  O_21
REMARK                            x       y       z     vdW  Elec       q    Type
REMARK                         _______ _______ _______ _____ _____    ______ ____
ROOT
ATOM      1  C   UNL     1       3.686   4.886  19.572  0.00  0.00    +0.000 A 
ATOM      2  C   UNL     1       3.831   5.738  18.490  0.00  0.00    +0.000 A 
ATOM      3  C   UNL     1       2.968   6.935  18.225  0.00  0.00    +0.000 C 
ATOM      4  N   UNL     1       4.785   5.545  17.545  0.00  0.00    +0.000 NA
ATOM      5  C   UNL     1       5.563   4.460  17.629  0.00  0.00    +0.000 A 
ATOM      6  N   UNL     1       6.556   4.229  16.710  0.00  0.00    +0.000 N 
ATOM      7  N   UNL     1       5.453   3.549  18.592  0.00  0.00    +0.000 NA
ATOM      8  C   UNL     1       4.550   3.811  19.537  0.00  0.00    +0.000 A 
ATOM      9  H   UNL     1       6.385   3.344  16.245  0.00  0.00    +0.000 HD
ENDROOT
BRANCH   8  10
ATOM     10  O   UNL     1       4.553   2.876  20.524  0.00  0.00    +0.000 OA
ATOM     11  H   UNL     1       5.469   2.976  20.844  0.00  0.00    +0.000 HD
ENDBRANCH   8  10
BRANCH   1  12
ATOM     12  C   UNL     1       2.688   5.038  20.686  0.00  0.00    +0.000 C 
BRANCH  12  13
ATOM     13  C   UNL     1       1.300   4.477  20.348  0.00  0.00    +0.000 C 
BRANCH  13  14
ATOM     14  C   UNL     1       1.136   3.058  20.898  0.00  0.00    +0.000 C 
BRANCH  14  16
ATOM     15  C   UNL     1       1.065   2.645  18.417  0.00  0.00    +0.000 C 
ATOM     16  C   UNL     1       1.260   2.017  19.787  0.00  0.00    +0.000 C 
ENDBRANCH  14  16
ENDBRANCH  13  14
ENDBRANCH  12  13
ENDBRANCH   1  12
BRANCH   6  17
ATOM     17  C   UNL     1       6.945   5.316  15.839  0.00  0.00    +0.000 C 
BRANCH  17  18
ATOM     18  C   UNL     1       6.875   4.811  14.410  0.00  0.00    +0.000 A 
ATOM     19  C   UNL     1       7.749   5.287  13.428  0.00  0.00    +0.000 A 
ATOM     20  C   UNL     1       7.651   4.823  12.111  0.00  0.00    +0.000 A 
ATOM     21  C   UNL     1       6.682   3.877  11.776  0.00  0.00    +0.000 A 
ATOM     22  C   UNL     1       5.818   3.380  12.743  0.00  0.00    +0.000 A 
ATOM     23  C   UNL     1       5.918   3.844  14.063  0.00  0.00    +0.000 A 
ENDBRANCH  17  18
ENDBRANCH   6  17
TORSDOF 7
ENDMDL
MODEL 7
REMARK VINA RESULT:      -7.2      1.825      8.149
REMARK  Name = 
REMARK  9 active torsions:
REMARK  status: ('A' for Active; 'I' for Inactive)
REMARK    1  A    between atoms: C_1  and  C_2
REMARK    2  A    between atoms: C_2  and  C_3
REMARK    3  A    between atoms: C_3  and  C_4
REMARK    4  A    between atoms: C_4  and  C_5
REMARK    5  A    between atoms: C_5  and  C_6
REMARK    6  A    between atoms: C_7  and  C_8
REMARK    7  A    between atoms: N_11  and  C_12
REMARK    8  A    between atoms: C_12  and  C_13
REMARK    9  A    between atoms: C_20  and  O_21
REMARK                            x       y       z     vdW  Elec       q    Type
REMARK                         _______ _______ _______ _____ _____    ______ ____
ROOT
ATOM      1  C   UNL     1       5.645   5.240  17.158  0.00  0.00    +0.000 A 
ATOM      2  C   UNL     1       5.777   6.433  16.465  0.00  0.00    +0.000 A 
ATOM      3  C   UNL     1       5.004   6.793  15.233  0.00  0.00    +0.000 C 
ATOM      4  N   UNL     1       6.653   7.395  16.849  0.00  0.00    +0.000 NA
ATOM      5  C   UNL     1       7.460   7.152  17.889  0.00  0.00    +0.000 A 
ATOM      6  N   UNL     1       8.350   8.099  18.330  0.00  0.00    +0.000 N 
ATOM      7  N   UNL     1       7.454   6.011  18.572  0.00  0.00    +0.000 NA
ATOM      8  C   UNL     1       6.533   5.120  18.206  0.00  0.00    +0.000 A 
ATOM      9  H   UNL     1       9.292   7.729  18.270  0.00  0.00    +0.000 HD
ENDROOT
BRANCH   8  10
ATOM     10  O   UNL     1       6.541   4.016  19.001  0.00  0.00    +0.000 OA
ATOM     11  H   UNL     1       7.098   4.343  19.732  0.00  0.00    +0.000 HD
ENDBRANCH   8  10
BRANCH   1  12
ATOM     12  C   UNL     1       4.680   4.135  16.833  0.00  0.00    +0.000 C 
BRANCH  12  13
ATOM     13  C   UNL     1       3.276   4.355  17.413  0.00  0.00    +0.000 C 
BRANCH  13  14
ATOM     14  C   UNL     1       2.536   3.024  17.571  0.00  0.00    +0.000 C 
BRANCH  14  16
ATOM     15  C   UNL     1       3.505   2.364  19.798  0.00  0.00    +0.000 C 
ATOM     16  C   UNL     1       3.388   2.005  18.326  0.00  0.00    +0.000 C 
ENDBRANCH  14  16
ENDBRANCH  13  14
ENDBRANCH  12  13
ENDBRANCH   1  12
BRANCH   6  17
ATOM     17  C   UNL     1       8.190   9.456  17.856  0.00  0.00    +0.000 C 
BRANCH  17  18
ATOM     18  C   UNL     1       9.211  10.319  18.575  0.00  0.00    +0.000 A 
ATOM     19  C   UNL     1       9.218  10.425  19.969  0.00  0.00    +0.000 A 
ATOM     20  C   UNL     1      10.155  11.245  20.610  0.00  0.00    +0.000 A 
ATOM     21  C   UNL     1      11.090  11.955  19.856  0.00  0.00    +0.000 A 
ATOM     22  C   UNL     1      11.108  11.846  18.471  0.00  0.00    +0.000 A 
ATOM     23  C   UNL     1      10.170  11.023  17.831  0.00  0.00    +0.000 A 
ENDBRANCH  17  18
ENDBRANCH   6  17
TORSDOF 7
ENDMDL
MODEL 8
REMARK VINA RESULT:      -7.1      1.842      8.273
REMARK  Name = 
REMARK  9 active torsions:
REMARK  status: ('A' for Active; 'I' for Inactive)
REMARK    1  A    between atoms: C_1  and  C_2
REMARK    2  A    between atoms: C_2  and  C_3
REMARK    3  A    between atoms: C_3  and  C_4
REMARK    4  A    between atoms: C_4  and  C_5
REMARK    5  A    between atoms: C_5  and  C_6
REMARK    6  A    between atoms: C_7  and  C_8
REMARK    7  A    between atoms: N_11  and  C_12
REMARK    8  A    between atoms: C_12  and  C_13
REMARK    9  A    between atoms: C_20  and  O_21
REMARK                            x       y       z     vdW  Elec       q    Type
REMARK                         _______ _______ _______ _____ _____    ______ ____
ROOT
ATOM      1  C   UNL     1       5.811   5.319  17.359  0.00  0.00    +0.000 A 
ATOM      2  C   UNL     1       5.864   6.516  16.664  0.00  0.00    +0.000 A 
ATOM      3  C   UNL     1       5.009   6.855  15.482  0.00  0.00    +0.000 C 
ATOM      4  N   UNL     1       6.733   7.504  16.998  0.00  0.00    +0.000 NA
ATOM      5  C   UNL     1       7.607   7.284  17.987  0.00  0.00    +0.000 A 
ATOM      6  N   UNL     1       8.493   8.257  18.376  0.00  0.00    +0.000 N 
ATOM      7  N   UNL     1       7.678   6.142  18.665  0.00  0.00    +0.000 NA
ATOM      8  C   UNL     1       6.764   5.224  18.352  0.00  0.00    +0.000 A 
ATOM      9  H   UNL     1       9.441   7.916  18.259  0.00  0.00    +0.000 HD
ENDROOT
BRANCH   8  10
ATOM     10  O   UNL     1       6.853   4.120  19.141  0.00  0.00    +0.000 OA
ATOM     11  H   UNL     1       7.213   4.525  19.952  0.00  0.00    +0.000 HD
ENDBRANCH   8  10
BRANCH   1  12
ATOM     12  C   UNL     1       4.862   4.185  17.090  0.00  0.00    +0.000 C 
BRANCH  12  13
ATOM     13  C   UNL     1       3.777   4.023  18.163  0.00  0.00    +0.000 C 
BRANCH  13  14
ATOM     14  C   UNL     1       2.539   4.854  17.819  0.00  0.00    +0.000 C 
BRANCH  14  16
ATOM     15  C   UNL     1       1.559   2.606  18.381  0.00  0.00    +0.000 C 
ATOM     16  C   UNL     1       1.275   3.996  17.838  0.00  0.00    +0.000 C 
ENDBRANCH  14  16
ENDBRANCH  13  14
ENDBRANCH  12  13
ENDBRANCH   1  12
BRANCH   6  17
ATOM     17  C   UNL     1       8.265   9.610  17.918  0.00  0.00    +0.000 C 
BRANCH  17  18
ATOM     18  C   UNL     1       9.309  10.500  18.566  0.00  0.00    +0.000 A 
ATOM     19  C   UNL     1      10.241  11.202  17.798  0.00  0.00    +0.000 A 
ATOM     20  C   UNL     1      11.210  12.000  18.419  0.00  0.00    +0.000 A 
ATOM     21  C   UNL     1      11.242  12.100  19.810  0.00  0.00    +0.000 A 
ATOM     22  C   UNL     1      10.311  11.423  20.587  0.00  0.00    +0.000 A 
ATOM     23  C   UNL     1       9.340  10.626  19.964  0.00  0.00    +0.000 A 
ENDBRANCH  17  18
ENDBRANCH   6  17
TORSDOF 7
ENDMDL
MODEL 9
REMARK VINA RESULT:      -7.1      2.227      7.769
REMARK  Name = 
REMARK  9 active torsions:
REMARK  status: ('A' for Active; 'I' for Inactive)
REMARK    1  A    between atoms: C_1  and  C_2
REMARK    2  A    between atoms: C_2  and  C_3
REMARK    3  A    between atoms: C_3  and  C_4
REMARK    4  A    between atoms: C_4  and  C_5
REMARK    5  A    between atoms: C_5  and  C_6
REMARK    6  A    between atoms: C_7  and  C_8
REMARK    7  A    between atoms: N_11  and  C_12
REMARK    8  A    between atoms: C_12  and  C_13
REMARK    9  A    between atoms: C_20  and  O_21
REMARK                            x       y       z     vdW  Elec       q    Type
REMARK                         _______ _______ _______ _____ _____    ______ ____
ROOT
ATOM      1  C   UNL     1       5.632   5.264  17.206  0.00  0.00    +0.000 A 
ATOM      2  C   UNL     1       5.739   6.460  16.516  0.00  0.00    +0.000 A 
ATOM      3  C   UNL     1       4.925   6.825  15.311  0.00  0.00    +0.000 C 
ATOM      4  N   UNL     1       6.626   7.422  16.875  0.00  0.00    +0.000 NA
ATOM      5  C   UNL     1       7.467   7.175  17.886  0.00  0.00    +0.000 A 
ATOM      6  N   UNL     1       8.369   8.122  18.302  0.00  0.00    +0.000 N 
ATOM      7  N   UNL     1       7.486   6.031  18.564  0.00  0.00    +0.000 NA
ATOM      8  C   UNL     1       6.555   5.140  18.224  0.00  0.00    +0.000 A 
ATOM      9  H   UNL     1       9.310   7.754  18.209  0.00  0.00    +0.000 HD
ENDROOT
BRANCH   8  10
ATOM     10  O   UNL     1       6.591   4.032  19.013  0.00  0.00    +0.000 OA
ATOM     11  H   UNL     1       7.305   3.537  18.569  0.00  0.00    +0.000 HD
ENDBRANCH   8  10
BRANCH   1  12
ATOM     12  C   UNL     1       4.658   4.158  16.908  0.00  0.00    +0.000 C 
BRANCH  12  13
ATOM     13  C   UNL     1       3.490   4.084  17.901  0.00  0.00    +0.000 C 
BRANCH  13  14
ATOM     14  C   UNL     1       2.575   5.303  17.759  0.00  0.00    +0.000 C 
BRANCH  14  16
ATOM     15  C   UNL     1       2.319   7.684  18.531  0.00  0.00    +0.000 C 
ATOM     16  C   UNL     1       2.784   6.288  18.908  0.00  0.00    +0.000 C 
ENDBRANCH  14  16
ENDBRANCH  13  14
ENDBRANCH  12  13
ENDBRANCH   1  12
BRANCH   6  17
ATOM     17  C   UNL     1       8.192   9.481  17.841  0.00  0.00    +0.000 C 
BRANCH  17  18
ATOM     18  C   UNL     1       9.213  10.348  18.555  0.00  0.00    +0.000 A 
ATOM     19  C   UNL     1       9.209  10.476  19.947  0.00  0.00    +0.000 A 
ATOM     20  C   UNL     1      10.147  11.299  20.583  0.00  0.00    +0.000 A 
ATOM     21  C   UNL     1      11.093  11.990  19.826  0.00  0.00    +0.000 A 
ATOM     22  C   UNL     1      11.122  11.860  18.443  0.00  0.00    +0.000 A 
ATOM     23  C   UNL     1      10.184  11.033  17.808  0.00  0.00    +0.000 A 
ENDBRANCH  17  18
ENDBRANCH   6  17
TORSDOF 7
ENDMDL
