MODEL 1
REMARK VINA RESULT:      -6.8      0.000      0.000
REMARK  Name = 
REMARK  5 active torsions:
REMARK  status: ('A' for Active; 'I' for Inactive)
REMARK    1  A    between atoms: C_2  and  C_3
REMARK    2  A    between atoms: C_3  and  S_4
REMARK    3  A    between atoms: S_4  and  C_5
REMARK    4  A    between atoms: C_5  and  C_6
REMARK    5  A    between atoms: N_14  and  C_15
REMARK                            x       y       z     vdW  Elec       q    Type
REMARK                         _______ _______ _______ _____ _____    ______ ____
ROOT
ATOM      1  C   UNL     1       2.631   4.055  21.461  0.00  0.00    +0.000 C 
ENDROOT
BRANCH   1   3
ATOM      2  O   UNL     1       0.693   4.867  20.337  0.00  0.00    +0.000 OA
ATOM      3  C   UNL     1       1.866   5.085  20.649  0.00  0.00    +0.000 C 
ATOM      4  N   UNL     1       2.588   6.230  20.371  0.00  0.00    +0.000 N 
ATOM      5  H   UNL     1       3.582   6.220  20.589  0.00  0.00    +0.000 HD
BRANCH   4   6
ATOM      6  C   UNL     1       2.102   7.418  19.789  0.00  0.00    +0.000 A 
ATOM      7  C   UNL     1       1.362   8.368  20.495  0.00  0.00    +0.000 A 
ATOM      8  C   UNL     1       0.916   9.533  19.866  0.00  0.00    +0.000 A 
ATOM      9  C   UNL     1       1.197   9.754  18.521  0.00  0.00    +0.000 A 
ATOM     10  C   UNL     1       1.940   8.818  17.808  0.00  0.00    +0.000 A 
ATOM     11  C   UNL     1       2.401   7.660  18.442  0.00  0.00    +0.000 A 
ENDBRANCH   4   6
ENDBRANCH   1   3
BRANCH   1  12
ATOM     12  S   UNL     1       2.536   2.429  20.644  0.00  0.00    +0.000 S 
BRANCH  12  13
ATOM     13  C   UNL     1       4.219   2.311  19.931  0.00  0.00    +0.000 C 
BRANCH  13  14
ATOM     14  C   UNL     1       4.522   3.472  18.994  0.00  0.00    +0.000 C 
ATOM     15  O   UNL     1       3.801   3.692  18.026  0.00  0.00    +0.000 OA
ATOM     16  N   UNL     1       5.656   4.177  19.346  0.00  0.00    +0.000 N 
ATOM     17  C   UNL     1       6.064   5.265  18.623  0.00  0.00    +0.000 A 
ATOM     18  N   UNL     1       5.424   5.920  17.688  0.00  0.00    +0.000 NA
ATOM     19  C   UNL     1       6.242   6.897  17.164  0.00  0.00    +0.000 A 
ATOM     20  C   UNL     1       7.496   6.984  17.730  0.00  0.00    +0.000 A 
ATOM     21  S   UNL     1       7.636   5.824  18.991  0.00  0.00    +0.000 S 
ATOM     22  H   UNL     1       6.319   3.794  20.016  0.00  0.00    +0.000 HD
ENDBRANCH  13  14
ENDBRANCH  12  13
ENDBRANCH   1  12
TORSDOF 5
ENDMDL
MODEL 2
REMARK VINA RESULT:      -6.8      1.354      1.753
REMARK  Name = 
REMARK  5 active torsions:
REMARK  status: ('A' for Active; 'I' for Inactive)
REMARK    1  A    between atoms: C_2  and  C_3
REMARK    2  A    between atoms: C_3  and  S_4
REMARK    3  A    between atoms: S_4  and  C_5
REMARK    4  A    between atoms: C_5  and  C_6
REMARK    5  A    between atoms: N_14  and  C_15
REMARK                            x       y       z     vdW  Elec       q    Type
REMARK                         _______ _______ _______ _____ _____    ______ ____
ROOT
ATOM      1  C   UNL     1       2.299   3.114  21.503  0.00  0.00    +0.000 C 
ENDROOT
BRANCH   1   3
ATOM      2  O   UNL     1       0.590   4.134  20.193  0.00  0.00    +0.000 OA
ATOM      3  C   UNL     1       1.736   4.227  20.639  0.00  0.00    +0.000 C 
ATOM      4  N   UNL     1       2.595   5.297  20.473  0.00  0.00    +0.000 N 
ATOM      5  H   UNL     1       3.552   5.183  20.799  0.00  0.00    +0.000 HD
BRANCH   4   6
ATOM      6  C   UNL     1       2.298   6.536  19.871  0.00  0.00    +0.000 A 
ATOM      7  C   UNL     1       2.562   6.817  18.528  0.00  0.00    +0.000 A 
ATOM      8  C   UNL     1       2.234   8.062  17.984  0.00  0.00    +0.000 A 
ATOM      9  C   UNL     1       1.648   9.041  18.781  0.00  0.00    +0.000 A 
ATOM     10  C   UNL     1       1.373   8.771  20.118  0.00  0.00    +0.000 A 
ATOM     11  C   UNL     1       1.686   7.520  20.658  0.00  0.00    +0.000 A 
ENDBRANCH   4   6
ENDBRANCH   1   3
BRANCH   1  12
ATOM     12  S   UNL     1       3.819   2.452  20.748  0.00  0.00    +0.000 S 
BRANCH  12  13
ATOM     13  C   UNL     1       3.183   1.929  19.111  0.00  0.00    +0.000 C 
BRANCH  13  14
ATOM     14  C   UNL     1       3.580   2.901  18.009  0.00  0.00    +0.000 C 
ATOM     15  O   UNL     1       2.806   3.143  17.088  0.00  0.00    +0.000 OA
ATOM     16  N   UNL     1       4.852   3.415  18.164  0.00  0.00    +0.000 N 
ATOM     17  C   UNL     1       5.362   4.318  17.272  0.00  0.00    +0.000 A 
ATOM     18  N   UNL     1       4.747   4.974  16.321  0.00  0.00    +0.000 NA
ATOM     19  C   UNL     1       5.662   5.715  15.604  0.00  0.00    +0.000 A 
ATOM     20  C   UNL     1       6.966   5.628  16.041  0.00  0.00    +0.000 A 
ATOM     21  S   UNL     1       7.039   4.609  17.424  0.00  0.00    +0.000 S 
ATOM     22  H   UNL     1       5.507   2.991  18.817  0.00  0.00    +0.000 HD
ENDBRANCH  13  14
ENDBRANCH  12  13
ENDBRANCH   1  12
TORSDOF 5
ENDMDL
MODEL 3
REMARK VINA RESULT:      -6.7      1.244      1.286
REMARK  Name = 
REMARK  5 active torsions:
REMARK  status: ('A' for Active; 'I' for Inactive)
REMARK    1  A    between atoms: C_2  and  C_3
REMARK    2  A    between atoms: C_3  and  S_4
REMARK    3  A    between atoms: S_4  and  C_5
REMARK    4  A    between atoms: C_5  and  C_6
REMARK    5  A    between atoms: N_14  and  C_15
REMARK                            x       y       z     vdW  Elec       q    Type
REMARK                         _______ _______ _______ _____ _____    ______ ____
ROOT
ATOM      1  C   UNL     1       2.320   4.252  21.501  0.00  0.00    +0.000 C 
ENDROOT
BRANCH   1   3
ATOM      2  O   UNL     1       1.380   4.784  19.377  0.00  0.00    +0.000 OA
ATOM      3  C   UNL     1       1.964   5.209  20.377  0.00  0.00    +0.000 C 
ATOM      4  N   UNL     1       2.311   6.523  20.628  0.00  0.00    +0.000 N 
ATOM      5  H   UNL     1       2.894   6.705  21.441  0.00  0.00    +0.000 HD
BRANCH   4   6
ATOM      6  C   UNL     1       1.965   7.652  19.858  0.00  0.00    +0.000 A 
ATOM      7  C   UNL     1       1.183   8.700  20.347  0.00  0.00    +0.000 A 
ATOM      8  C   UNL     1       0.882   9.800  19.540  0.00  0.00    +0.000 A 
ATOM      9  C   UNL     1       1.351   9.857  18.231  0.00  0.00    +0.000 A 
ATOM     10  C   UNL     1       2.137   8.822  17.733  0.00  0.00    +0.000 A 
ATOM     11  C   UNL     1       2.453   7.729  18.547  0.00  0.00    +0.000 A 
ENDBRANCH   4   6
ENDBRANCH   1   3
BRANCH   1  12
ATOM     12  S   UNL     1       2.299   2.538  20.884  0.00  0.00    +0.000 S 
BRANCH  12  13
ATOM     13  C   UNL     1       4.030   2.364  20.310  0.00  0.00    +0.000 C 
BRANCH  13  14
ATOM     14  C   UNL     1       4.208   2.861  18.882  0.00  0.00    +0.000 C 
ATOM     15  O   UNL     1       3.383   2.575  18.019  0.00  0.00    +0.000 OA
ATOM     16  N   UNL     1       5.358   3.602  18.700  0.00  0.00    +0.000 N 
ATOM     17  C   UNL     1       5.665   4.141  17.480  0.00  0.00    +0.000 A 
ATOM     18  N   UNL     1       4.915   4.242  16.412  0.00  0.00    +0.000 NA
ATOM     19  C   UNL     1       5.653   4.774  15.377  0.00  0.00    +0.000 A 
ATOM     20  C   UNL     1       6.958   5.094  15.685  0.00  0.00    +0.000 A 
ATOM     21  S   UNL     1       7.256   4.750  17.343  0.00  0.00    +0.000 S 
ATOM     22  H   UNL     1       6.096   3.596  19.400  0.00  0.00    +0.000 HD
ENDBRANCH  13  14
ENDBRANCH  12  13
ENDBRANCH   1  12
TORSDOF 5
ENDMDL
MODEL 4
REMARK VINA RESULT:      -6.6      1.113      1.653
REMARK  Name = 
REMARK  5 active torsions:
REMARK  status: ('A' for Active; 'I' for Inactive)
REMARK    1  A    between atoms: C_2  and  C_3
REMARK    2  A    between atoms: C_3  and  S_4
REMARK    3  A    between atoms: S_4  and  C_5
REMARK    4  A    between atoms: C_5  and  C_6
REMARK    5  A    between atoms: N_14  and  C_15
REMARK                            x       y       z     vdW  Elec       q    Type
REMARK                         _______ _______ _______ _____ _____    ______ ____
ROOT
ATOM      1  C   UNL     1       2.444   3.910  21.344  0.00  0.00    +0.000 C 
ENDROOT
BRANCH   1   3
ATOM      2  O   UNL     1       0.493   4.938  20.441  0.00  0.00    +0.000 OA
ATOM      3  C   UNL     1       1.708   5.032  20.635  0.00  0.00    +0.000 C 
ATOM      4  N   UNL     1       2.509   6.108  20.305  0.00  0.00    +0.000 N 
ATOM      5  H   UNL     1       3.514   5.995  20.419  0.00  0.00    +0.000 HD
BRANCH   4   6
ATOM      6  C   UNL     1       2.088   7.354  19.798  0.00  0.00    +0.000 A 
ATOM      7  C   UNL     1       2.337   7.770  18.488  0.00  0.00    +0.000 A 
ATOM      8  C   UNL     1       1.884   9.013  18.038  0.00  0.00    +0.000 A 
ATOM      9  C   UNL     1       1.185   9.856  18.897  0.00  0.00    +0.000 A 
ATOM     10  C   UNL     1       0.924   9.450  20.202  0.00  0.00    +0.000 A 
ATOM     11  C   UNL     1       1.363   8.199  20.647  0.00  0.00    +0.000 A 
ENDBRANCH   4   6
ENDBRANCH   1   3
BRANCH   1  12
ATOM     12  S   UNL     1       2.029   2.312  20.572  0.00  0.00    +0.000 S 
BRANCH  12  13
ATOM     13  C   UNL     1       2.873   2.490  18.955  0.00  0.00    +0.000 C 
BRANCH  13  14
ATOM     14  C   UNL     1       4.257   3.106  19.100  0.00  0.00    +0.000 C 
ATOM     15  O   UNL     1       5.046   2.668  19.932  0.00  0.00    +0.000 OA
ATOM     16  N   UNL     1       4.477   4.167  18.245  0.00  0.00    +0.000 N 
ATOM     17  C   UNL     1       5.677   4.825  18.230  0.00  0.00    +0.000 A 
ATOM     18  N   UNL     1       6.807   4.489  18.798  0.00  0.00    +0.000 NA
ATOM     19  C   UNL     1       7.739   5.486  18.599  0.00  0.00    +0.000 A 
ATOM     20  C   UNL     1       7.304   6.561  17.855  0.00  0.00    +0.000 A 
ATOM     21  S   UNL     1       5.680   6.294  17.357  0.00  0.00    +0.000 S 
ATOM     22  H   UNL     1       3.702   4.611  17.758  0.00  0.00    +0.000 HD
ENDBRANCH  13  14
ENDBRANCH  12  13
ENDBRANCH   1  12
TORSDOF 5
ENDMDL
MODEL 5
REMARK VINA RESULT:      -6.6      1.556      1.586
REMARK  Name = 
REMARK  5 active torsions:
REMARK  status: ('A' for Active; 'I' for Inactive)
REMARK    1  A    between atoms: C_2  and  C_3
REMARK    2  A    between atoms: C_3  and  S_4
REMARK    3  A    between atoms: S_4  and  C_5
REMARK    4  A    between atoms: C_5  and  C_6
REMARK    5  A    between atoms: N_14  and  C_15
REMARK                            x       y       z     vdW  Elec       q    Type
REMARK                         _______ _______ _______ _____ _____    ______ ____
ROOT
ATOM      1  C   UNL     1       2.355   2.935  21.302  0.00  0.00    +0.000 C 
ENDROOT
BRANCH   1   3
ATOM      2  O   UNL     1       0.594   4.036  20.133  0.00  0.00    +0.000 OA
ATOM      3  C   UNL     1       1.760   4.099  20.530  0.00  0.00    +0.000 C 
ATOM      4  N   UNL     1       2.618   5.172  20.384  0.00  0.00    +0.000 N 
ATOM      5  H   UNL     1       3.588   5.036  20.657  0.00  0.00    +0.000 HD
BRANCH   4   6
ATOM      6  C   UNL     1       2.301   6.445  19.868  0.00  0.00    +0.000 A 
ATOM      7  C   UNL     1       1.625   7.422  20.603  0.00  0.00    +0.000 A 
ATOM      8  C   UNL     1       1.348   8.671  20.041  0.00  0.00    +0.000 A 
ATOM      9  C   UNL     1       1.738   8.952  18.735  0.00  0.00    +0.000 A 
ATOM     10  C   UNL     1       2.419   7.991  17.995  0.00  0.00    +0.000 A 
ATOM     11  C   UNL     1       2.711   6.747  18.563  0.00  0.00    +0.000 A 
ENDBRANCH   4   6
ENDBRANCH   1   3
BRANCH   1  12
ATOM     12  S   UNL     1       3.930   2.427  20.540  0.00  0.00    +0.000 S 
BRANCH  12  13
ATOM     13  C   UNL     1       3.345   1.870  18.896  0.00  0.00    +0.000 C 
BRANCH  13  14
ATOM     14  C   UNL     1       3.636   2.896  17.810  0.00  0.00    +0.000 C 
ATOM     15  O   UNL     1       2.751   3.247  17.035  0.00  0.00    +0.000 OA
ATOM     16  N   UNL     1       4.948   3.326  17.800  0.00  0.00    +0.000 N 
ATOM     17  C   UNL     1       5.378   4.263  16.900  0.00  0.00    +0.000 A 
ATOM     18  N   UNL     1       4.672   5.019  16.099  0.00  0.00    +0.000 NA
ATOM     19  C   UNL     1       5.516   5.759  15.298  0.00  0.00    +0.000 A 
ATOM     20  C   UNL     1       6.862   5.568  15.523  0.00  0.00    +0.000 A 
ATOM     21  S   UNL     1       7.074   4.449  16.811  0.00  0.00    +0.000 S 
ATOM     22  H   UNL     1       5.664   2.820  18.317  0.00  0.00    +0.000 HD
ENDBRANCH  13  14
ENDBRANCH  12  13
ENDBRANCH   1  12
TORSDOF 5
ENDMDL
MODEL 6
REMARK VINA RESULT:      -6.4      3.385      5.136
REMARK  Name = 
REMARK  5 active torsions:
REMARK  status: ('A' for Active; 'I' for Inactive)
REMARK    1  A    between atoms: C_2  and  C_3
REMARK    2  A    between atoms: C_3  and  S_4
REMARK    3  A    between atoms: S_4  and  C_5
REMARK    4  A    between atoms: C_5  and  C_6
REMARK    5  A    between atoms: N_14  and  C_15
REMARK                            x       y       z     vdW  Elec       q    Type
REMARK                         _______ _______ _______ _____ _____    ______ ____
ROOT
ATOM      1  C   UNL     1       4.876   6.840  16.766  0.00  0.00    +0.000 C 
ENDROOT
BRANCH   1   3
ATOM      2  O   UNL     1       2.974   7.326  18.118  0.00  0.00    +0.000 OA
ATOM      3  C   UNL     1       3.780   6.469  17.749  0.00  0.00    +0.000 C 
ATOM      4  N   UNL     1       3.779   5.134  18.109  0.00  0.00    +0.000 N 
ATOM      5  H   UNL     1       4.575   4.571  17.820  0.00  0.00    +0.000 HD
BRANCH   4   6
ATOM      6  C   UNL     1       2.796   4.462  18.864  0.00  0.00    +0.000 A 
ATOM      7  C   UNL     1       1.870   3.581  18.301  0.00  0.00    +0.000 A 
ATOM      8  C   UNL     1       0.925   2.934  19.102  0.00  0.00    +0.000 A 
ATOM      9  C   UNL     1       0.892   3.170  20.473  0.00  0.00    +0.000 A 
ATOM     10  C   UNL     1       1.814   4.040  21.048  0.00  0.00    +0.000 A 
ATOM     11  C   UNL     1       2.770   4.674  20.248  0.00  0.00    +0.000 A 
ENDBRANCH   4   6
ENDBRANCH   1   3
BRANCH   1  12
ATOM     12  S   UNL     1       6.401   7.263  17.670  0.00  0.00    +0.000 S 
BRANCH  12  13
ATOM     13  C   UNL     1       7.295   5.666  17.588  0.00  0.00    +0.000 C 
BRANCH  13  14
ATOM     14  C   UNL     1       6.855   4.828  16.395  0.00  0.00    +0.000 C 
ATOM     15  O   UNL     1       6.194   3.808  16.565  0.00  0.00    +0.000 OA
ATOM     16  N   UNL     1       7.294   5.326  15.185  0.00  0.00    +0.000 N 
ATOM     17  C   UNL     1       6.973   4.705  14.008  0.00  0.00    +0.000 A 
ATOM     18  N   UNL     1       6.105   3.751  13.790  0.00  0.00    +0.000 NA
ATOM     19  C   UNL     1       6.166   3.362  12.469  0.00  0.00    +0.000 A 
ATOM     20  C   UNL     1       7.071   4.051  11.692  0.00  0.00    +0.000 A 
ATOM     21  S   UNL     1       7.846   5.254  12.645  0.00  0.00    +0.000 S 
ATOM     22  H   UNL     1       8.023   6.035  15.148  0.00  0.00    +0.000 HD
ENDBRANCH  13  14
ENDBRANCH  12  13
ENDBRANCH   1  12
TORSDOF 5
ENDMDL
MODEL 7
REMARK VINA RESULT:      -6.4      3.352      6.767
REMARK  Name = 
REMARK  5 active torsions:
REMARK  status: ('A' for Active; 'I' for Inactive)
REMARK    1  A    between atoms: C_2  and  C_3
REMARK    2  A    between atoms: C_3  and  S_4
REMARK    3  A    between atoms: S_4  and  C_5
REMARK    4  A    between atoms: C_5  and  C_6
REMARK    5  A    between atoms: N_14  and  C_15
REMARK                            x       y       z     vdW  Elec       q    Type
REMARK                         _______ _______ _______ _____ _____    ______ ____
ROOT
ATOM      1  C   UNL     1       5.986   7.118  17.276  0.00  0.00    +0.000 C 
ENDROOT
BRANCH   1   3
ATOM      2  O   UNL     1       4.847   7.108  15.183  0.00  0.00    +0.000 OA
ATOM      3  C   UNL     1       5.703   6.570  15.890  0.00  0.00    +0.000 C 
ATOM      4  N   UNL     1       6.504   5.501  15.535  0.00  0.00    +0.000 N 
ATOM      5  H   UNL     1       7.083   5.089  16.262  0.00  0.00    +0.000 HD
BRANCH   4   6
ATOM      6  C   UNL     1       6.593   4.894  14.265  0.00  0.00    +0.000 A 
ATOM      7  C   UNL     1       7.595   5.197  13.341  0.00  0.00    +0.000 A 
ATOM      8  C   UNL     1       7.638   4.553  12.102  0.00  0.00    +0.000 A 
ATOM      9  C   UNL     1       6.672   3.606  11.771  0.00  0.00    +0.000 A 
ATOM     10  C   UNL     1       5.673   3.290  12.687  0.00  0.00    +0.000 A 
ATOM     11  C   UNL     1       5.640   3.922  13.933  0.00  0.00    +0.000 A 
ENDBRANCH   4   6
ENDBRANCH   1   3
BRANCH   1  12
ATOM     12  S   UNL     1       7.429   6.269  17.995  0.00  0.00    +0.000 S 
BRANCH  12  13
ATOM     13  C   UNL     1       6.650   5.435  19.428  0.00  0.00    +0.000 C 
BRANCH  13  14
ATOM     14  C   UNL     1       5.439   4.609  19.017  0.00  0.00    +0.000 C 
ATOM     15  O   UNL     1       5.486   3.896  18.019  0.00  0.00    +0.000 OA
ATOM     16  N   UNL     1       4.350   4.783  19.848  0.00  0.00    +0.000 N 
ATOM     17  C   UNL     1       3.183   4.101  19.634  0.00  0.00    +0.000 A 
ATOM     18  N   UNL     1       2.951   3.098  18.826  0.00  0.00    +0.000 NA
ATOM     19  C   UNL     1       1.612   2.775  18.863  0.00  0.00    +0.000 A 
ATOM     20  C   UNL     1       0.845   3.529  19.724  0.00  0.00    +0.000 A 
ATOM     21  S   UNL     1       1.849   4.659  20.545  0.00  0.00    +0.000 S 
ATOM     22  H   UNL     1       4.318   5.558  20.506  0.00  0.00    +0.000 HD
ENDBRANCH  13  14
ENDBRANCH  12  13
ENDBRANCH   1  12
TORSDOF 5
ENDMDL
MODEL 8
REMARK VINA RESULT:      -6.3      3.052      3.622
REMARK  Name = 
REMARK  5 active torsions:
REMARK  status: ('A' for Active; 'I' for Inactive)
REMARK    1  A    between atoms: C_2  and  C_3
REMARK    2  A    between atoms: C_3  and  S_4
REMARK    3  A    between atoms: S_4  and  C_5
REMARK    4  A    between atoms: C_5  and  C_6
REMARK    5  A    between atoms: N_14  and  C_15
REMARK                            x       y       z     vdW  Elec       q    Type
REMARK                         _______ _______ _______ _____ _____    ______ ____
ROOT
ATOM      1  C   UNL     1       3.841   4.347  19.430  0.00  0.00    +0.000 C 
ENDROOT
BRANCH   1   3
ATOM      2  O   UNL     1       1.885   5.068  18.276  0.00  0.00    +0.000 OA
ATOM      3  C   UNL     1       2.820   5.390  19.014  0.00  0.00    +0.000 C 
ATOM      4  N   UNL     1       3.033   6.637  19.570  0.00  0.00    +0.000 N 
ATOM      5  H   UNL     1       3.909   6.785  20.064  0.00  0.00    +0.000 HD
BRANCH   4   6
ATOM      6  C   UNL     1       2.171   7.751  19.507  0.00  0.00    +0.000 A 
ATOM      7  C   UNL     1       1.986   8.510  18.350  0.00  0.00    +0.000 A 
ATOM      8  C   UNL     1       1.109   9.597  18.345  0.00  0.00    +0.000 A 
ATOM      9  C   UNL     1       0.416   9.943  19.502  0.00  0.00    +0.000 A 
ATOM     10  C   UNL     1       0.586   9.190  20.660  0.00  0.00    +0.000 A 
ATOM     11  C   UNL     1       1.451   8.091  20.660  0.00  0.00    +0.000 A 
ENDBRANCH   4   6
ENDBRANCH   1   3
BRANCH   1  12
ATOM     12  S   UNL     1       4.893   3.910  18.007  0.00  0.00    +0.000 S 
BRANCH  12  13
ATOM     13  C   UNL     1       6.167   5.222  18.114  0.00  0.00    +0.000 C 
BRANCH  13  14
ATOM     14  C   UNL     1       6.786   5.527  16.757  0.00  0.00    +0.000 C 
ATOM     15  O   UNL     1       7.491   6.521  16.607  0.00  0.00    +0.000 OA
ATOM     16  N   UNL     1       6.445   4.611  15.782  0.00  0.00    +0.000 N 
ATOM     17  C   UNL     1       6.930   4.725  14.507  0.00  0.00    +0.000 A 
ATOM     18  N   UNL     1       7.878   5.504  14.053  0.00  0.00    +0.000 NA
ATOM     19  C   UNL     1       7.983   5.356  12.686  0.00  0.00    +0.000 A 
ATOM     20  C   UNL     1       7.122   4.440  12.123  0.00  0.00    +0.000 A 
ATOM     21  S   UNL     1       6.173   3.712  13.358  0.00  0.00    +0.000 S 
ATOM     22  H   UNL     1       5.679   3.958  15.928  0.00  0.00    +0.000 HD
ENDBRANCH  13  14
ENDBRANCH  12  13
ENDBRANCH   1  12
TORSDOF 5
ENDMDL
MODEL 9
REMARK VINA RESULT:      -6.3      2.734      5.852
REMARK  Name = 
REMARK  5 active torsions:
REMARK  status: ('A' for Active; 'I' for Inactive)
REMARK    1  A    between atoms: C_2  and  C_3
REMARK    2  A    between atoms: C_3  and  S_4
REMARK    3  A    between atoms: S_4  and  C_5
REMARK    4  A    between atoms: C_5  and  C_6
REMARK    5  A    between atoms: N_14  and  C_15
REMARK                            x       y       z     vdW  Elec       q    Type
REMARK                         _______ _______ _______ _____ _____    ______ ____
ROOT
ATOM      1  C   UNL     1       1.414   3.655  18.283  0.00  0.00    +0.000 C 
ENDROOT
BRANCH   1   3
ATOM      2  O   UNL     1       3.457   2.428  18.261  0.00  0.00    +0.000 OA
ATOM      3  C   UNL     1       2.886   3.479  17.958  0.00  0.00    +0.000 C 
ATOM      4  N   UNL     1       3.445   4.550  17.287  0.00  0.00    +0.000 N 
ATOM      5  H   UNL     1       2.886   5.396  17.211  0.00  0.00    +0.000 HD
BRANCH   4   6
ATOM      6  C   UNL     1       4.730   4.611  16.710  0.00  0.00    +0.000 A 
ATOM      7  C   UNL     1       5.029   4.085  15.452  0.00  0.00    +0.000 A 
ATOM      8  C   UNL     1       6.319   4.186  14.927  0.00  0.00    +0.000 A 
ATOM      9  C   UNL     1       7.327   4.806  15.660  0.00  0.00    +0.000 A 
ATOM     10  C   UNL     1       7.040   5.342  16.912  0.00  0.00    +0.000 A 
ATOM     11  C   UNL     1       5.744   5.255  17.431  0.00  0.00    +0.000 A 
ENDBRANCH   4   6
ENDBRANCH   1   3
BRANCH   1  12
ATOM     12  S   UNL     1       1.201   3.905  20.076  0.00  0.00    +0.000 S 
BRANCH  12  13
ATOM     13  C   UNL     1       2.580   5.062  20.420  0.00  0.00    +0.000 C 
BRANCH  13  14
ATOM     14  C   UNL     1       2.235   6.491  20.027  0.00  0.00    +0.000 C 
ATOM     15  O   UNL     1       2.542   6.919  18.918  0.00  0.00    +0.000 OA
ATOM     16  N   UNL     1       1.600   7.197  21.029  0.00  0.00    +0.000 N 
ATOM     17  C   UNL     1       1.203   8.492  20.837  0.00  0.00    +0.000 A 
ATOM     18  N   UNL     1       1.150   9.182  19.726  0.00  0.00    +0.000 NA
ATOM     19  C   UNL     1       0.773  10.478  20.003  0.00  0.00    +0.000 A 
ATOM     20  C   UNL     1       0.520  10.749  21.331  0.00  0.00    +0.000 A 
ATOM     21  S   UNL     1       0.727   9.315  22.257  0.00  0.00    +0.000 S 
ATOM     22  H   UNL     1       1.593   6.849  21.985  0.00  0.00    +0.000 HD
ENDBRANCH  13  14
ENDBRANCH  12  13
ENDBRANCH   1  12
TORSDOF 5
ENDMDL
