MODEL 1
REMARK VINA RESULT:      -7.5      0.000      0.000
REMARK  Name = 
REMARK  11 active torsions:
REMARK  status: ('A' for Active; 'I' for Inactive)
REMARK    1  A    between atoms: C_1  and  N_2
REMARK    2  A    between atoms: N_5  and  C_6
REMARK    3  A    between atoms: C_6  and  C_7
REMARK    4  A    between atoms: C_7  and  O_8
REMARK    5  A    between atoms: C_7  and  C_9
REMARK    6  A    between atoms: C_9  and  O_10
REMARK    7  A    between atoms: O_10  and  C_11
REMARK    8  A    between atoms: C_17  and  C_18
REMARK    9  A    between atoms: C_18  and  C_20
REMARK   10  A    between atoms: C_20  and  C_21
REMARK   11  A    between atoms: C_21  and  C_22
REMARK                            x       y       z     vdW  Elec       q    Type
REMARK                         _______ _______ _______ _____ _____    ______ ____
ROOT
ATOM      1  C   UNL     1       5.233   5.809  17.306  0.00  0.00    +0.000 A 
ATOM      2  C   UNL     1       4.651   5.360  16.105  0.00  0.00    +0.000 A 
ATOM      3  C   UNL     1       5.430   4.877  15.057  0.00  0.00    +0.000 A 
ATOM      4  C   UNL     1       6.797   4.785  15.224  0.00  0.00    +0.000 A 
ATOM      5  F   UNL     1       7.553   4.312  14.227  0.00  0.00    +0.000 F 
ATOM      6  C   UNL     1       7.399   5.170  16.415  0.00  0.00    +0.000 A 
ATOM      7  C   UNL     1       6.638   5.691  17.473  0.00  0.00    +0.000 A 
ENDROOT
BRANCH   7   8
ATOM      8  C   UNL     1       7.347   6.081  18.751  0.00  0.00    +0.000 C 
ATOM      9  O   UNL     1       7.145   5.472  19.795  0.00  0.00    +0.000 OA
BRANCH   8  10
ATOM     10  C   UNL     1       8.327   7.257  18.684  0.00  0.00    +0.000 C 
BRANCH  10  11
ATOM     11  C   UNL     1       7.886   8.400  17.762  0.00  0.00    +0.000 C 
BRANCH  11  12
ATOM     12  C   UNL     1       8.459   9.725  18.228  0.00  0.00    +0.000 A 
ATOM     13  C   UNL     1       8.222  10.896  17.495  0.00  0.00    +0.000 A 
ATOM     14  C   UNL     1       8.787  12.113  17.890  0.00  0.00    +0.000 A 
ATOM     15  C   UNL     1       9.597  12.173  19.022  0.00  0.00    +0.000 A 
ATOM     16  C   UNL     1       9.837  11.017  19.763  0.00  0.00    +0.000 A 
ATOM     17  C   UNL     1       9.273   9.799  19.370  0.00  0.00    +0.000 A 
ENDBRANCH  11  12
ENDBRANCH  10  11
ENDBRANCH   8  10
ENDBRANCH   7   8
BRANCH   1  18
ATOM     18  O   UNL     1       4.499   6.400  18.302  0.00  0.00    +0.000 OA
BRANCH  18  19
ATOM     19  C   UNL     1       3.143   6.754  18.009  0.00  0.00    +0.000 C 
BRANCH  19  20
ATOM     20  C   UNL     1       2.254   6.647  19.251  0.00  0.00    +0.000 C 
BRANCH  20  21
ATOM     21  O   UNL     1       2.240   7.935  19.884  0.00  0.00    +0.000 OA
ATOM     22  H   UNL     1       1.981   8.592  19.208  0.00  0.00    +0.000 HD
ENDBRANCH  20  21
BRANCH  20  23
ATOM     23  C   UNL     1       2.798   5.549  20.206  0.00  0.00    +0.000 C 
BRANCH  23  28
ATOM     24  C   UNL     1       3.748   1.245  18.275  0.00  0.00    +0.000 C 
ATOM     25  N   UNL     1       2.815   1.980  19.124  0.00  0.00    +0.000 NA
ATOM     26  C   UNL     1       2.178   3.083  18.379  0.00  0.00    +0.000 C 
ATOM     27  C   UNL     1       1.222   3.907  19.276  0.00  0.00    +0.000 C 
ATOM     28  N   UNL     1       1.846   4.460  20.502  0.00  0.00    +0.000 NA
ATOM     29  C   UNL     1       2.517   3.342  21.208  0.00  0.00    +0.000 C 
ATOM     30  C   UNL     1       3.478   2.497  20.333  0.00  0.00    +0.000 C 
ENDBRANCH  23  28
ENDBRANCH  20  23
ENDBRANCH  19  20
ENDBRANCH  18  19
ENDBRANCH   1  18
TORSDOF 10
ENDMDL
MODEL 2
REMARK VINA RESULT:      -7.3      3.948      6.752
REMARK  Name = 
REMARK  11 active torsions:
REMARK  status: ('A' for Active; 'I' for Inactive)
REMARK    1  A    between atoms: C_1  and  N_2
REMARK    2  A    between atoms: N_5  and  C_6
REMARK    3  A    between atoms: C_6  and  C_7
REMARK    4  A    between atoms: C_7  and  O_8
REMARK    5  A    between atoms: C_7  and  C_9
REMARK    6  A    between atoms: C_9  and  O_10
REMARK    7  A    between atoms: O_10  and  C_11
REMARK    8  A    between atoms: C_17  and  C_18
REMARK    9  A    between atoms: C_18  and  C_20
REMARK   10  A    between atoms: C_20  and  C_21
REMARK   11  A    between atoms: C_21  and  C_22
REMARK                            x       y       z     vdW  Elec       q    Type
REMARK                         _______ _______ _______ _____ _____    ______ ____
ROOT
ATOM      1  C   UNL     1       2.307   5.142  19.197  0.00  0.00    +0.000 A 
ATOM      2  C   UNL     1       2.020   5.398  20.551  0.00  0.00    +0.000 A 
ATOM      3  C   UNL     1       1.891   4.364  21.475  0.00  0.00    +0.000 A 
ATOM      4  C   UNL     1       2.107   3.065  21.062  0.00  0.00    +0.000 A 
ATOM      5  F   UNL     1       1.997   2.066  21.944  0.00  0.00    +0.000 F 
ATOM      6  C   UNL     1       2.445   2.781  19.745  0.00  0.00    +0.000 A 
ATOM      7  C   UNL     1       2.547   3.803  18.789  0.00  0.00    +0.000 A 
ENDROOT
BRANCH   7   8
ATOM      8  C   UNL     1       2.930   3.435  17.372  0.00  0.00    +0.000 C 
ATOM      9  O   UNL     1       2.076   3.281  16.508  0.00  0.00    +0.000 OA
BRANCH   8  10
ATOM     10  C   UNL     1       4.423   3.271  17.065  0.00  0.00    +0.000 C 
BRANCH  10  11
ATOM     11  C   UNL     1       5.002   4.347  16.139  0.00  0.00    +0.000 C 
BRANCH  11  12
ATOM     12  C   UNL     1       5.985   5.231  16.883  0.00  0.00    +0.000 A 
ATOM     13  C   UNL     1       6.904   4.669  17.780  0.00  0.00    +0.000 A 
ATOM     14  C   UNL     1       7.781   5.481  18.506  0.00  0.00    +0.000 A 
ATOM     15  C   UNL     1       7.749   6.864  18.345  0.00  0.00    +0.000 A 
ATOM     16  C   UNL     1       6.844   7.436  17.452  0.00  0.00    +0.000 A 
ATOM     17  C   UNL     1       5.966   6.625  16.725  0.00  0.00    +0.000 A 
ENDBRANCH  11  12
ENDBRANCH  10  11
ENDBRANCH   8  10
ENDBRANCH   7   8
BRANCH   1  18
ATOM     18  O   UNL     1       2.318   6.132  18.248  0.00  0.00    +0.000 OA
BRANCH  18  19
ATOM     19  C   UNL     1       2.655   7.456  18.672  0.00  0.00    +0.000 C 
BRANCH  19  20
ATOM     20  C   UNL     1       1.758   8.504  18.007  0.00  0.00    +0.000 C 
BRANCH  20  21
ATOM     21  O   UNL     1       2.568   9.239  17.079  0.00  0.00    +0.000 OA
ATOM     22  H   UNL     1       3.067   8.590  16.545  0.00  0.00    +0.000 HD
ENDBRANCH  20  21
BRANCH  20  23
ATOM     23  C   UNL     1       1.134   9.435  19.082  0.00  0.00    +0.000 C 
BRANCH  23  28
ATOM     24  C   UNL     1      -0.647  12.520  22.317  0.00  0.00    +0.000 C 
ATOM     25  N   UNL     1      -0.345  12.336  20.900  0.00  0.00    +0.000 NA
ATOM     26  C   UNL     1      -1.117  11.213  20.336  0.00  0.00    +0.000 C 
ATOM     27  C   UNL     1      -0.773  10.968  18.847  0.00  0.00    +0.000 C 
ATOM     28  N   UNL     1       0.665  10.739  18.572  0.00  0.00    +0.000 NA
ATOM     29  C   UNL     1       1.422  11.856  19.188  0.00  0.00    +0.000 C 
ATOM     30  C   UNL     1       1.096  12.126  20.679  0.00  0.00    +0.000 C 
ENDBRANCH  23  28
ENDBRANCH  20  23
ENDBRANCH  19  20
ENDBRANCH  18  19
ENDBRANCH   1  18
TORSDOF 10
ENDMDL
MODEL 3
REMARK VINA RESULT:      -7.2      4.115      7.059
REMARK  Name = 
REMARK  11 active torsions:
REMARK  status: ('A' for Active; 'I' for Inactive)
REMARK    1  A    between atoms: C_1  and  N_2
REMARK    2  A    between atoms: N_5  and  C_6
REMARK    3  A    between atoms: C_6  and  C_7
REMARK    4  A    between atoms: C_7  and  O_8
REMARK    5  A    between atoms: C_7  and  C_9
REMARK    6  A    between atoms: C_9  and  O_10
REMARK    7  A    between atoms: O_10  and  C_11
REMARK    8  A    between atoms: C_17  and  C_18
REMARK    9  A    between atoms: C_18  and  C_20
REMARK   10  A    between atoms: C_20  and  C_21
REMARK   11  A    between atoms: C_21  and  C_22
REMARK                            x       y       z     vdW  Elec       q    Type
REMARK                         _______ _______ _______ _____ _____    ______ ____
ROOT
ATOM      1  C   UNL     1       3.098   6.155  17.881  0.00  0.00    +0.000 A 
ATOM      2  C   UNL     1       2.167   5.376  18.593  0.00  0.00    +0.000 A 
ATOM      3  C   UNL     1       2.131   3.990  18.466  0.00  0.00    +0.000 A 
ATOM      4  C   UNL     1       3.068   3.365  17.670  0.00  0.00    +0.000 A 
ATOM      5  F   UNL     1       3.050   2.032  17.550  0.00  0.00    +0.000 F 
ATOM      6  C   UNL     1       4.036   4.099  16.995  0.00  0.00    +0.000 A 
ATOM      7  C   UNL     1       4.070   5.499  17.080  0.00  0.00    +0.000 A 
ENDROOT
BRANCH   7   8
ATOM      8  C   UNL     1       5.155   6.244  16.334  0.00  0.00    +0.000 C 
ATOM      9  O   UNL     1       4.877   7.018  15.426  0.00  0.00    +0.000 OA
BRANCH   8  10
ATOM     10  C   UNL     1       6.605   5.997  16.764  0.00  0.00    +0.000 C 
BRANCH  10  11
ATOM     11  C   UNL     1       7.206   4.684  16.250  0.00  0.00    +0.000 C 
BRANCH  11  12
ATOM     12  C   UNL     1       7.071   4.579  14.743  0.00  0.00    +0.000 A 
ATOM     13  C   UNL     1       6.183   3.654  14.174  0.00  0.00    +0.000 A 
ATOM     14  C   UNL     1       6.087   3.517  12.786  0.00  0.00    +0.000 A 
ATOM     15  C   UNL     1       6.879   4.301  11.950  0.00  0.00    +0.000 A 
ATOM     16  C   UNL     1       7.761   5.228  12.501  0.00  0.00    +0.000 A 
ATOM     17  C   UNL     1       7.858   5.367  13.889  0.00  0.00    +0.000 A 
ENDBRANCH  11  12
ENDBRANCH  10  11
ENDBRANCH   8  10
ENDBRANCH   7   8
BRANCH   1  18
ATOM     18  O   UNL     1       3.074   7.526  17.896  0.00  0.00    +0.000 OA
BRANCH  18  19
ATOM     19  C   UNL     1       2.192   8.165  18.824  0.00  0.00    +0.000 C 
BRANCH  19  20
ATOM     20  C   UNL     1       1.301   9.200  18.130  0.00  0.00    +0.000 C 
BRANCH  20  21
ATOM     21  O   UNL     1       2.148  10.016  17.307  0.00  0.00    +0.000 OA
ATOM     22  H   UNL     1       2.654   9.419  16.722  0.00  0.00    +0.000 HD
ENDBRANCH  20  21
BRANCH  20  23
ATOM     23  C   UNL     1       0.543  10.049  19.186  0.00  0.00    +0.000 C 
BRANCH  23  28
ATOM     24  C   UNL     1      -1.009  13.056  22.607  0.00  0.00    +0.000 C 
ATOM     25  N   UNL     1      -0.663  12.952  21.193  0.00  0.00    +0.000 NA
ATOM     26  C   UNL     1      -1.536  11.985  20.503  0.00  0.00    +0.000 C 
ATOM     27  C   UNL     1      -1.151  11.822  19.012  0.00  0.00    +0.000 C 
ATOM     28  N   UNL     1       0.261  11.439  18.775  0.00  0.00    +0.000 NA
ATOM     29  C   UNL     1       1.116  12.398  19.515  0.00  0.00    +0.000 C 
ATOM     30  C   UNL     1       0.752  12.583  21.011  0.00  0.00    +0.000 C 
ENDBRANCH  23  28
ENDBRANCH  20  23
ENDBRANCH  19  20
ENDBRANCH  18  19
ENDBRANCH   1  18
TORSDOF 10
ENDMDL
MODEL 4
REMARK VINA RESULT:      -7.1      3.261      8.197
REMARK  Name = 
REMARK  11 active torsions:
REMARK  status: ('A' for Active; 'I' for Inactive)
REMARK    1  A    between atoms: C_1  and  N_2
REMARK    2  A    between atoms: N_5  and  C_6
REMARK    3  A    between atoms: C_6  and  C_7
REMARK    4  A    between atoms: C_7  and  O_8
REMARK    5  A    between atoms: C_7  and  C_9
REMARK    6  A    between atoms: C_9  and  O_10
REMARK    7  A    between atoms: O_10  and  C_11
REMARK    8  A    between atoms: C_17  and  C_18
REMARK    9  A    between atoms: C_18  and  C_20
REMARK   10  A    between atoms: C_20  and  C_21
REMARK   11  A    between atoms: C_21  and  C_22
REMARK                            x       y       z     vdW  Elec       q    Type
REMARK                         _______ _______ _______ _____ _____    ______ ____
ROOT
ATOM      1  C   UNL     1       6.675   5.646  16.428  0.00  0.00    +0.000 A 
ATOM      2  C   UNL     1       7.408   5.747  15.230  0.00  0.00    +0.000 A 
ATOM      3  C   UNL     1       7.143   4.916  14.144  0.00  0.00    +0.000 A 
ATOM      4  C   UNL     1       6.100   4.017  14.227  0.00  0.00    +0.000 A 
ATOM      5  F   UNL     1       5.829   3.222  13.185  0.00  0.00    +0.000 F 
ATOM      6  C   UNL     1       5.322   3.928  15.374  0.00  0.00    +0.000 A 
ATOM      7  C   UNL     1       5.592   4.730  16.493  0.00  0.00    +0.000 A 
ENDROOT
BRANCH   7   8
ATOM      8  C   UNL     1       4.703   4.599  17.710  0.00  0.00    +0.000 C 
ATOM      9  O   UNL     1       4.746   3.599  18.417  0.00  0.00    +0.000 OA
BRANCH   8  10
ATOM     10  C   UNL     1       3.758   5.764  18.023  0.00  0.00    +0.000 C 
BRANCH  10  11
ATOM     11  C   UNL     1       2.269   5.401  17.994  0.00  0.00    +0.000 C 
BRANCH  11  12
ATOM     12  C   UNL     1       1.914   4.475  19.141  0.00  0.00    +0.000 A 
ATOM     13  C   UNL     1       2.320   4.779  20.448  0.00  0.00    +0.000 A 
ATOM     14  C   UNL     1       2.038   3.906  21.504  0.00  0.00    +0.000 A 
ATOM     15  C   UNL     1       1.350   2.719  21.266  0.00  0.00    +0.000 A 
ATOM     16  C   UNL     1       0.936   2.407  19.972  0.00  0.00    +0.000 A 
ATOM     17  C   UNL     1       1.216   3.278  18.915  0.00  0.00    +0.000 A 
ENDBRANCH  11  12
ENDBRANCH  10  11
ENDBRANCH   8  10
ENDBRANCH   7   8
BRANCH   1  18
ATOM     18  O   UNL     1       6.997   6.367  17.549  0.00  0.00    +0.000 OA
BRANCH  18  19
ATOM     19  C   UNL     1       7.118   7.786  17.415  0.00  0.00    +0.000 C 
BRANCH  19  20
ATOM     20  C   UNL     1       8.448   8.292  17.981  0.00  0.00    +0.000 C 
BRANCH  20  21
ATOM     21  O   UNL     1       8.735   7.525  19.159  0.00  0.00    +0.000 OA
ATOM     22  H   UNL     1       7.936   7.538  19.721  0.00  0.00    +0.000 HD
ENDBRANCH  20  21
BRANCH  20  23
ATOM     23  C   UNL     1       8.354   9.809  18.297  0.00  0.00    +0.000 C 
BRANCH  23  28
ATOM     24  C   UNL     1       8.166  14.317  19.970  0.00  0.00    +0.000 C 
ATOM     25  N   UNL     1       9.065  13.219  19.630  0.00  0.00    +0.000 NA
ATOM     26  C   UNL     1       8.968  12.878  18.199  0.00  0.00    +0.000 C 
ATOM     27  C   UNL     1       9.877  11.681  17.828  0.00  0.00    +0.000 C 
ATOM     28  N   UNL     1       9.641  10.454  18.625  0.00  0.00    +0.000 NA
ATOM     29  C   UNL     1       9.699  10.831  20.058  0.00  0.00    +0.000 C 
ATOM     30  C   UNL     1       8.800  12.029  20.457  0.00  0.00    +0.000 C 
ENDBRANCH  23  28
ENDBRANCH  20  23
ENDBRANCH  19  20
ENDBRANCH  18  19
ENDBRANCH   1  18
TORSDOF 10
ENDMDL
MODEL 5
REMARK VINA RESULT:      -7.1      4.147      6.855
REMARK  Name = 
REMARK  11 active torsions:
REMARK  status: ('A' for Active; 'I' for Inactive)
REMARK    1  A    between atoms: C_1  and  N_2
REMARK    2  A    between atoms: N_5  and  C_6
REMARK    3  A    between atoms: C_6  and  C_7
REMARK    4  A    between atoms: C_7  and  O_8
REMARK    5  A    between atoms: C_7  and  C_9
REMARK    6  A    between atoms: C_9  and  O_10
REMARK    7  A    between atoms: O_10  and  C_11
REMARK    8  A    between atoms: C_17  and  C_18
REMARK    9  A    between atoms: C_18  and  C_20
REMARK   10  A    between atoms: C_20  and  C_21
REMARK   11  A    between atoms: C_21  and  C_22
REMARK                            x       y       z     vdW  Elec       q    Type
REMARK                         _______ _______ _______ _____ _____    ______ ____
ROOT
ATOM      1  C   UNL     1       2.723   5.816  18.323  0.00  0.00    +0.000 A 
ATOM      2  C   UNL     1       1.556   5.156  18.753  0.00  0.00    +0.000 A 
ATOM      3  C   UNL     1       1.513   3.771  18.890  0.00  0.00    +0.000 A 
ATOM      4  C   UNL     1       2.658   3.038  18.655  0.00  0.00    +0.000 A 
ATOM      5  F   UNL     1       2.631   1.708  18.795  0.00  0.00    +0.000 F 
ATOM      6  C   UNL     1       3.842   3.662  18.282  0.00  0.00    +0.000 A 
ATOM      7  C   UNL     1       3.900   5.053  18.104  0.00  0.00    +0.000 A 
ENDROOT
BRANCH   7   8
ATOM      8  C   UNL     1       5.220   5.678  17.709  0.00  0.00    +0.000 C 
ATOM      9  O   UNL     1       6.052   5.981  18.556  0.00  0.00    +0.000 OA
BRANCH   8  10
ATOM     10  C   UNL     1       5.473   5.907  16.215  0.00  0.00    +0.000 C 
BRANCH  10  11
ATOM     11  C   UNL     1       6.847   5.436  15.724  0.00  0.00    +0.000 C 
BRANCH  11  12
ATOM     12  C   UNL     1       6.741   4.782  14.360  0.00  0.00    +0.000 A 
ATOM     13  C   UNL     1       7.625   5.140  13.332  0.00  0.00    +0.000 A 
ATOM     14  C   UNL     1       7.504   4.578  12.057  0.00  0.00    +0.000 A 
ATOM     15  C   UNL     1       6.496   3.654  11.794  0.00  0.00    +0.000 A 
ATOM     16  C   UNL     1       5.612   3.286  12.807  0.00  0.00    +0.000 A 
ATOM     17  C   UNL     1       5.733   3.846  14.083  0.00  0.00    +0.000 A 
ENDBRANCH  11  12
ENDBRANCH  10  11
ENDBRANCH   8  10
ENDBRANCH   7   8
BRANCH   1  18
ATOM     18  O   UNL     1       2.753   7.162  18.065  0.00  0.00    +0.000 OA
BRANCH  18  19
ATOM     19  C   UNL     1       2.182   8.040  19.040  0.00  0.00    +0.000 C 
BRANCH  19  20
ATOM     20  C   UNL     1       1.219   9.042  18.397  0.00  0.00    +0.000 C 
BRANCH  20  21
ATOM     21  O   UNL     1       2.001   9.931  17.586  0.00  0.00    +0.000 OA
ATOM     22  H   UNL     1       1.759   9.766  16.653  0.00  0.00    +0.000 HD
ENDBRANCH  20  21
BRANCH  20  23
ATOM     23  C   UNL     1       0.437   9.813  19.495  0.00  0.00    +0.000 C 
BRANCH  23  28
ATOM     24  C   UNL     1      -1.896  11.611  23.301  0.00  0.00    +0.000 C 
ATOM     25  N   UNL     1      -0.574  11.320  22.754  0.00  0.00    +0.000 NA
ATOM     26  C   UNL     1      -0.335  12.080  21.513  0.00  0.00    +0.000 C 
ATOM     27  C   UNL     1       1.042  11.746  20.889  0.00  0.00    +0.000 C 
ATOM     28  N   UNL     1       1.265  10.307  20.614  0.00  0.00    +0.000 NA
ATOM     29  C   UNL     1       0.975   9.561  21.862  0.00  0.00    +0.000 C 
ATOM     30  C   UNL     1      -0.398   9.878  22.511  0.00  0.00    +0.000 C 
ENDBRANCH  23  28
ENDBRANCH  20  23
ENDBRANCH  19  20
ENDBRANCH  18  19
ENDBRANCH   1  18
TORSDOF 10
ENDMDL
MODEL 6
REMARK VINA RESULT:      -7.1      0.682      1.192
REMARK  Name = 
REMARK  11 active torsions:
REMARK  status: ('A' for Active; 'I' for Inactive)
REMARK    1  A    between atoms: C_1  and  N_2
REMARK    2  A    between atoms: N_5  and  C_6
REMARK    3  A    between atoms: C_6  and  C_7
REMARK    4  A    between atoms: C_7  and  O_8
REMARK    5  A    between atoms: C_7  and  C_9
REMARK    6  A    between atoms: C_9  and  O_10
REMARK    7  A    between atoms: O_10  and  C_11
REMARK    8  A    between atoms: C_17  and  C_18
REMARK    9  A    between atoms: C_18  and  C_20
REMARK   10  A    between atoms: C_20  and  C_21
REMARK   11  A    between atoms: C_21  and  C_22
REMARK                            x       y       z     vdW  Elec       q    Type
REMARK                         _______ _______ _______ _____ _____    ______ ____
ROOT
ATOM      1  C   UNL     1       5.277   5.948  17.187  0.00  0.00    +0.000 A 
ATOM      2  C   UNL     1       4.628   5.063  16.305  0.00  0.00    +0.000 A 
ATOM      3  C   UNL     1       5.290   4.513  15.211  0.00  0.00    +0.000 A 
ATOM      4  C   UNL     1       6.627   4.797  15.022  0.00  0.00    +0.000 A 
ATOM      5  F   UNL     1       7.275   4.265  13.980  0.00  0.00    +0.000 F 
ATOM      6  C   UNL     1       7.312   5.624  15.904  0.00  0.00    +0.000 A 
ATOM      7  C   UNL     1       6.658   6.217  16.994  0.00  0.00    +0.000 A 
ENDROOT
BRANCH   7   8
ATOM      8  C   UNL     1       7.459   7.099  17.928  0.00  0.00    +0.000 C 
ATOM      9  O   UNL     1       8.140   6.613  18.822  0.00  0.00    +0.000 OA
BRANCH   8  10
ATOM     10  C   UNL     1       7.388   8.613  17.702  0.00  0.00    +0.000 C 
BRANCH  10  11
ATOM     11  C   UNL     1       8.739   9.276  17.412  0.00  0.00    +0.000 C 
BRANCH  11  12
ATOM     12  C   UNL     1       9.002  10.417  18.376  0.00  0.00    +0.000 A 
ATOM     13  C   UNL     1       9.280  10.153  19.725  0.00  0.00    +0.000 A 
ATOM     14  C   UNL     1       9.475  11.200  20.632  0.00  0.00    +0.000 A 
ATOM     15  C   UNL     1       9.394  12.522  20.201  0.00  0.00    +0.000 A 
ATOM     16  C   UNL     1       9.123  12.799  18.862  0.00  0.00    +0.000 A 
ATOM     17  C   UNL     1       8.927  11.753  17.954  0.00  0.00    +0.000 A 
ENDBRANCH  11  12
ENDBRANCH  10  11
ENDBRANCH   8  10
ENDBRANCH   7   8
BRANCH   1  18
ATOM     18  O   UNL     1       4.615   6.595  18.199  0.00  0.00    +0.000 OA
BRANCH  18  19
ATOM     19  C   UNL     1       3.346   7.182  17.894  0.00  0.00    +0.000 C 
BRANCH  19  20
ATOM     20  C   UNL     1       2.295   6.826  18.950  0.00  0.00    +0.000 C 
BRANCH  20  21
ATOM     21  O   UNL     1       2.036   8.011  19.717  0.00  0.00    +0.000 OA
ATOM     22  H   UNL     1       2.895   8.443  19.890  0.00  0.00    +0.000 HD
ENDBRANCH  20  21
BRANCH  20  23
ATOM     23  C   UNL     1       2.808   5.667  19.847  0.00  0.00    +0.000 C 
BRANCH  23  28
ATOM     24  C   UNL     1       3.817   1.154  18.518  0.00  0.00    +0.000 C 
ATOM     25  N   UNL     1       2.826   1.998  19.178  0.00  0.00    +0.000 NA
ATOM     26  C   UNL     1       2.300   3.019  18.254  0.00  0.00    +0.000 C 
ATOM     27  C   UNL     1       1.285   3.959  18.950  0.00  0.00    +0.000 C 
ATOM     28  N   UNL     1       1.799   4.637  20.163  0.00  0.00    +0.000 NA
ATOM     29  C   UNL     1       2.363   3.594  21.055  0.00  0.00    +0.000 C 
ATOM     30  C   UNL     1       3.381   2.638  20.383  0.00  0.00    +0.000 C 
ENDBRANCH  23  28
ENDBRANCH  20  23
ENDBRANCH  19  20
ENDBRANCH  18  19
ENDBRANCH   1  18
TORSDOF 10
ENDMDL
MODEL 7
REMARK VINA RESULT:      -7.1      4.650      7.322
REMARK  Name = 
REMARK  11 active torsions:
REMARK  status: ('A' for Active; 'I' for Inactive)
REMARK    1  A    between atoms: C_1  and  N_2
REMARK    2  A    between atoms: N_5  and  C_6
REMARK    3  A    between atoms: C_6  and  C_7
REMARK    4  A    between atoms: C_7  and  O_8
REMARK    5  A    between atoms: C_7  and  C_9
REMARK    6  A    between atoms: C_9  and  O_10
REMARK    7  A    between atoms: O_10  and  C_11
REMARK    8  A    between atoms: C_17  and  C_18
REMARK    9  A    between atoms: C_18  and  C_20
REMARK   10  A    between atoms: C_20  and  C_21
REMARK   11  A    between atoms: C_21  and  C_22
REMARK                            x       y       z     vdW  Elec       q    Type
REMARK                         _______ _______ _______ _____ _____    ______ ____
ROOT
ATOM      1  C   UNL     1       2.406   5.378  19.003  0.00  0.00    +0.000 A 
ATOM      2  C   UNL     1       2.109   5.646  20.353  0.00  0.00    +0.000 A 
ATOM      3  C   UNL     1       2.117   4.638  21.312  0.00  0.00    +0.000 A 
ATOM      4  C   UNL     1       2.483   3.360  20.940  0.00  0.00    +0.000 A 
ATOM      5  F   UNL     1       2.506   2.386  21.857  0.00  0.00    +0.000 F 
ATOM      6  C   UNL     1       2.835   3.072  19.627  0.00  0.00    +0.000 A 
ATOM      7  C   UNL     1       2.801   4.064  18.636  0.00  0.00    +0.000 A 
ENDROOT
BRANCH   7   8
ATOM      8  C   UNL     1       3.207   3.695  17.226  0.00  0.00    +0.000 C 
ATOM      9  O   UNL     1       2.371   3.347  16.401  0.00  0.00    +0.000 OA
BRANCH   8  10
ATOM     10  C   UNL     1       4.696   3.782  16.875  0.00  0.00    +0.000 C 
BRANCH  10  11
ATOM     11  C   UNL     1       5.092   5.039  16.093  0.00  0.00    +0.000 C 
BRANCH  11  12
ATOM     12  C   UNL     1       5.784   4.673  14.793  0.00  0.00    +0.000 A 
ATOM     13  C   UNL     1       7.030   5.231  14.473  0.00  0.00    +0.000 A 
ATOM     14  C   UNL     1       7.652   4.937  13.256  0.00  0.00    +0.000 A 
ATOM     15  C   UNL     1       7.036   4.084  12.344  0.00  0.00    +0.000 A 
ATOM     16  C   UNL     1       5.800   3.519  12.651  0.00  0.00    +0.000 A 
ATOM     17  C   UNL     1       5.176   3.811  13.868  0.00  0.00    +0.000 A 
ENDBRANCH  11  12
ENDBRANCH  10  11
ENDBRANCH   8  10
ENDBRANCH   7   8
BRANCH   1  18
ATOM     18  O   UNL     1       2.286   6.328  18.021  0.00  0.00    +0.000 OA
BRANCH  18  19
ATOM     19  C   UNL     1       2.735   7.654  18.320  0.00  0.00    +0.000 C 
BRANCH  19  20
ATOM     20  C   UNL     1       1.615   8.681  18.130  0.00  0.00    +0.000 C 
BRANCH  20  21
ATOM     21  O   UNL     1       2.065   9.636  17.158  0.00  0.00    +0.000 OA
ATOM     22  H   UNL     1       2.994   9.854  17.367  0.00  0.00    +0.000 HD
ENDBRANCH  20  21
BRANCH  20  23
ATOM     23  C   UNL     1       1.280   9.363  19.485  0.00  0.00    +0.000 C 
BRANCH  23  28
ATOM     24  C   UNL     1       0.466  13.645  21.525  0.00  0.00    +0.000 C 
ATOM     25  N   UNL     1      -0.178  12.477  20.932  0.00  0.00    +0.000 NA
ATOM     26  C   UNL     1       0.130  11.255  21.699  0.00  0.00    +0.000 C 
ATOM     27  C   UNL     1      -0.502   9.996  21.056  0.00  0.00    +0.000 C 
ATOM     28  N   UNL     1      -0.131   9.772  19.639  0.00  0.00    +0.000 NA
ATOM     29  C   UNL     1      -0.406  11.028  18.899  0.00  0.00    +0.000 C 
ATOM     30  C   UNL     1       0.213  12.305  19.522  0.00  0.00    +0.000 C 
ENDBRANCH  23  28
ENDBRANCH  20  23
ENDBRANCH  19  20
ENDBRANCH  18  19
ENDBRANCH   1  18
TORSDOF 10
ENDMDL
MODEL 8
REMARK VINA RESULT:      -7.1      4.061      7.027
REMARK  Name = 
REMARK  11 active torsions:
REMARK  status: ('A' for Active; 'I' for Inactive)
REMARK    1  A    between atoms: C_1  and  N_2
REMARK    2  A    between atoms: N_5  and  C_6
REMARK    3  A    between atoms: C_6  and  C_7
REMARK    4  A    between atoms: C_7  and  O_8
REMARK    5  A    between atoms: C_7  and  C_9
REMARK    6  A    between atoms: C_9  and  O_10
REMARK    7  A    between atoms: O_10  and  C_11
REMARK    8  A    between atoms: C_17  and  C_18
REMARK    9  A    between atoms: C_18  and  C_20
REMARK   10  A    between atoms: C_20  and  C_21
REMARK   11  A    between atoms: C_21  and  C_22
REMARK                            x       y       z     vdW  Elec       q    Type
REMARK                         _______ _______ _______ _____ _____    ______ ____
ROOT
ATOM      1  C   UNL     1       2.928   5.625  18.529  0.00  0.00    +0.000 A 
ATOM      2  C   UNL     1       1.695   4.966  18.698  0.00  0.00    +0.000 A 
ATOM      3  C   UNL     1       1.497   3.667  18.238  0.00  0.00    +0.000 A 
ATOM      4  C   UNL     1       2.551   2.993  17.657  0.00  0.00    +0.000 A 
ATOM      5  F   UNL     1       2.375   1.740  17.222  0.00  0.00    +0.000 F 
ATOM      6  C   UNL     1       3.797   3.594  17.523  0.00  0.00    +0.000 A 
ATOM      7  C   UNL     1       4.010   4.914  17.947  0.00  0.00    +0.000 A 
ENDROOT
BRANCH   7   8
ATOM      8  C   UNL     1       5.391   5.512  17.787  0.00  0.00    +0.000 C 
ATOM      9  O   UNL     1       6.172   5.555  18.730  0.00  0.00    +0.000 OA
BRANCH   8  10
ATOM     10  C   UNL     1       5.771   6.049  16.403  0.00  0.00    +0.000 C 
BRANCH  10  11
ATOM     11  C   UNL     1       7.076   5.479  15.836  0.00  0.00    +0.000 C 
BRANCH  11  12
ATOM     12  C   UNL     1       6.840   4.822  14.489  0.00  0.00    +0.000 A 
ATOM     13  C   UNL     1       7.689   5.100  13.408  0.00  0.00    +0.000 A 
ATOM     14  C   UNL     1       7.451   4.536  12.151  0.00  0.00    +0.000 A 
ATOM     15  C   UNL     1       6.361   3.691  11.958  0.00  0.00    +0.000 A 
ATOM     16  C   UNL     1       5.512   3.402  13.025  0.00  0.00    +0.000 A 
ATOM     17  C   UNL     1       5.749   3.964  14.284  0.00  0.00    +0.000 A 
ENDBRANCH  11  12
ENDBRANCH  10  11
ENDBRANCH   8  10
ENDBRANCH   7   8
BRANCH   1  18
ATOM     18  O   UNL     1       3.109   6.943  18.863  0.00  0.00    +0.000 OA
BRANCH  18  19
ATOM     19  C   UNL     1       2.096   7.574  19.654  0.00  0.00    +0.000 C 
BRANCH  19  20
ATOM     20  C   UNL     1       1.456   8.750  18.910  0.00  0.00    +0.000 C 
BRANCH  20  21
ATOM     21  O   UNL     1       2.397   9.202  17.926  0.00  0.00    +0.000 OA
ATOM     22  H   UNL     1       1.959   9.898  17.399  0.00  0.00    +0.000 HD
ENDBRANCH  20  21
BRANCH  20  23
ATOM     23  C   UNL     1       1.090   9.880  19.911  0.00  0.00    +0.000 C 
BRANCH  23  28
ATOM     24  C   UNL     1      -0.601  14.352  19.372  0.00  0.00    +0.000 C 
ATOM     25  N   UNL     1      -0.977  12.976  19.680  0.00  0.00    +0.000 NA
ATOM     26  C   UNL     1      -0.302  12.503  20.903  0.00  0.00    +0.000 C 
ATOM     27  C   UNL     1      -0.647  11.027  21.218  0.00  0.00    +0.000 C 
ATOM     28  N   UNL     1      -0.359  10.075  20.120  0.00  0.00    +0.000 NA
ATOM     29  C   UNL     1      -1.010  10.596  18.893  0.00  0.00    +0.000 C 
ATOM     30  C   UNL     1      -0.683  12.073  18.554  0.00  0.00    +0.000 C 
ENDBRANCH  23  28
ENDBRANCH  20  23
ENDBRANCH  19  20
ENDBRANCH  18  19
ENDBRANCH   1  18
TORSDOF 10
ENDMDL
MODEL 9
REMARK VINA RESULT:      -7.0      4.043      6.928
REMARK  Name = 
REMARK  11 active torsions:
REMARK  status: ('A' for Active; 'I' for Inactive)
REMARK    1  A    between atoms: C_1  and  N_2
REMARK    2  A    between atoms: N_5  and  C_6
REMARK    3  A    between atoms: C_6  and  C_7
REMARK    4  A    between atoms: C_7  and  O_8
REMARK    5  A    between atoms: C_7  and  C_9
REMARK    6  A    between atoms: C_9  and  O_10
REMARK    7  A    between atoms: O_10  and  C_11
REMARK    8  A    between atoms: C_17  and  C_18
REMARK    9  A    between atoms: C_18  and  C_20
REMARK   10  A    between atoms: C_20  and  C_21
REMARK   11  A    between atoms: C_21  and  C_22
REMARK                            x       y       z     vdW  Elec       q    Type
REMARK                         _______ _______ _______ _____ _____    ______ ____
ROOT
ATOM      1  C   UNL     1       2.928   5.547  18.271  0.00  0.00    +0.000 A 
ATOM      2  C   UNL     1       1.735   4.850  18.538  0.00  0.00    +0.000 A 
ATOM      3  C   UNL     1       1.691   3.458  18.540  0.00  0.00    +0.000 A 
ATOM      4  C   UNL     1       2.857   2.750  18.333  0.00  0.00    +0.000 A 
ATOM      5  F   UNL     1       2.828   1.412  18.345  0.00  0.00    +0.000 F 
ATOM      6  C   UNL     1       4.063   3.406  18.119  0.00  0.00    +0.000 A 
ATOM      7  C   UNL     1       4.125   4.807  18.079  0.00  0.00    +0.000 A 
ENDROOT
BRANCH   7   8
ATOM      8  C   UNL     1       5.468   5.466  17.855  0.00  0.00    +0.000 C 
ATOM      9  O   UNL     1       6.257   5.618  18.780  0.00  0.00    +0.000 OA
BRANCH   8  10
ATOM     10  C   UNL     1       5.801   5.924  16.431  0.00  0.00    +0.000 C 
BRANCH  10  11
ATOM     11  C   UNL     1       7.098   5.339  15.861  0.00  0.00    +0.000 C 
BRANCH  11  12
ATOM     12  C   UNL     1       6.882   4.806  14.458  0.00  0.00    +0.000 A 
ATOM     13  C   UNL     1       5.850   3.893  14.199  0.00  0.00    +0.000 A 
ATOM     14  C   UNL     1       5.673   3.359  12.918  0.00  0.00    +0.000 A 
ATOM     15  C   UNL     1       6.528   3.729  11.883  0.00  0.00    +0.000 A 
ATOM     16  C   UNL     1       7.556   4.639  12.125  0.00  0.00    +0.000 A 
ATOM     17  C   UNL     1       7.734   5.174  13.405  0.00  0.00    +0.000 A 
ENDBRANCH  11  12
ENDBRANCH  10  11
ENDBRANCH   8  10
ENDBRANCH   7   8
BRANCH   1  18
ATOM     18  O   UNL     1       2.970   6.911  18.143  0.00  0.00    +0.000 OA
BRANCH  18  19
ATOM     19  C   UNL     1       2.257   7.691  19.108  0.00  0.00    +0.000 C 
BRANCH  19  20
ATOM     20  C   UNL     1       1.478   8.830  18.444  0.00  0.00    +0.000 C 
BRANCH  20  21
ATOM     21  O   UNL     1       2.331   9.412  17.447  0.00  0.00    +0.000 OA
ATOM     22  H   UNL     1       3.213   9.003  17.540  0.00  0.00    +0.000 HD
ENDBRANCH  20  21
BRANCH  20  23
ATOM     23  C   UNL     1       1.049   9.877  19.507  0.00  0.00    +0.000 C 
BRANCH  23  28
ATOM     24  C   UNL     1      -0.690  13.445  22.228  0.00  0.00    +0.000 C 
ATOM     25  N   UNL     1      -1.011  12.155  21.624  0.00  0.00    +0.000 NA
ATOM     26  C   UNL     1      -0.128  11.094  22.142  0.00  0.00    +0.000 C 
ATOM     27  C   UNL     1      -0.417   9.727  21.475  0.00  0.00    +0.000 C 
ATOM     28  N   UNL     1      -0.337   9.730  19.996  0.00  0.00    +0.000 NA
ATOM     29  C   UNL     1      -1.197  10.833  19.502  0.00  0.00    +0.000 C 
ATOM     30  C   UNL     1      -0.930  12.214  20.154  0.00  0.00    +0.000 C 
ENDBRANCH  23  28
ENDBRANCH  20  23
ENDBRANCH  19  20
ENDBRANCH  18  19
ENDBRANCH   1  18
TORSDOF 10
ENDMDL
