MODEL 1
REMARK VINA RESULT:      -7.4      0.000      0.000
REMARK  Name = 
REMARK  3 active torsions:
REMARK  status: ('A' for Active; 'I' for Inactive)
REMARK    1  A    between atoms: C_2  and  C_3
REMARK    2  A    between atoms: N_11  and  C_12
REMARK    3  A    between atoms: C_12  and  C_13
REMARK                            x       y       z     vdW  Elec       q    Type
REMARK                         _______ _______ _______ _____ _____    ______ ____
ROOT
ATOM      1  O   UNL     1       5.590   3.332  17.219  0.00  0.00    +0.000 OA
ATOM      2  C   UNL     1       5.226   4.485  17.024  0.00  0.00    +0.000 C 
ATOM      3  N   UNL     1       4.613   5.246  18.020  0.00  0.00    +0.000 N 
ATOM      4  C   UNL     1       4.054   6.596  17.853  0.00  0.00    +0.000 C 
ATOM      5  C   UNL     1       2.542   6.698  18.112  0.00  0.00    +0.000 C 
ATOM      6  N   UNL     1       2.154   6.393  19.480  0.00  0.00    +0.000 N 
ATOM      7  C   UNL     1       2.098   5.062  19.846  0.00  0.00    +0.000 A 
ATOM      8  N   UNL     1       0.885   4.605  20.226  0.00  0.00    +0.000 NA
ATOM      9  C   UNL     1       0.754   3.308  20.566  0.00  0.00    +0.000 A 
ATOM     10  C   UNL     1       1.808   2.421  20.599  0.00  0.00    +0.000 A 
ATOM     11  C   UNL     1       3.059   2.893  20.224  0.00  0.00    +0.000 A 
ATOM     12  C   UNL     1       3.215   4.223  19.805  0.00  0.00    +0.000 A 
ATOM     13  C   UNL     1       4.572   4.727  19.391  0.00  0.00    +0.000 C 
ENDROOT
BRANCH   2  14
ATOM     14  C   UNL     1       5.521   5.201  15.694  0.00  0.00    +0.000 C 
ATOM     15  C   UNL     1       5.363   4.341  14.454  0.00  0.00    +0.000 C 
ATOM     16  C   UNL     1       6.707   4.334  13.769  0.00  0.00    +0.000 C 
ATOM     17  O   UNL     1       7.502   5.365  14.341  0.00  0.00    +0.000 OA
ATOM     18  C   UNL     1       6.918   5.786  15.579  0.00  0.00    +0.000 C 
ENDBRANCH   2  14
BRANCH   6  19
ATOM     19  C   UNL     1       2.293   7.383  20.541  0.00  0.00    +0.000 C 
BRANCH  19  20
ATOM     20  C   UNL     1       1.229   8.455  20.507  0.00  0.00    +0.000 A 
ATOM     21  C   UNL     1       0.394   8.737  21.591  0.00  0.00    +0.000 A 
ATOM     22  C   UNL     1      -0.474   9.824  21.551  0.00  0.00    +0.000 A 
ATOM     23  C   UNL     1      -0.487  10.606  20.409  0.00  0.00    +0.000 A 
ATOM     24  N   UNL     1       0.283  10.365  19.329  0.00  0.00    +0.000 NA
ATOM     25  C   UNL     1       1.123   9.304  19.406  0.00  0.00    +0.000 A 
ENDBRANCH  19  20
ENDBRANCH   6  19
TORSDOF 3
ENDMDL
MODEL 2
REMARK VINA RESULT:      -7.4      0.546      1.013
REMARK  Name = 
REMARK  3 active torsions:
REMARK  status: ('A' for Active; 'I' for Inactive)
REMARK    1  A    between atoms: C_2  and  C_3
REMARK    2  A    between atoms: N_11  and  C_12
REMARK    3  A    between atoms: C_12  and  C_13
REMARK                            x       y       z     vdW  Elec       q    Type
REMARK                         _______ _______ _______ _____ _____    ______ ____
ROOT
ATOM      1  O   UNL     1       5.750   3.500  17.329  0.00  0.00    +0.000 OA
ATOM      2  C   UNL     1       5.321   4.619  17.074  0.00  0.00    +0.000 C 
ATOM      3  N   UNL     1       4.649   5.388  18.025  0.00  0.00    +0.000 N 
ATOM      4  C   UNL     1       4.013   6.693  17.787  0.00  0.00    +0.000 C 
ATOM      5  C   UNL     1       2.495   6.715  18.023  0.00  0.00    +0.000 C 
ATOM      6  N   UNL     1       2.105   6.452  19.399  0.00  0.00    +0.000 N 
ATOM      7  C   UNL     1       2.123   5.139  19.828  0.00  0.00    +0.000 A 
ATOM      8  N   UNL     1       0.933   4.629  20.215  0.00  0.00    +0.000 NA
ATOM      9  C   UNL     1       0.875   3.343  20.615  0.00  0.00    +0.000 A 
ATOM     10  C   UNL     1       1.979   2.523  20.703  0.00  0.00    +0.000 A 
ATOM     11  C   UNL     1       3.205   3.052  20.320  0.00  0.00    +0.000 A 
ATOM     12  C   UNL     1       3.288   4.367  19.840  0.00  0.00    +0.000 A 
ATOM     13  C   UNL     1       4.619   4.932  19.419  0.00  0.00    +0.000 C 
ENDROOT
BRANCH   2  14
ATOM     14  C   UNL     1       5.593   5.288  15.715  0.00  0.00    +0.000 C 
ATOM     15  C   UNL     1       5.388   4.393  14.508  0.00  0.00    +0.000 C 
ATOM     16  C   UNL     1       6.714   4.341  13.789  0.00  0.00    +0.000 C 
ATOM     17  O   UNL     1       7.540   5.375  14.308  0.00  0.00    +0.000 OA
ATOM     18  C   UNL     1       6.995   5.845  15.546  0.00  0.00    +0.000 C 
ENDBRANCH   2  14
BRANCH   6  19
ATOM     19  C   UNL     1       2.169   7.497  20.413  0.00  0.00    +0.000 C 
BRANCH  19  20
ATOM     20  C   UNL     1       1.270   8.676  20.120  0.00  0.00    +0.000 A 
ATOM     21  C   UNL     1       1.253   9.336  18.889  0.00  0.00    +0.000 A 
ATOM     22  C   UNL     1       0.311  10.327  18.631  0.00  0.00    +0.000 A 
ATOM     23  C   UNL     1      -0.598  10.638  19.627  0.00  0.00    +0.000 A 
ATOM     24  N   UNL     1      -0.611  10.045  20.838  0.00  0.00    +0.000 NA
ATOM     25  C   UNL     1       0.315   9.079  21.052  0.00  0.00    +0.000 A 
ENDBRANCH  19  20
ENDBRANCH   6  19
TORSDOF 3
ENDMDL
MODEL 3
REMARK VINA RESULT:      -7.2      3.251      5.063
REMARK  Name = 
REMARK  3 active torsions:
REMARK  status: ('A' for Active; 'I' for Inactive)
REMARK    1  A    between atoms: C_2  and  C_3
REMARK    2  A    between atoms: N_11  and  C_12
REMARK    3  A    between atoms: C_12  and  C_13
REMARK                            x       y       z     vdW  Elec       q    Type
REMARK                         _______ _______ _______ _____ _____    ______ ____
ROOT
ATOM      1  O   UNL     1       7.331   5.355  14.024  0.00  0.00    +0.000 OA
ATOM      2  C   UNL     1       6.353   4.680  14.325  0.00  0.00    +0.000 C 
ATOM      3  N   UNL     1       5.540   4.999  15.413  0.00  0.00    +0.000 N 
ATOM      4  C   UNL     1       4.410   4.199  15.910  0.00  0.00    +0.000 C 
ATOM      5  C   UNL     1       4.578   3.679  17.346  0.00  0.00    +0.000 C 
ATOM      6  N   UNL     1       4.651   4.729  18.351  0.00  0.00    +0.000 N 
ATOM      7  C   UNL     1       5.850   5.402  18.485  0.00  0.00    +0.000 A 
ATOM      8  N   UNL     1       6.459   5.287  19.685  0.00  0.00    +0.000 NA
ATOM      9  C   UNL     1       7.648   5.894  19.872  0.00  0.00    +0.000 A 
ATOM     10  C   UNL     1       8.262   6.676  18.918  0.00  0.00    +0.000 A 
ATOM     11  C   UNL     1       7.628   6.807  17.689  0.00  0.00    +0.000 A 
ATOM     12  C   UNL     1       6.421   6.137  17.442  0.00  0.00    +0.000 A 
ATOM     13  C   UNL     1       5.742   6.277  16.105  0.00  0.00    +0.000 C 
ENDROOT
BRANCH   2  14
ATOM     14  C   UNL     1       5.900   3.498  13.450  0.00  0.00    +0.000 C 
ATOM     15  C   UNL     1       6.816   3.175  12.285  0.00  0.00    +0.000 C 
ATOM     16  C   UNL     1       5.980   3.317  11.036  0.00  0.00    +0.000 C 
ATOM     17  O   UNL     1       4.614   3.376  11.423  0.00  0.00    +0.000 OA
ATOM     18  C   UNL     1       4.525   3.656  12.824  0.00  0.00    +0.000 C 
ENDBRANCH   2  14
BRANCH   6  19
ATOM     19  C   UNL     1       3.446   5.384  18.844  0.00  0.00    +0.000 C 
BRANCH  19  20
ATOM     20  C   UNL     1       2.580   4.488  19.699  0.00  0.00    +0.000 A 
ATOM     21  C   UNL     1       1.496   3.767  19.193  0.00  0.00    +0.000 A 
ATOM     22  C   UNL     1       0.818   2.854  19.996  0.00  0.00    +0.000 A 
ATOM     23  C   UNL     1       1.246   2.691  21.302  0.00  0.00    +0.000 A 
ATOM     24  N   UNL     1       2.273   3.377  21.843  0.00  0.00    +0.000 NA
ATOM     25  C   UNL     1       2.916   4.251  21.030  0.00  0.00    +0.000 A 
ENDBRANCH  19  20
ENDBRANCH   6  19
TORSDOF 3
ENDMDL
MODEL 4
REMARK VINA RESULT:      -6.5      2.740      6.863
REMARK  Name = 
REMARK  3 active torsions:
REMARK  status: ('A' for Active; 'I' for Inactive)
REMARK    1  A    between atoms: C_2  and  C_3
REMARK    2  A    between atoms: N_11  and  C_12
REMARK    3  A    between atoms: C_12  and  C_13
REMARK                            x       y       z     vdW  Elec       q    Type
REMARK                         _______ _______ _______ _____ _____    ______ ____
ROOT
ATOM      1  O   UNL     1       0.857   6.755  21.208  0.00  0.00    +0.000 OA
ATOM      2  C   UNL     1       1.549   7.167  20.285  0.00  0.00    +0.000 C 
ATOM      3  N   UNL     1       2.067   6.312  19.311  0.00  0.00    +0.000 N 
ATOM      4  C   UNL     1       2.985   6.695  18.227  0.00  0.00    +0.000 C 
ATOM      5  C   UNL     1       4.353   5.996  18.273  0.00  0.00    +0.000 C 
ATOM      6  N   UNL     1       4.287   4.553  18.098  0.00  0.00    +0.000 N 
ATOM      7  C   UNL     1       3.896   3.796  19.184  0.00  0.00    +0.000 A 
ATOM      8  N   UNL     1       4.809   2.914  19.648  0.00  0.00    +0.000 NA
ATOM      9  C   UNL     1       4.502   2.165  20.726  0.00  0.00    +0.000 A 
ATOM     10  C   UNL     1       3.279   2.209  21.360  0.00  0.00    +0.000 A 
ATOM     11  C   UNL     1       2.334   3.104  20.874  0.00  0.00    +0.000 A 
ATOM     12  C   UNL     1       2.646   3.941  19.793  0.00  0.00    +0.000 A 
ATOM     13  C   UNL     1       1.620   4.915  19.276  0.00  0.00    +0.000 C 
ENDROOT
BRANCH   2  14
ATOM     14  C   UNL     1       1.800   8.672  20.085  0.00  0.00    +0.000 C 
ATOM     15  C   UNL     1       1.174   9.571  21.134  0.00  0.00    +0.000 C 
ATOM     16  C   UNL     1       0.237  10.495  20.395  0.00  0.00    +0.000 C 
ATOM     17  O   UNL     1       0.526  10.402  19.007  0.00  0.00    +0.000 OA
ATOM     18  C   UNL     1       1.312   9.230  18.760  0.00  0.00    +0.000 C 
ENDBRANCH   2  14
BRANCH   6  19
ATOM     19  C   UNL     1       4.149   3.961  16.773  0.00  0.00    +0.000 C 
BRANCH  19  20
ATOM     20  C   UNL     1       5.354   4.180  15.887  0.00  0.00    +0.000 A 
ATOM     21  C   UNL     1       5.265   4.327  14.501  0.00  0.00    +0.000 A 
ATOM     22  C   UNL     1       6.389   4.661  13.752  0.00  0.00    +0.000 A 
ATOM     23  C   UNL     1       7.589   4.835  14.419  0.00  0.00    +0.000 A 
ATOM     24  N   UNL     1       7.731   4.684  15.752  0.00  0.00    +0.000 NA
ATOM     25  C   UNL     1       6.614   4.368  16.451  0.00  0.00    +0.000 A 
ENDBRANCH  19  20
ENDBRANCH   6  19
TORSDOF 3
ENDMDL
MODEL 5
REMARK VINA RESULT:      -6.4      2.055      5.051
REMARK  Name = 
REMARK  3 active torsions:
REMARK  status: ('A' for Active; 'I' for Inactive)
REMARK    1  A    between atoms: C_2  and  C_3
REMARK    2  A    between atoms: N_11  and  C_12
REMARK    3  A    between atoms: C_12  and  C_13
REMARK                            x       y       z     vdW  Elec       q    Type
REMARK                         _______ _______ _______ _____ _____    ______ ____
ROOT
ATOM      1  O   UNL     1       3.878   1.507  17.903  0.00  0.00    +0.000 OA
ATOM      2  C   UNL     1       3.239   2.324  18.554  0.00  0.00    +0.000 C 
ATOM      3  N   UNL     1       3.064   3.640  18.124  0.00  0.00    +0.000 N 
ATOM      4  C   UNL     1       2.402   4.714  18.879  0.00  0.00    +0.000 C 
ATOM      5  C   UNL     1       3.310   5.906  19.223  0.00  0.00    +0.000 C 
ATOM      6  N   UNL     1       3.800   6.631  18.061  0.00  0.00    +0.000 N 
ATOM      7  C   UNL     1       4.848   6.073  17.355  0.00  0.00    +0.000 A 
ATOM      8  N   UNL     1       5.986   6.800  17.315  0.00  0.00    +0.000 NA
ATOM      9  C   UNL     1       7.057   6.298  16.669  0.00  0.00    +0.000 A 
ATOM     10  C   UNL     1       7.045   5.097  15.995  0.00  0.00    +0.000 A 
ATOM     11  C   UNL     1       5.870   4.356  16.021  0.00  0.00    +0.000 A 
ATOM     12  C   UNL     1       4.758   4.822  16.738  0.00  0.00    +0.000 A 
ATOM     13  C   UNL     1       3.490   4.010  16.770  0.00  0.00    +0.000 C 
ENDROOT
BRANCH   2  14
ATOM     14  C   UNL     1       2.498   1.916  19.840  0.00  0.00    +0.000 C 
ATOM     15  C   UNL     1       1.116   2.521  20.002  0.00  0.00    +0.000 C 
ATOM     16  C   UNL     1       1.149   3.314  21.287  0.00  0.00    +0.000 C 
ATOM     17  O   UNL     1       2.317   2.942  22.007  0.00  0.00    +0.000 OA
ATOM     18  C   UNL     1       3.221   2.258  21.131  0.00  0.00    +0.000 C 
ENDBRANCH   2  14
BRANCH   6  19
ATOM     19  C   UNL     1       2.963   7.606  17.374  0.00  0.00    +0.000 C 
BRANCH  19  20
ATOM     20  C   UNL     1       2.266   8.567  18.308  0.00  0.00    +0.000 A 
ATOM     21  C   UNL     1       1.864   9.849  17.924  0.00  0.00    +0.000 A 
ATOM     22  C   UNL     1       1.108  10.640  18.784  0.00  0.00    +0.000 A 
ATOM     23  C   UNL     1       0.775  10.121  20.023  0.00  0.00    +0.000 A 
ATOM     24  N   UNL     1       1.155   8.899  20.449  0.00  0.00    +0.000 NA
ATOM     25  C   UNL     1       1.883   8.153  19.583  0.00  0.00    +0.000 A 
ENDBRANCH  19  20
ENDBRANCH   6  19
TORSDOF 3
ENDMDL
MODEL 6
REMARK VINA RESULT:      -6.3      2.513      6.340
REMARK  Name = 
REMARK  3 active torsions:
REMARK  status: ('A' for Active; 'I' for Inactive)
REMARK    1  A    between atoms: C_2  and  C_3
REMARK    2  A    between atoms: N_11  and  C_12
REMARK    3  A    between atoms: C_12  and  C_13
REMARK                            x       y       z     vdW  Elec       q    Type
REMARK                         _______ _______ _______ _____ _____    ______ ____
ROOT
ATOM      1  O   UNL     1       4.252   8.469  17.797  0.00  0.00    +0.000 OA
ATOM      2  C   UNL     1       3.338   7.685  18.023  0.00  0.00    +0.000 C 
ATOM      3  N   UNL     1       3.557   6.313  18.159  0.00  0.00    +0.000 N 
ATOM      4  C   UNL     1       2.517   5.287  18.331  0.00  0.00    +0.000 C 
ATOM      5  C   UNL     1       2.456   4.246  17.201  0.00  0.00    +0.000 C 
ATOM      6  N   UNL     1       3.652   3.426  17.085  0.00  0.00    +0.000 N 
ATOM      7  C   UNL     1       4.753   3.988  16.468  0.00  0.00    +0.000 A 
ATOM      8  N   UNL     1       5.170   3.378  15.337  0.00  0.00    +0.000 NA
ATOM      9  C   UNL     1       6.220   3.895  14.668  0.00  0.00    +0.000 A 
ATOM     10  C   UNL     1       6.934   4.990  15.102  0.00  0.00    +0.000 A 
ATOM     11  C   UNL     1       6.516   5.609  16.273  0.00  0.00    +0.000 A 
ATOM     12  C   UNL     1       5.388   5.133  16.958  0.00  0.00    +0.000 A 
ATOM     13  C   UNL     1       4.934   5.812  18.223  0.00  0.00    +0.000 C 
ENDROOT
BRANCH   2  14
ATOM     14  C   UNL     1       1.905   8.182  18.279  0.00  0.00    +0.000 C 
ATOM     15  C   UNL     1       1.571   9.523  17.653  0.00  0.00    +0.000 C 
ATOM     16  C   UNL     1       1.181  10.436  18.789  0.00  0.00    +0.000 C 
ATOM     17  O   UNL     1       0.962   9.637  19.945  0.00  0.00    +0.000 OA
ATOM     18  C   UNL     1       1.534   8.340  19.743  0.00  0.00    +0.000 C 
ENDBRANCH   2  14
BRANCH   6  19
ATOM     19  C   UNL     1       3.877   2.292  17.972  0.00  0.00    +0.000 C 
BRANCH  19  20
ATOM     20  C   UNL     1       3.040   2.336  19.229  0.00  0.00    +0.000 A 
ATOM     21  C   UNL     1       3.554   2.701  20.476  0.00  0.00    +0.000 A 
ATOM     22  C   UNL     1       2.709   2.855  21.571  0.00  0.00    +0.000 A 
ATOM     23  C   UNL     1       1.356   2.630  21.387  0.00  0.00    +0.000 A 
ATOM     24  N   UNL     1       0.813   2.256  20.210  0.00  0.00    +0.000 NA
ATOM     25  C   UNL     1       1.664   2.125  19.163  0.00  0.00    +0.000 A 
ENDBRANCH  19  20
ENDBRANCH   6  19
TORSDOF 3
ENDMDL
MODEL 7
REMARK VINA RESULT:      -6.1      7.165     10.246
REMARK  Name = 
REMARK  3 active torsions:
REMARK  status: ('A' for Active; 'I' for Inactive)
REMARK    1  A    between atoms: C_2  and  C_3
REMARK    2  A    between atoms: N_11  and  C_12
REMARK    3  A    between atoms: C_12  and  C_13
REMARK                            x       y       z     vdW  Elec       q    Type
REMARK                         _______ _______ _______ _____ _____    ______ ____
ROOT
ATOM      1  O   UNL     1      -3.293  10.838  18.230  0.00  0.00    +0.000 OA
ATOM      2  C   UNL     1      -3.635  11.782  18.932  0.00  0.00    +0.000 C 
ATOM      3  N   UNL     1      -2.750  12.413  19.807  0.00  0.00    +0.000 N 
ATOM      4  C   UNL     1      -3.092  13.482  20.758  0.00  0.00    +0.000 C 
ATOM      5  C   UNL     1      -2.868  13.118  22.235  0.00  0.00    +0.000 C 
ATOM      6  N   UNL     1      -1.478  12.862  22.578  0.00  0.00    +0.000 N 
ATOM      7  C   UNL     1      -0.950  11.635  22.226  0.00  0.00    +0.000 A 
ATOM      8  N   UNL     1      -0.533  10.857  23.249  0.00  0.00    +0.000 NA
ATOM      9  C   UNL     1      -0.036   9.634  22.976  0.00  0.00    +0.000 A 
ATOM     10  C   UNL     1       0.122   9.145  21.698  0.00  0.00    +0.000 A 
ATOM     11  C   UNL     1      -0.292   9.950  20.645  0.00  0.00    +0.000 A 
ATOM     12  C   UNL     1      -0.871  11.202  20.899  0.00  0.00    +0.000 A 
ATOM     13  C   UNL     1      -1.326  12.067  19.753  0.00  0.00    +0.000 C 
ENDROOT
BRANCH   2  14
ATOM     14  C   UNL     1      -5.040  12.399  18.810  0.00  0.00    +0.000 C 
ATOM     15  C   UNL     1      -6.044  11.916  19.839  0.00  0.00    +0.000 C 
ATOM     16  C   UNL     1      -7.178  11.292  19.064  0.00  0.00    +0.000 C 
ATOM     17  O   UNL     1      -7.044  11.671  17.700  0.00  0.00    +0.000 OA
ATOM     18  C   UNL     1      -5.723  12.175  17.473  0.00  0.00    +0.000 C 
ENDBRANCH   2  14
BRANCH   6  19
ATOM     19  C   UNL     1      -0.548  13.957  22.818  0.00  0.00    +0.000 C 
BRANCH  19  20
ATOM     20  C   UNL     1      -1.152  15.100  23.600  0.00  0.00    +0.000 A 
ATOM     21  C   UNL     1      -1.441  15.023  24.965  0.00  0.00    +0.000 A 
ATOM     22  C   UNL     1      -1.870  16.149  25.661  0.00  0.00    +0.000 A 
ATOM     23  C   UNL     1      -2.004  17.336  24.962  0.00  0.00    +0.000 A 
ATOM     24  N   UNL     1      -1.757  17.458  23.642  0.00  0.00    +0.000 NA
ATOM     25  C   UNL     1      -1.333  16.344  22.997  0.00  0.00    +0.000 A 
ENDBRANCH  19  20
ENDBRANCH   6  19
TORSDOF 3
ENDMDL
MODEL 8
REMARK VINA RESULT:      -6.1      6.502      8.671
REMARK  Name = 
REMARK  3 active torsions:
REMARK  status: ('A' for Active; 'I' for Inactive)
REMARK    1  A    between atoms: C_2  and  C_3
REMARK    2  A    between atoms: N_11  and  C_12
REMARK    3  A    between atoms: C_12  and  C_13
REMARK                            x       y       z     vdW  Elec       q    Type
REMARK                         _______ _______ _______ _____ _____    ______ ____
ROOT
ATOM      1  O   UNL     1      -0.788   9.848  17.536  0.00  0.00    +0.000 OA
ATOM      2  C   UNL     1      -1.301  10.921  17.830  0.00  0.00    +0.000 C 
ATOM      3  N   UNL     1      -0.823  11.708  18.878  0.00  0.00    +0.000 N 
ATOM      4  C   UNL     1      -1.430  12.956  19.367  0.00  0.00    +0.000 C 
ATOM      5  C   UNL     1      -1.907  12.904  20.827  0.00  0.00    +0.000 C 
ATOM      6  N   UNL     1      -0.838  12.707  21.793  0.00  0.00    +0.000 N 
ATOM      7  C   UNL     1      -0.339  11.427  21.941  0.00  0.00    +0.000 A 
ATOM      8  N   UNL     1      -0.489  10.873  23.164  0.00  0.00    +0.000 NA
ATOM      9  C   UNL     1      -0.052   9.614  23.367  0.00  0.00    +0.000 A 
ATOM     10  C   UNL     1       0.592   8.868  22.404  0.00  0.00    +0.000 A 
ATOM     11  C   UNL     1       0.761   9.443  21.151  0.00  0.00    +0.000 A 
ATOM     12  C   UNL     1       0.262  10.727  20.890  0.00  0.00    +0.000 A 
ATOM     13  C   UNL     1       0.441  11.342  19.527  0.00  0.00    +0.000 C 
ENDROOT
BRANCH   2  14
ATOM     14  C   UNL     1      -2.442  11.517  16.986  0.00  0.00    +0.000 C 
ATOM     15  C   UNL     1      -3.794  11.556  17.674  0.00  0.00    +0.000 C 
ATOM     16  C   UNL     1      -4.729  10.739  16.816  0.00  0.00    +0.000 C 
ATOM     17  O   UNL     1      -4.100  10.520  15.560  0.00  0.00    +0.000 OA
ATOM     18  C   UNL     1      -2.701  10.807  15.669  0.00  0.00    +0.000 C 
ENDBRANCH   2  14
BRANCH   6  19
ATOM     19  C   UNL     1       0.005  13.817  22.221  0.00  0.00    +0.000 C 
BRANCH  19  20
ATOM     20  C   UNL     1      -0.722  14.830  23.074  0.00  0.00    +0.000 A 
ATOM     21  C   UNL     1      -1.462  14.483  24.207  0.00  0.00    +0.000 A 
ATOM     22  C   UNL     1      -1.997  15.469  25.031  0.00  0.00    +0.000 A 
ATOM     23  C   UNL     1      -1.777  16.792  24.692  0.00  0.00    +0.000 A 
ATOM     24  N   UNL     1      -1.087  17.179  23.600  0.00  0.00    +0.000 NA
ATOM     25  C   UNL     1      -0.573  16.193  22.824  0.00  0.00    +0.000 A 
ENDBRANCH  19  20
ENDBRANCH   6  19
TORSDOF 3
ENDMDL
MODEL 9
REMARK VINA RESULT:      -6.1      7.129      8.798
REMARK  Name = 
REMARK  3 active torsions:
REMARK  status: ('A' for Active; 'I' for Inactive)
REMARK    1  A    between atoms: C_2  and  C_3
REMARK    2  A    between atoms: N_11  and  C_12
REMARK    3  A    between atoms: C_12  and  C_13
REMARK                            x       y       z     vdW  Elec       q    Type
REMARK                         _______ _______ _______ _____ _____    ______ ____
ROOT
ATOM      1  O   UNL     1       2.541  12.223  18.131  0.00  0.00    +0.000 OA
ATOM      2  C   UNL     1       2.064  13.085  18.859  0.00  0.00    +0.000 C 
ATOM      3  N   UNL     1       0.950  12.842  19.663  0.00  0.00    +0.000 N 
ATOM      4  C   UNL     1       0.250  13.836  20.491  0.00  0.00    +0.000 C 
ATOM      5  C   UNL     1      -1.217  14.074  20.098  0.00  0.00    +0.000 C 
ATOM      6  N   UNL     1      -2.071  12.908  20.265  0.00  0.00    +0.000 N 
ATOM      7  C   UNL     1      -2.002  11.923  19.298  0.00  0.00    +0.000 A 
ATOM      8  N   UNL     1      -3.142  11.690  18.611  0.00  0.00    +0.000 NA
ATOM      9  C   UNL     1      -3.135  10.764  17.633  0.00  0.00    +0.000 A 
ATOM     10  C   UNL     1      -2.035   9.994  17.322  0.00  0.00    +0.000 A 
ATOM     11  C   UNL     1      -0.867  10.221  18.039  0.00  0.00    +0.000 A 
ATOM     12  C   UNL     1      -0.825  11.222  19.020  0.00  0.00    +0.000 A 
ATOM     13  C   UNL     1       0.446  11.470  19.789  0.00  0.00    +0.000 C 
ENDROOT
BRANCH   2  14
ATOM     14  C   UNL     1       2.736  14.461  19.012  0.00  0.00    +0.000 C 
ATOM     15  C   UNL     1       3.332  15.028  17.737  0.00  0.00    +0.000 C 
ATOM     16  C   UNL     1       4.803  15.227  18.009  0.00  0.00    +0.000 C 
ATOM     17  O   UNL     1       5.012  15.123  19.411  0.00  0.00    +0.000 OA
ATOM     18  C   UNL     1       3.870  14.511  20.020  0.00  0.00    +0.000 C 
ENDBRANCH   2  14
BRANCH   6  19
ATOM     19  C   UNL     1      -2.594  12.538  21.574  0.00  0.00    +0.000 C 
BRANCH  19  20
ATOM     20  C   UNL     1      -3.917  13.191  21.900  0.00  0.00    +0.000 A 
ATOM     21  C   UNL     1      -5.149  12.643  21.535  0.00  0.00    +0.000 A 
ATOM     22  C   UNL     1      -6.337  13.215  21.979  0.00  0.00    +0.000 A 
ATOM     23  C   UNL     1      -6.259  14.339  22.783  0.00  0.00    +0.000 A 
ATOM     24  N   UNL     1      -5.096  14.918  23.147  0.00  0.00    +0.000 NA
ATOM     25  C   UNL     1      -3.959  14.329  22.704  0.00  0.00    +0.000 A 
ENDBRANCH  19  20
ENDBRANCH   6  19
TORSDOF 3
ENDMDL
