MODEL 1
REMARK VINA RESULT:      -8.6      0.000      0.000
REMARK  Name = 
REMARK  7 active torsions:
REMARK  status: ('A' for Active; 'I' for Inactive)
REMARK    1  A    between atoms: C_3  and  C_4
REMARK    2  A    between atoms: C_7  and  C_8
REMARK    3  A    between atoms: C_8  and  N_9
REMARK    4  A    between atoms: N_9  and  C_10
REMARK    5  A    between atoms: C_10  and  C_11
REMARK    6  A    between atoms: C_11  and  C_12
REMARK    7  A    between atoms: C_21  and  C_22
REMARK                            x       y       z     vdW  Elec       q    Type
REMARK                         _______ _______ _______ _____ _____    ______ ____
ROOT
ATOM      1  C   UNL     1       1.341   9.156  19.320  0.00  0.00    +0.000 A 
ATOM      2  C   UNL     1       2.009   8.502  18.267  0.00  0.00    +0.000 A 
ATOM      3  C   UNL     1       2.514   7.211  18.419  0.00  0.00    +0.000 A 
ATOM      4  C   UNL     1       2.402   6.548  19.644  0.00  0.00    +0.000 A 
ATOM      5  C   UNL     1       1.782   7.194  20.714  0.00  0.00    +0.000 A 
ATOM      6  C   UNL     1       1.256   8.473  20.548  0.00  0.00    +0.000 A 
ENDROOT
BRANCH   1   9
ATOM      7  C   UNL     1       0.805  12.802  18.477  0.00  0.00    +0.000 A 
ATOM      8  C   UNL     1       1.414  11.594  18.783  0.00  0.00    +0.000 A 
ATOM      9  C   UNL     1       0.659  10.454  19.126  0.00  0.00    +0.000 A 
ATOM     10  C   UNL     1      -0.752  10.582  19.178  0.00  0.00    +0.000 A 
ATOM     11  C   UNL     1      -1.379  11.779  18.820  0.00  0.00    +0.000 A 
ATOM     12  C   UNL     1      -0.578  12.884  18.480  0.00  0.00    +0.000 A 
BRANCH  11  13
ATOM     13  C   UNL     1      -2.833  11.976  18.736  0.00  0.00    +0.000 A 
ATOM     14  N   UNL     1      -3.573  12.247  19.795  0.00  0.00    +0.000 NA
ATOM     15  C   UNL     1      -4.859  12.332  19.361  0.00  0.00    +0.000 A 
ATOM     16  C   UNL     1      -6.013  12.576  20.113  0.00  0.00    +0.000 A 
ATOM     17  C   UNL     1      -7.243  12.575  19.456  0.00  0.00    +0.000 A 
ATOM     18  C   UNL     1      -7.310  12.352  18.078  0.00  0.00    +0.000 A 
ATOM     19  C   UNL     1      -6.156  12.135  17.308  0.00  0.00    +0.000 A 
ATOM     20  C   UNL     1      -4.936  12.127  17.991  0.00  0.00    +0.000 A 
ATOM     21  N   UNL     1      -3.626  11.943  17.609  0.00  0.00    +0.000 N 
ATOM     22  H   UNL     1      -3.309  11.800  16.662  0.00  0.00    +0.000 HD
ENDBRANCH  11  13
ENDBRANCH   1   9
BRANCH   4  23
ATOM     23  C   UNL     1       2.880   5.132  19.787  0.00  0.00    +0.000 C 
BRANCH  23  24
ATOM     24  N   UNL     1       2.713   4.393  18.538  0.00  0.00    +0.000 NA
ATOM     25  H   UNL     1       2.644   5.065  17.774  0.00  0.00    +0.000 HD
BRANCH  24  26
ATOM     26  C   UNL     1       3.829   3.480  18.288  0.00  0.00    +0.000 C 
BRANCH  26  27
ATOM     27  C   UNL     1       5.147   3.993  18.888  0.00  0.00    +0.000 C 
BRANCH  27  28
ATOM     28  C   UNL     1       5.968   4.765  17.898  0.00  0.00    +0.000 A 
ATOM     29  C   UNL     1       6.054   4.344  16.563  0.00  0.00    +0.000 A 
ATOM     30  C   UNL     1       6.802   5.105  15.679  0.00  0.00    +0.000 A 
ATOM     31  N   UNL     1       7.467   6.223  16.032  0.00  0.00    +0.000 NA
ATOM     32  C   UNL     1       7.374   6.602  17.324  0.00  0.00    +0.000 A 
ATOM     33  C   UNL     1       6.653   5.913  18.286  0.00  0.00    +0.000 A 
ENDBRANCH  27  28
ENDBRANCH  26  27
ENDBRANCH  24  26
ENDBRANCH  23  24
ENDBRANCH   4  23
TORSDOF 7
ENDMDL
MODEL 2
REMARK VINA RESULT:      -8.5      0.563      1.434
REMARK  Name = 
REMARK  7 active torsions:
REMARK  status: ('A' for Active; 'I' for Inactive)
REMARK    1  A    between atoms: C_3  and  C_4
REMARK    2  A    between atoms: C_7  and  C_8
REMARK    3  A    between atoms: C_8  and  N_9
REMARK    4  A    between atoms: N_9  and  C_10
REMARK    5  A    between atoms: C_10  and  C_11
REMARK    6  A    between atoms: C_11  and  C_12
REMARK    7  A    between atoms: C_21  and  C_22
REMARK                            x       y       z     vdW  Elec       q    Type
REMARK                         _______ _______ _______ _____ _____    ______ ____
ROOT
ATOM      1  C   UNL     1       1.407   9.132  19.180  0.00  0.00    +0.000 A 
ATOM      2  C   UNL     1       2.033   8.538  18.066  0.00  0.00    +0.000 A 
ATOM      3  C   UNL     1       2.544   7.242  18.127  0.00  0.00    +0.000 A 
ATOM      4  C   UNL     1       2.481   6.513  19.318  0.00  0.00    +0.000 A 
ATOM      5  C   UNL     1       1.904   7.097  20.445  0.00  0.00    +0.000 A 
ATOM      6  C   UNL     1       1.371   8.382  20.371  0.00  0.00    +0.000 A 
ENDROOT
BRANCH   1   9
ATOM      7  C   UNL     1       0.824  12.807  18.520  0.00  0.00    +0.000 A 
ATOM      8  C   UNL     1       1.449  11.589  18.735  0.00  0.00    +0.000 A 
ATOM      9  C   UNL     1       0.717  10.436  19.085  0.00  0.00    +0.000 A 
ATOM     10  C   UNL     1      -0.686  10.563  19.240  0.00  0.00    +0.000 A 
ATOM     11  C   UNL     1      -1.334  11.772  18.974  0.00  0.00    +0.000 A 
ATOM     12  C   UNL     1      -0.556  12.890  18.622  0.00  0.00    +0.000 A 
BRANCH  11  13
ATOM     13  C   UNL     1      -2.790  11.973  18.999  0.00  0.00    +0.000 A 
ATOM     14  N   UNL     1      -3.597  11.418  18.115  0.00  0.00    +0.000 NA
ATOM     15  C   UNL     1      -4.854  11.840  18.415  0.00  0.00    +0.000 A 
ATOM     16  C   UNL     1      -6.049  11.544  17.750  0.00  0.00    +0.000 A 
ATOM     17  C   UNL     1      -7.226  12.131  18.213  0.00  0.00    +0.000 A 
ATOM     18  C   UNL     1      -7.206  12.979  19.324  0.00  0.00    +0.000 A 
ATOM     19  C   UNL     1      -6.017  13.260  20.017  0.00  0.00    +0.000 A 
ATOM     20  C   UNL     1      -4.848  12.670  19.525  0.00  0.00    +0.000 A 
ATOM     21  N   UNL     1      -3.524  12.707  19.904  0.00  0.00    +0.000 N 
ATOM     22  H   UNL     1      -3.161  13.199  20.708  0.00  0.00    +0.000 HD
ENDBRANCH  11  13
ENDBRANCH   1   9
BRANCH   4  23
ATOM     23  C   UNL     1       2.966   5.092  19.363  0.00  0.00    +0.000 C 
BRANCH  23  24
ATOM     24  N   UNL     1       2.206   4.249  18.444  0.00  0.00    +0.000 NA
ATOM     25  H   UNL     1       1.428   4.795  18.075  0.00  0.00    +0.000 HD
BRANCH  24  26
ATOM     26  C   UNL     1       3.031   3.763  17.337  0.00  0.00    +0.000 C 
BRANCH  26  27
ATOM     27  C   UNL     1       4.475   3.470  17.771  0.00  0.00    +0.000 C 
BRANCH  27  28
ATOM     28  C   UNL     1       5.482   4.268  16.995  0.00  0.00    +0.000 A 
ATOM     29  C   UNL     1       6.214   5.288  17.620  0.00  0.00    +0.000 A 
ATOM     30  C   UNL     1       7.153   5.979  16.871  0.00  0.00    +0.000 A 
ATOM     31  N   UNL     1       7.395   5.735  15.567  0.00  0.00    +0.000 NA
ATOM     32  C   UNL     1       6.672   4.753  14.988  0.00  0.00    +0.000 A 
ATOM     33  C   UNL     1       5.711   4.005  15.648  0.00  0.00    +0.000 A 
ENDBRANCH  27  28
ENDBRANCH  26  27
ENDBRANCH  24  26
ENDBRANCH  23  24
ENDBRANCH   4  23
TORSDOF 7
ENDMDL
MODEL 3
REMARK VINA RESULT:      -8.4      0.738      1.199
REMARK  Name = 
REMARK  7 active torsions:
REMARK  status: ('A' for Active; 'I' for Inactive)
REMARK    1  A    between atoms: C_3  and  C_4
REMARK    2  A    between atoms: C_7  and  C_8
REMARK    3  A    between atoms: C_8  and  N_9
REMARK    4  A    between atoms: N_9  and  C_10
REMARK    5  A    between atoms: C_10  and  C_11
REMARK    6  A    between atoms: C_11  and  C_12
REMARK    7  A    between atoms: C_21  and  C_22
REMARK                            x       y       z     vdW  Elec       q    Type
REMARK                         _______ _______ _______ _____ _____    ______ ____
ROOT
ATOM      1  C   UNL     1       1.194   9.219  19.131  0.00  0.00    +0.000 A 
ATOM      2  C   UNL     1       1.200   8.436  20.303  0.00  0.00    +0.000 A 
ATOM      3  C   UNL     1       1.977   7.282  20.400  0.00  0.00    +0.000 A 
ATOM      4  C   UNL     1       2.742   6.852  19.312  0.00  0.00    +0.000 A 
ATOM      5  C   UNL     1       2.718   7.589  18.128  0.00  0.00    +0.000 A 
ATOM      6  C   UNL     1       1.961   8.755  18.046  0.00  0.00    +0.000 A 
ENDROOT
BRANCH   1   9
ATOM      7  C   UNL     1       0.633  12.920  18.604  0.00  0.00    +0.000 A 
ATOM      8  C   UNL     1       1.251  11.692  18.788  0.00  0.00    +0.000 A 
ATOM      9  C   UNL     1       0.508  10.527  19.070  0.00  0.00    +0.000 A 
ATOM     10  C   UNL     1      -0.899  10.650  19.189  0.00  0.00    +0.000 A 
ATOM     11  C   UNL     1      -1.538  11.871  18.953  0.00  0.00    +0.000 A 
ATOM     12  C   UNL     1      -0.749  13.001  18.670  0.00  0.00    +0.000 A 
BRANCH  11  13
ATOM     13  C   UNL     1      -2.994  12.073  18.944  0.00  0.00    +0.000 A 
ATOM     14  N   UNL     1      -3.658  12.486  20.008  0.00  0.00    +0.000 NA
ATOM     15  C   UNL     1      -4.970  12.530  19.656  0.00  0.00    +0.000 A 
ATOM     16  C   UNL     1      -6.068  12.882  20.448  0.00  0.00    +0.000 A 
ATOM     17  C   UNL     1      -7.341  12.811  19.883  0.00  0.00    +0.000 A 
ATOM     18  C   UNL     1      -7.505  12.414  18.553  0.00  0.00    +0.000 A 
ATOM     19  C   UNL     1      -6.408  12.087  17.740  0.00  0.00    +0.000 A 
ATOM     20  C   UNL     1      -5.143  12.152  18.333  0.00  0.00    +0.000 A 
ATOM     21  N   UNL     1      -3.863  11.905  17.889  0.00  0.00    +0.000 N 
ATOM     22  H   UNL     1      -3.613  11.637  16.948  0.00  0.00    +0.000 HD
ENDBRANCH  11  13
ENDBRANCH   1   9
BRANCH   4  23
ATOM     23  C   UNL     1       3.634   5.651  19.441  0.00  0.00    +0.000 C 
BRANCH  23  24
ATOM     24  N   UNL     1       2.938   4.434  19.033  0.00  0.00    +0.000 NA
ATOM     25  H   UNL     1       1.962   4.511  19.319  0.00  0.00    +0.000 HD
BRANCH  24  26
ATOM     26  C   UNL     1       3.008   4.221  17.586  0.00  0.00    +0.000 C 
BRANCH  26  27
ATOM     27  C   UNL     1       4.172   3.301  17.188  0.00  0.00    +0.000 C 
BRANCH  27  28
ATOM     28  C   UNL     1       5.317   4.054  16.578  0.00  0.00    +0.000 A 
ATOM     29  C   UNL     1       5.433   4.166  15.185  0.00  0.00    +0.000 A 
ATOM     30  C   UNL     1       6.492   4.895  14.668  0.00  0.00    +0.000 A 
ATOM     31  N   UNL     1       7.430   5.494  15.430  0.00  0.00    +0.000 NA
ATOM     32  C   UNL     1       7.299   5.365  16.767  0.00  0.00    +0.000 A 
ATOM     33  C   UNL     1       6.279   4.659  17.383  0.00  0.00    +0.000 A 
ENDBRANCH  27  28
ENDBRANCH  26  27
ENDBRANCH  24  26
ENDBRANCH  23  24
ENDBRANCH   4  23
TORSDOF 7
ENDMDL
MODEL 4
REMARK VINA RESULT:      -8.3      3.409      5.229
REMARK  Name = 
REMARK  7 active torsions:
REMARK  status: ('A' for Active; 'I' for Inactive)
REMARK    1  A    between atoms: C_3  and  C_4
REMARK    2  A    between atoms: C_7  and  C_8
REMARK    3  A    between atoms: C_8  and  N_9
REMARK    4  A    between atoms: N_9  and  C_10
REMARK    5  A    between atoms: C_10  and  C_11
REMARK    6  A    between atoms: C_11  and  C_12
REMARK    7  A    between atoms: C_21  and  C_22
REMARK                            x       y       z     vdW  Elec       q    Type
REMARK                         _______ _______ _______ _____ _____    ______ ____
ROOT
ATOM      1  C   UNL     1       1.604   8.692  19.369  0.00  0.00    +0.000 A 
ATOM      2  C   UNL     1       1.823   7.566  20.186  0.00  0.00    +0.000 A 
ATOM      3  C   UNL     1       2.677   6.537  19.789  0.00  0.00    +0.000 A 
ATOM      4  C   UNL     1       3.307   6.583  18.543  0.00  0.00    +0.000 A 
ATOM      5  C   UNL     1       3.072   7.669  17.699  0.00  0.00    +0.000 A 
ATOM      6  C   UNL     1       2.239   8.707  18.113  0.00  0.00    +0.000 A 
ENDROOT
BRANCH   1   9
ATOM      7  C   UNL     1      -0.645  10.837  21.521  0.00  0.00    +0.000 A 
ATOM      8  C   UNL     1       0.001   9.739  20.973  0.00  0.00    +0.000 A 
ATOM      9  C   UNL     1       0.835   9.863  19.843  0.00  0.00    +0.000 A 
ATOM     10  C   UNL     1       0.975  11.147  19.259  0.00  0.00    +0.000 A 
ATOM     11  C   UNL     1       0.372  12.269  19.834  0.00  0.00    +0.000 A 
ATOM     12  C   UNL     1      -0.445  12.090  20.964  0.00  0.00    +0.000 A 
BRANCH  11  13
ATOM     13  C   UNL     1       0.547  13.652  19.368  0.00  0.00    +0.000 A 
ATOM     14  N   UNL     1      -0.474  14.459  19.147  0.00  0.00    +0.000 NA
ATOM     15  C   UNL     1       0.046  15.633  18.700  0.00  0.00    +0.000 A 
ATOM     16  C   UNL     1      -0.636  16.790  18.308  0.00  0.00    +0.000 A 
ATOM     17  C   UNL     1       0.109  17.869  17.836  0.00  0.00    +0.000 A 
ATOM     18  C   UNL     1       1.503  17.796  17.775  0.00  0.00    +0.000 A 
ATOM     19  C   UNL     1       2.201  16.651  18.194  0.00  0.00    +0.000 A 
ATOM     20  C   UNL     1       1.431  15.576  18.650  0.00  0.00    +0.000 A 
ATOM     21  N   UNL     1       1.728  14.316  19.120  0.00  0.00    +0.000 N 
ATOM     22  H   UNL     1       2.659  13.947  19.250  0.00  0.00    +0.000 HD
ENDBRANCH  11  13
ENDBRANCH   1   9
BRANCH   4  23
ATOM     23  C   UNL     1       4.282   5.512  18.146  0.00  0.00    +0.000 C 
BRANCH  23  24
ATOM     24  N   UNL     1       3.805   4.773  16.980  0.00  0.00    +0.000 NA
ATOM     25  H   UNL     1       4.349   5.067  16.169  0.00  0.00    +0.000 HD
BRANCH  24  26
ATOM     26  C   UNL     1       3.935   3.326  17.158  0.00  0.00    +0.000 C 
BRANCH  26  27
ATOM     27  C   UNL     1       2.610   2.669  17.572  0.00  0.00    +0.000 C 
BRANCH  27  28
ATOM     28  C   UNL     1       2.358   2.761  19.048  0.00  0.00    +0.000 A 
ATOM     29  C   UNL     1       3.372   2.441  19.964  0.00  0.00    +0.000 A 
ATOM     30  C   UNL     1       3.102   2.568  21.317  0.00  0.00    +0.000 A 
ATOM     31  N   UNL     1       1.912   2.969  21.807  0.00  0.00    +0.000 NA
ATOM     32  C   UNL     1       0.952   3.264  20.905  0.00  0.00    +0.000 A 
ATOM     33  C   UNL     1       1.120   3.171  19.534  0.00  0.00    +0.000 A 
ENDBRANCH  27  28
ENDBRANCH  26  27
ENDBRANCH  24  26
ENDBRANCH  23  24
ENDBRANCH   4  23
TORSDOF 7
ENDMDL
MODEL 5
REMARK VINA RESULT:      -8.2      1.752      3.268
REMARK  Name = 
REMARK  7 active torsions:
REMARK  status: ('A' for Active; 'I' for Inactive)
REMARK    1  A    between atoms: C_3  and  C_4
REMARK    2  A    between atoms: C_7  and  C_8
REMARK    3  A    between atoms: C_8  and  N_9
REMARK    4  A    between atoms: N_9  and  C_10
REMARK    5  A    between atoms: C_10  and  C_11
REMARK    6  A    between atoms: C_11  and  C_12
REMARK    7  A    between atoms: C_21  and  C_22
REMARK                            x       y       z     vdW  Elec       q    Type
REMARK                         _______ _______ _______ _____ _____    ______ ____
ROOT
ATOM      1  C   UNL     1       1.153   9.286  19.342  0.00  0.00    +0.000 A 
ATOM      2  C   UNL     1       1.466   8.202  20.185  0.00  0.00    +0.000 A 
ATOM      3  C   UNL     1       2.344   7.197  19.778  0.00  0.00    +0.000 A 
ATOM      4  C   UNL     1       2.906   7.225  18.499  0.00  0.00    +0.000 A 
ATOM      5  C   UNL     1       2.576   8.267  17.632  0.00  0.00    +0.000 A 
ATOM      6  C   UNL     1       1.720   9.282  18.054  0.00  0.00    +0.000 A 
ENDROOT
BRANCH   1   9
ATOM      7  C   UNL     1       0.308  12.630  20.889  0.00  0.00    +0.000 A 
ATOM      8  C   UNL     1       0.990  11.477  20.530  0.00  0.00    +0.000 A 
ATOM      9  C   UNL     1       0.357  10.439  19.816  0.00  0.00    +0.000 A 
ATOM     10  C   UNL     1      -1.015  10.593  19.496  0.00  0.00    +0.000 A 
ATOM     11  C   UNL     1      -1.698  11.772  19.806  0.00  0.00    +0.000 A 
ATOM     12  C   UNL     1      -1.017  12.780  20.514  0.00  0.00    +0.000 A 
BRANCH  11  13
ATOM     13  C   UNL     1      -3.085  12.070  19.421  0.00  0.00    +0.000 A 
ATOM     14  N   UNL     1      -3.949  12.621  20.254  0.00  0.00    +0.000 NA
ATOM     15  C   UNL     1      -5.128  12.721  19.584  0.00  0.00    +0.000 A 
ATOM     16  C   UNL     1      -6.350  13.215  20.051  0.00  0.00    +0.000 A 
ATOM     17  C   UNL     1      -7.449  13.179  19.193  0.00  0.00    +0.000 A 
ATOM     18  C   UNL     1      -7.319  12.675  17.896  0.00  0.00    +0.000 A 
ATOM     19  C   UNL     1      -6.090  12.203  17.407  0.00  0.00    +0.000 A 
ATOM     20  C   UNL     1      -5.006  12.237  18.290  0.00  0.00    +0.000 A 
ATOM     21  N   UNL     1      -3.683  11.866  18.197  0.00  0.00    +0.000 N 
ATOM     22  H   UNL     1      -3.237  11.499  17.369  0.00  0.00    +0.000 HD
ENDBRANCH  11  13
ENDBRANCH   1   9
BRANCH   4  23
ATOM     23  C   UNL     1       3.906   6.184  18.087  0.00  0.00    +0.000 C 
BRANCH  23  24
ATOM     24  N   UNL     1       3.265   5.106  17.339  0.00  0.00    +0.000 NA
ATOM     25  H   UNL     1       3.161   5.405  16.370  0.00  0.00    +0.000 HD
BRANCH  24  26
ATOM     26  C   UNL     1       4.044   3.867  17.387  0.00  0.00    +0.000 C 
BRANCH  26  27
ATOM     27  C   UNL     1       3.185   2.654  17.773  0.00  0.00    +0.000 C 
BRANCH  27  28
ATOM     28  C   UNL     1       2.644   2.752  19.168  0.00  0.00    +0.000 A 
ATOM     29  C   UNL     1       1.294   3.064  19.387  0.00  0.00    +0.000 A 
ATOM     30  C   UNL     1       0.833   3.116  20.693  0.00  0.00    +0.000 A 
ATOM     31  N   UNL     1       1.613   2.896  21.771  0.00  0.00    +0.000 NA
ATOM     32  C   UNL     1       2.909   2.604  21.532  0.00  0.00    +0.000 A 
ATOM     33  C   UNL     1       3.469   2.528  20.268  0.00  0.00    +0.000 A 
ENDBRANCH  27  28
ENDBRANCH  26  27
ENDBRANCH  24  26
ENDBRANCH  23  24
ENDBRANCH   4  23
TORSDOF 7
ENDMDL
MODEL 6
REMARK VINA RESULT:      -8.2      3.020      4.656
REMARK  Name = 
REMARK  7 active torsions:
REMARK  status: ('A' for Active; 'I' for Inactive)
REMARK    1  A    between atoms: C_3  and  C_4
REMARK    2  A    between atoms: C_7  and  C_8
REMARK    3  A    between atoms: C_8  and  N_9
REMARK    4  A    between atoms: N_9  and  C_10
REMARK    5  A    between atoms: C_10  and  C_11
REMARK    6  A    between atoms: C_11  and  C_12
REMARK    7  A    between atoms: C_21  and  C_22
REMARK                            x       y       z     vdW  Elec       q    Type
REMARK                         _______ _______ _______ _____ _____    ______ ____
ROOT
ATOM      1  C   UNL     1       1.231   9.046  18.877  0.00  0.00    +0.000 A 
ATOM      2  C   UNL     1       2.084   8.994  17.757  0.00  0.00    +0.000 A 
ATOM      3  C   UNL     1       3.040   7.987  17.620  0.00  0.00    +0.000 A 
ATOM      4  C   UNL     1       3.199   7.022  18.619  0.00  0.00    +0.000 A 
ATOM      5  C   UNL     1       2.393   7.080  19.756  0.00  0.00    +0.000 A 
ATOM      6  C   UNL     1       1.423   8.072  19.875  0.00  0.00    +0.000 A 
ENDROOT
BRANCH   1   9
ATOM      7  C   UNL     1      -1.986  10.838  18.025  0.00  0.00    +0.000 A 
ATOM      8  C   UNL     1      -0.856  10.039  17.932  0.00  0.00    +0.000 A 
ATOM      9  C   UNL     1       0.109  10.005  18.959  0.00  0.00    +0.000 A 
ATOM     10  C   UNL     1      -0.094  10.837  20.089  0.00  0.00    +0.000 A 
ATOM     11  C   UNL     1      -1.254  11.605  20.218  0.00  0.00    +0.000 A 
ATOM     12  C   UNL     1      -2.188  11.598  19.166  0.00  0.00    +0.000 A 
BRANCH  11  13
ATOM     13  C   UNL     1      -1.606  12.411  21.396  0.00  0.00    +0.000 A 
ATOM     14  N   UNL     1      -0.779  13.296  21.921  0.00  0.00    +0.000 NA
ATOM     15  C   UNL     1      -1.409  13.825  23.003  0.00  0.00    +0.000 A 
ATOM     16  C   UNL     1      -0.930  14.785  23.901  0.00  0.00    +0.000 A 
ATOM     17  C   UNL     1      -1.741  15.149  24.975  0.00  0.00    +0.000 A 
ATOM     18  C   UNL     1      -3.007  14.577  25.133  0.00  0.00    +0.000 A 
ATOM     19  C   UNL     1      -3.510  13.635  24.221  0.00  0.00    +0.000 A 
ATOM     20  C   UNL     1      -2.672  13.276  23.160  0.00  0.00    +0.000 A 
ATOM     21  N   UNL     1      -2.790  12.406  22.099  0.00  0.00    +0.000 N 
ATOM     22  H   UNL     1      -3.609  11.855  21.884  0.00  0.00    +0.000 HD
ENDBRANCH  11  13
ENDBRANCH   1   9
BRANCH   4  23
ATOM     23  C   UNL     1       4.176   5.897  18.438  0.00  0.00    +0.000 C 
BRANCH  23  24
ATOM     24  N   UNL     1       4.015   5.267  17.130  0.00  0.00    +0.000 NA
ATOM     25  H   UNL     1       4.868   5.422  16.592  0.00  0.00    +0.000 HD
BRANCH  24  26
ATOM     26  C   UNL     1       3.762   3.830  17.241  0.00  0.00    +0.000 C 
BRANCH  26  27
ATOM     27  C   UNL     1       2.328   3.524  17.699  0.00  0.00    +0.000 C 
BRANCH  27  28
ATOM     28  C   UNL     1       2.244   3.218  19.165  0.00  0.00    +0.000 A 
ATOM     29  C   UNL     1       3.354   2.697  19.847  0.00  0.00    +0.000 A 
ATOM     30  C   UNL     1       3.238   2.457  21.207  0.00  0.00    +0.000 A 
ATOM     31  N   UNL     1       2.111   2.682  21.913  0.00  0.00    +0.000 NA
ATOM     32  C   UNL     1       1.057   3.178  21.231  0.00  0.00    +0.000 A 
ATOM     33  C   UNL     1       1.069   3.453  19.874  0.00  0.00    +0.000 A 
ENDBRANCH  27  28
ENDBRANCH  26  27
ENDBRANCH  24  26
ENDBRANCH  23  24
ENDBRANCH   4  23
TORSDOF 7
ENDMDL
MODEL 7
REMARK VINA RESULT:      -8.2      1.789      3.488
REMARK  Name = 
REMARK  7 active torsions:
REMARK  status: ('A' for Active; 'I' for Inactive)
REMARK    1  A    between atoms: C_3  and  C_4
REMARK    2  A    between atoms: C_7  and  C_8
REMARK    3  A    between atoms: C_8  and  N_9
REMARK    4  A    between atoms: N_9  and  C_10
REMARK    5  A    between atoms: C_10  and  C_11
REMARK    6  A    between atoms: C_11  and  C_12
REMARK    7  A    between atoms: C_21  and  C_22
REMARK                            x       y       z     vdW  Elec       q    Type
REMARK                         _______ _______ _______ _____ _____    ______ ____
ROOT
ATOM      1  C   UNL     1       1.382   8.917  19.438  0.00  0.00    +0.000 A 
ATOM      2  C   UNL     1       1.664   7.802  20.251  0.00  0.00    +0.000 A 
ATOM      3  C   UNL     1       2.545   6.804  19.834  0.00  0.00    +0.000 A 
ATOM      4  C   UNL     1       3.142   6.872  18.572  0.00  0.00    +0.000 A 
ATOM      5  C   UNL     1       2.845   7.946  17.733  0.00  0.00    +0.000 A 
ATOM      6  C   UNL     1       1.984   8.952  18.166  0.00  0.00    +0.000 A 
ENDROOT
BRANCH   1   9
ATOM      7  C   UNL     1       0.514  12.192  21.114  0.00  0.00    +0.000 A 
ATOM      8  C   UNL     1       1.193  11.045  20.730  0.00  0.00    +0.000 A 
ATOM      9  C   UNL     1       0.582  10.059  19.929  0.00  0.00    +0.000 A 
ATOM     10  C   UNL     1      -0.768  10.258  19.546  0.00  0.00    +0.000 A 
ATOM     11  C   UNL     1      -1.445  11.433  19.881  0.00  0.00    +0.000 A 
ATOM     12  C   UNL     1      -0.787  12.388  20.678  0.00  0.00    +0.000 A 
BRANCH  11  13
ATOM     13  C   UNL     1      -2.804  11.779  19.439  0.00  0.00    +0.000 A 
ATOM     14  N   UNL     1      -3.292  11.388  18.277  0.00  0.00    +0.000 NA
ATOM     15  C   UNL     1      -4.544  11.909  18.184  0.00  0.00    +0.000 A 
ATOM     16  C   UNL     1      -5.454  11.796  17.126  0.00  0.00    +0.000 A 
ATOM     17  C   UNL     1      -6.676  12.457  17.232  0.00  0.00    +0.000 A 
ATOM     18  C   UNL     1      -6.984  13.199  18.375  0.00  0.00    +0.000 A 
ATOM     19  C   UNL     1      -6.092  13.295  19.456  0.00  0.00    +0.000 A 
ATOM     20  C   UNL     1      -4.866  12.634  19.320  0.00  0.00    +0.000 A 
ATOM     21  N   UNL     1      -3.756  12.503  20.124  0.00  0.00    +0.000 N 
ATOM     22  H   UNL     1      -3.660  12.883  21.054  0.00  0.00    +0.000 HD
ENDBRANCH  11  13
ENDBRANCH   1   9
BRANCH   4  23
ATOM     23  C   UNL     1       4.146   5.837  18.152  0.00  0.00    +0.000 C 
BRANCH  23  24
ATOM     24  N   UNL     1       3.694   5.119  16.963  0.00  0.00    +0.000 NA
ATOM     25  H   UNL     1       4.354   5.302  16.207  0.00  0.00    +0.000 HD
BRANCH  24  26
ATOM     26  C   UNL     1       3.606   3.676  17.195  0.00  0.00    +0.000 C 
BRANCH  26  27
ATOM     27  C   UNL     1       2.226   3.254  17.721  0.00  0.00    +0.000 C 
BRANCH  27  28
ATOM     28  C   UNL     1       2.222   3.018  19.203  0.00  0.00    +0.000 A 
ATOM     29  C   UNL     1       1.054   3.221  19.952  0.00  0.00    +0.000 A 
ATOM     30  C   UNL     1       1.091   2.962  21.313  0.00  0.00    +0.000 A 
ATOM     31  N   UNL     1       2.194   2.538  21.964  0.00  0.00    +0.000 NA
ATOM     32  C   UNL     1       3.305   2.357  21.220  0.00  0.00    +0.000 A 
ATOM     33  C   UNL     1       3.373   2.587  19.856  0.00  0.00    +0.000 A 
ENDBRANCH  27  28
ENDBRANCH  26  27
ENDBRANCH  24  26
ENDBRANCH  23  24
ENDBRANCH   4  23
TORSDOF 7
ENDMDL
MODEL 8
REMARK VINA RESULT:      -8.2      2.943     10.533
REMARK  Name = 
REMARK  7 active torsions:
REMARK  status: ('A' for Active; 'I' for Inactive)
REMARK    1  A    between atoms: C_3  and  C_4
REMARK    2  A    between atoms: C_7  and  C_8
REMARK    3  A    between atoms: C_8  and  N_9
REMARK    4  A    between atoms: N_9  and  C_10
REMARK    5  A    between atoms: C_10  and  C_11
REMARK    6  A    between atoms: C_11  and  C_12
REMARK    7  A    between atoms: C_21  and  C_22
REMARK                            x       y       z     vdW  Elec       q    Type
REMARK                         _______ _______ _______ _____ _____    ______ ____
ROOT
ATOM      1  C   UNL     1       2.394   7.779  18.962  0.00  0.00    +0.000 A 
ATOM      2  C   UNL     1       1.744   7.973  20.196  0.00  0.00    +0.000 A 
ATOM      3  C   UNL     1       0.824   9.005  20.377  0.00  0.00    +0.000 A 
ATOM      4  C   UNL     1       0.556   9.903  19.340  0.00  0.00    +0.000 A 
ATOM      5  C   UNL     1       1.221   9.756  18.122  0.00  0.00    +0.000 A 
ATOM      6  C   UNL     1       2.118   8.706  17.939  0.00  0.00    +0.000 A 
ENDROOT
BRANCH   1   9
ATOM      7  C   UNL     1       3.965   4.367  19.384  0.00  0.00    +0.000 A 
ATOM      8  C   UNL     1       3.276   5.543  19.640  0.00  0.00    +0.000 A 
ATOM      9  C   UNL     1       3.244   6.597  18.703  0.00  0.00    +0.000 A 
ATOM     10  C   UNL     1       3.964   6.432  17.493  0.00  0.00    +0.000 A 
ATOM     11  C   UNL     1       4.616   5.231  17.202  0.00  0.00    +0.000 A 
ATOM     12  C   UNL     1       4.613   4.210  18.170  0.00  0.00    +0.000 A 
BRANCH  11  13
ATOM     13  C   UNL     1       5.294   4.925  15.934  0.00  0.00    +0.000 A 
ATOM     14  N   UNL     1       6.357   5.588  15.521  0.00  0.00    +0.000 NA
ATOM     15  C   UNL     1       6.696   5.069  14.311  0.00  0.00    +0.000 A 
ATOM     16  C   UNL     1       7.739   5.457  13.462  0.00  0.00    +0.000 A 
ATOM     17  C   UNL     1       7.871   4.806  12.237  0.00  0.00    +0.000 A 
ATOM     18  C   UNL     1       6.990   3.781  11.880  0.00  0.00    +0.000 A 
ATOM     19  C   UNL     1       5.958   3.363  12.736  0.00  0.00    +0.000 A 
ATOM     20  C   UNL     1       5.837   4.041  13.954  0.00  0.00    +0.000 A 
ATOM     21  N   UNL     1       4.976   3.940  15.024  0.00  0.00    +0.000 N 
ATOM     22  H   UNL     1       4.235   3.261  15.115  0.00  0.00    +0.000 HD
ENDBRANCH  11  13
ENDBRANCH   1   9
BRANCH   4  23
ATOM     23  C   UNL     1      -0.487  10.969  19.510  0.00  0.00    +0.000 C 
BRANCH  23  24
ATOM     24  N   UNL     1      -0.906  11.506  18.218  0.00  0.00    +0.000 NA
ATOM     25  H   UNL     1      -1.892  11.284  18.084  0.00  0.00    +0.000 HD
BRANCH  24  26
ATOM     26  C   UNL     1      -0.715  12.955  18.138  0.00  0.00    +0.000 C 
BRANCH  26  27
ATOM     27  C   UNL     1       0.072  13.506  19.336  0.00  0.00    +0.000 C 
BRANCH  27  28
ATOM     28  C   UNL     1       1.330  14.212  18.923  0.00  0.00    +0.000 A 
ATOM     29  C   UNL     1       2.490  13.481  18.623  0.00  0.00    +0.000 A 
ATOM     30  C   UNL     1       3.619  14.175  18.218  0.00  0.00    +0.000 A 
ATOM     31  N   UNL     1       3.672  15.518  18.109  0.00  0.00    +0.000 NA
ATOM     32  C   UNL     1       2.545  16.197  18.410  0.00  0.00    +0.000 A 
ATOM     33  C   UNL     1       1.366  15.600  18.823  0.00  0.00    +0.000 A 
ENDBRANCH  27  28
ENDBRANCH  26  27
ENDBRANCH  24  26
ENDBRANCH  23  24
ENDBRANCH   4  23
TORSDOF 7
ENDMDL
MODEL 9
REMARK VINA RESULT:      -8.2      3.009      4.633
REMARK  Name = 
REMARK  7 active torsions:
REMARK  status: ('A' for Active; 'I' for Inactive)
REMARK    1  A    between atoms: C_3  and  C_4
REMARK    2  A    between atoms: C_7  and  C_8
REMARK    3  A    between atoms: C_8  and  N_9
REMARK    4  A    between atoms: N_9  and  C_10
REMARK    5  A    between atoms: C_10  and  C_11
REMARK    6  A    between atoms: C_11  and  C_12
REMARK    7  A    between atoms: C_21  and  C_22
REMARK                            x       y       z     vdW  Elec       q    Type
REMARK                         _______ _______ _______ _____ _____    ______ ____
ROOT
ATOM      1  C   UNL     1       1.327   9.039  18.901  0.00  0.00    +0.000 A 
ATOM      2  C   UNL     1       2.181   9.000  17.781  0.00  0.00    +0.000 A 
ATOM      3  C   UNL     1       3.108   7.972  17.611  0.00  0.00    +0.000 A 
ATOM      4  C   UNL     1       3.239   6.972  18.579  0.00  0.00    +0.000 A 
ATOM      5  C   UNL     1       2.434   7.015  19.717  0.00  0.00    +0.000 A 
ATOM      6  C   UNL     1       1.491   8.029  19.867  0.00  0.00    +0.000 A 
ENDROOT
BRANCH   1   9
ATOM      7  C   UNL     1      -1.849  10.933  18.118  0.00  0.00    +0.000 A 
ATOM      8  C   UNL     1      -0.741  10.107  17.997  0.00  0.00    +0.000 A 
ATOM      9  C   UNL     1       0.232  10.026  19.014  0.00  0.00    +0.000 A 
ATOM     10  C   UNL     1       0.062  10.840  20.162  0.00  0.00    +0.000 A 
ATOM     11  C   UNL     1      -1.076  11.635  20.318  0.00  0.00    +0.000 A 
ATOM     12  C   UNL     1      -2.019  11.675  19.276  0.00  0.00    +0.000 A 
BRANCH  11  13
ATOM     13  C   UNL     1      -1.395  12.426  21.516  0.00  0.00    +0.000 A 
ATOM     14  N   UNL     1      -2.552  12.327  22.143  0.00  0.00    +0.000 NA
ATOM     15  C   UNL     1      -2.515  13.214  23.173  0.00  0.00    +0.000 A 
ATOM     16  C   UNL     1      -3.516  13.497  24.109  0.00  0.00    +0.000 A 
ATOM     17  C   UNL     1      -3.271  14.487  25.059  0.00  0.00    +0.000 A 
ATOM     18  C   UNL     1      -2.049  15.165  25.079  0.00  0.00    +0.000 A 
ATOM     19  C   UNL     1      -1.026  14.869  24.162  0.00  0.00    +0.000 A 
ATOM     20  C   UNL     1      -1.300  13.881  23.210  0.00  0.00    +0.000 A 
ATOM     21  N   UNL     1      -0.587  13.332  22.168  0.00  0.00    +0.000 N 
ATOM     22  H   UNL     1       0.364  13.565  21.925  0.00  0.00    +0.000 HD
ENDBRANCH  11  13
ENDBRANCH   1   9
BRANCH   4  23
ATOM     23  C   UNL     1       4.185   5.826  18.362  0.00  0.00    +0.000 C 
BRANCH  23  24
ATOM     24  N   UNL     1       3.817   5.058  17.176  0.00  0.00    +0.000 NA
ATOM     25  H   UNL     1       4.247   5.497  16.362  0.00  0.00    +0.000 HD
BRANCH  24  26
ATOM     26  C   UNL     1       4.255   3.664  17.268  0.00  0.00    +0.000 C 
BRANCH  26  27
ATOM     27  C   UNL     1       3.089   2.704  17.549  0.00  0.00    +0.000 C 
BRANCH  27  28
ATOM     28  C   UNL     1       2.540   2.856  18.936  0.00  0.00    +0.000 A 
ATOM     29  C   UNL     1       1.228   3.312  19.136  0.00  0.00    +0.000 A 
ATOM     30  C   UNL     1       0.755   3.410  20.434  0.00  0.00    +0.000 A 
ATOM     31  N   UNL     1       1.490   3.104  21.523  0.00  0.00    +0.000 NA
ATOM     32  C   UNL     1       2.751   2.674  21.303  0.00  0.00    +0.000 A 
ATOM     33  C   UNL     1       3.318   2.542  20.047  0.00  0.00    +0.000 A 
ENDBRANCH  27  28
ENDBRANCH  26  27
ENDBRANCH  24  26
ENDBRANCH  23  24
ENDBRANCH   4  23
TORSDOF 7
ENDMDL
