MODEL 1
REMARK VINA RESULT:      -8.9      0.000      0.000
REMARK  Name = 
REMARK  7 active torsions:
REMARK  status: ('A' for Active; 'I' for Inactive)
REMARK    1  A    between atoms: C_1  and  O_2
REMARK    2  A    between atoms: O_2  and  C_3
REMARK    3  A    between atoms: C_8  and  C_9
REMARK    4  A    between atoms: N_11  and  C_12
REMARK    5  A    between atoms: C_14  and  C_15
REMARK    6  A    between atoms: N_17  and  C_18
REMARK    7  A    between atoms: C_18  and  C_19
REMARK                            x       y       z     vdW  Elec       q    Type
REMARK                         _______ _______ _______ _____ _____    ______ ____
ROOT
ATOM      1  C   UNL     1       2.088   7.672  19.198  0.00  0.00    +0.000 C 
ATOM      2  O   UNL     1       2.237   7.579  17.978  0.00  0.00    +0.000 OA
ATOM      3  N   UNL     1       2.536   6.737  20.108  0.00  0.00    +0.000 N 
ATOM      4  H   UNL     1       2.250   6.834  21.084  0.00  0.00    +0.000 HD
ENDROOT
BRANCH   1  10
ATOM      5  C   UNL     1      -1.206  11.804  22.760  0.00  0.00    +0.000 A 
ATOM      6  N   UNL     1      -1.079  10.676  23.474  0.00  0.00    +0.000 NA
ATOM      7  C   UNL     1      -0.437   9.661  22.873  0.00  0.00    +0.000 A 
ATOM      8  C   UNL     1       0.076   9.749  21.602  0.00  0.00    +0.000 A 
ATOM      9  C   UNL     1       0.810   8.680  20.951  0.00  0.00    +0.000 A 
ATOM     10  C   UNL     1       1.332   8.846  19.722  0.00  0.00    +0.000 A 
ATOM     11  C   UNL     1       1.117  10.134  19.007  0.00  0.00    +0.000 A 
ATOM     12  O   UNL     1       1.580  10.318  17.884  0.00  0.00    +0.000 OA
ATOM     13  N   UNL     1       0.387  11.097  19.661  0.00  0.00    +0.000 N 
ATOM     14  C   UNL     1      -0.123  10.950  20.954  0.00  0.00    +0.000 A 
ATOM     15  N   UNL     1      -0.763  11.994  21.501  0.00  0.00    +0.000 NA
ATOM     16  H   UNL     1       0.231  11.982  19.198  0.00  0.00    +0.000 HD
BRANCH   5  18
ATOM     17  C   UNL     1      -1.101  14.044  23.410  0.00  0.00    +0.000 C 
ATOM     18  O   UNL     1      -1.828  12.827  23.440  0.00  0.00    +0.000 OA
ENDBRANCH   5  18
ENDBRANCH   1  10
BRANCH   3  19
ATOM     19  C   UNL     1       3.288   5.570  19.773  0.00  0.00    +0.000 A 
ATOM     20  C   UNL     1       4.483   5.661  19.045  0.00  0.00    +0.000 A 
ATOM     21  C   UNL     1       5.225   4.530  18.688  0.00  0.00    +0.000 A 
ATOM     22  C   UNL     1       4.758   3.268  19.060  0.00  0.00    +0.000 A 
ATOM     23  C   UNL     1       3.579   3.152  19.806  0.00  0.00    +0.000 A 
ATOM     24  C   UNL     1       2.853   4.298  20.166  0.00  0.00    +0.000 A 
ATOM     25 CL   UNL     1       1.380   4.084  21.047  0.00  0.00    +0.000 Cl
BRANCH  21  26
ATOM     26  C   UNL     1       6.480   4.651  17.886  0.00  0.00    +0.000 C 
ATOM     27  O   UNL     1       7.558   4.374  18.401  0.00  0.00    +0.000 OA
ATOM     28  N   UNL     1       6.351   5.095  16.587  0.00  0.00    +0.000 N 
ATOM     29  H   UNL     1       5.445   5.277  16.182  0.00  0.00    +0.000 HD
BRANCH  28  30
ATOM     30  C   UNL     1       7.481   5.167  15.688  0.00  0.00    +0.000 C 
BRANCH  30  31
ATOM     31  C   UNL     1       7.058   4.636  14.353  0.00  0.00    +0.000 A 
ATOM     32  C   UNL     1       6.007   3.784  14.068  0.00  0.00    +0.000 A 
ATOM     33  C   UNL     1       5.891   3.506  12.676  0.00  0.00    +0.000 A 
ATOM     34  C   UNL     1       6.862   4.148  11.940  0.00  0.00    +0.000 A 
ATOM     35  S   UNL     1       7.909   5.072  12.929  0.00  0.00    +0.000 S 
ENDBRANCH  30  31
ENDBRANCH  28  30
ENDBRANCH  21  26
ENDBRANCH   3  19
TORSDOF 6
ENDMDL
MODEL 2
REMARK VINA RESULT:      -8.5      1.392      1.895
REMARK  Name = 
REMARK  7 active torsions:
REMARK  status: ('A' for Active; 'I' for Inactive)
REMARK    1  A    between atoms: C_1  and  O_2
REMARK    2  A    between atoms: O_2  and  C_3
REMARK    3  A    between atoms: C_8  and  C_9
REMARK    4  A    between atoms: N_11  and  C_12
REMARK    5  A    between atoms: C_14  and  C_15
REMARK    6  A    between atoms: N_17  and  C_18
REMARK    7  A    between atoms: C_18  and  C_19
REMARK                            x       y       z     vdW  Elec       q    Type
REMARK                         _______ _______ _______ _____ _____    ______ ____
ROOT
ATOM      1  C   UNL     1       2.003   7.773  19.287  0.00  0.00    +0.000 C 
ATOM      2  O   UNL     1       2.304   7.822  18.093  0.00  0.00    +0.000 OA
ATOM      3  N   UNL     1       2.296   6.713  20.119  0.00  0.00    +0.000 N 
ATOM      4  H   UNL     1       1.891   6.705  21.057  0.00  0.00    +0.000 HD
ENDROOT
BRANCH   1  10
ATOM      5  C   UNL     1      -1.759  12.833  20.213  0.00  0.00    +0.000 A 
ATOM      6  N   UNL     1      -1.690  12.625  18.890  0.00  0.00    +0.000 NA
ATOM      7  C   UNL     1      -0.907  11.611  18.488  0.00  0.00    +0.000 A 
ATOM      8  C   UNL     1      -0.209  10.813  19.361  0.00  0.00    +0.000 A 
ATOM      9  C   UNL     1       0.608   9.688  18.950  0.00  0.00    +0.000 A 
ATOM     10  C   UNL     1       1.228   8.912  19.858  0.00  0.00    +0.000 A 
ATOM     11  C   UNL     1       1.101   9.242  21.305  0.00  0.00    +0.000 A 
ATOM     12  O   UNL     1       1.654   8.554  22.160  0.00  0.00    +0.000 OA
ATOM     13  N   UNL     1       0.340  10.338  21.631  0.00  0.00    +0.000 N 
ATOM     14  C   UNL     1      -0.341  11.124  20.698  0.00  0.00    +0.000 A 
ATOM     15  N   UNL     1      -1.103  12.129  21.156  0.00  0.00    +0.000 NA
ATOM     16  H   UNL     1       0.236  10.581  22.606  0.00  0.00    +0.000 HD
BRANCH   5  18
ATOM     17  C   UNL     1      -2.297  14.431  21.827  0.00  0.00    +0.000 C 
ATOM     18  O   UNL     1      -2.613  13.850  20.573  0.00  0.00    +0.000 OA
ENDBRANCH   5  18
ENDBRANCH   1  10
BRANCH   3  19
ATOM     19  C   UNL     1       3.043   5.558  19.734  0.00  0.00    +0.000 A 
ATOM     20  C   UNL     1       4.263   5.676  19.053  0.00  0.00    +0.000 A 
ATOM     21  C   UNL     1       5.001   4.559  18.648  0.00  0.00    +0.000 A 
ATOM     22  C   UNL     1       4.504   3.283  18.921  0.00  0.00    +0.000 A 
ATOM     23  C   UNL     1       3.299   3.139  19.619  0.00  0.00    +0.000 A 
ATOM     24  C   UNL     1       2.577   4.270  20.028  0.00  0.00    +0.000 A 
ATOM     25 CL   UNL     1       1.072   4.024  20.844  0.00  0.00    +0.000 Cl
BRANCH  21  26
ATOM     26  C   UNL     1       6.285   4.711  17.898  0.00  0.00    +0.000 C 
ATOM     27  O   UNL     1       7.347   4.459  18.455  0.00  0.00    +0.000 OA
ATOM     28  N   UNL     1       6.198   5.156  16.595  0.00  0.00    +0.000 N 
ATOM     29  H   UNL     1       5.305   5.318  16.154  0.00  0.00    +0.000 HD
BRANCH  28  30
ATOM     30  C   UNL     1       7.361   5.256  15.743  0.00  0.00    +0.000 C 
BRANCH  30  31
ATOM     31  C   UNL     1       7.015   4.687  14.401  0.00  0.00    +0.000 A 
ATOM     32  C   UNL     1       5.997   3.806  14.085  0.00  0.00    +0.000 A 
ATOM     33  C   UNL     1       5.956   3.495  12.696  0.00  0.00    +0.000 A 
ATOM     34  C   UNL     1       6.947   4.143  11.993  0.00  0.00    +0.000 A 
ATOM     35  S   UNL     1       7.924   5.111  13.010  0.00  0.00    +0.000 S 
ENDBRANCH  30  31
ENDBRANCH  28  30
ENDBRANCH  21  26
ENDBRANCH   3  19
TORSDOF 6
ENDMDL
MODEL 3
REMARK VINA RESULT:      -8.5      4.648      9.429
REMARK  Name = 
REMARK  7 active torsions:
REMARK  status: ('A' for Active; 'I' for Inactive)
REMARK    1  A    between atoms: C_1  and  O_2
REMARK    2  A    between atoms: O_2  and  C_3
REMARK    3  A    between atoms: C_8  and  C_9
REMARK    4  A    between atoms: N_11  and  C_12
REMARK    5  A    between atoms: C_14  and  C_15
REMARK    6  A    between atoms: N_17  and  C_18
REMARK    7  A    between atoms: C_18  and  C_19
REMARK                            x       y       z     vdW  Elec       q    Type
REMARK                         _______ _______ _______ _____ _____    ______ ____
ROOT
ATOM      1  C   UNL     1       1.757   9.141  18.542  0.00  0.00    +0.000 C 
ATOM      2  O   UNL     1       2.172   9.493  17.436  0.00  0.00    +0.000 OA
ATOM      3  N   UNL     1       1.046   9.954  19.399  0.00  0.00    +0.000 N 
ATOM      4  H   UNL     1       0.860   9.617  20.346  0.00  0.00    +0.000 HD
ENDROOT
BRANCH   1  10
ATOM      5  C   UNL     1       3.748   3.107  19.041  0.00  0.00    +0.000 A 
ATOM      6  N   UNL     1       3.926   3.482  17.765  0.00  0.00    +0.000 NA
ATOM      7  C   UNL     1       3.529   4.725  17.449  0.00  0.00    +0.000 A 
ATOM      8  C   UNL     1       2.975   5.587  18.362  0.00  0.00    +0.000 A 
ATOM      9  C   UNL     1       2.578   6.948  18.052  0.00  0.00    +0.000 A 
ATOM     10  C   UNL     1       2.086   7.761  19.004  0.00  0.00    +0.000 A 
ATOM     11  C   UNL     1       1.910   7.240  20.388  0.00  0.00    +0.000 A 
ATOM     12  O   UNL     1       1.464   7.957  21.280  0.00  0.00    +0.000 OA
ATOM     13  N   UNL     1       2.273   5.935  20.614  0.00  0.00    +0.000 N 
ATOM     14  C   UNL     1       2.824   5.095  19.642  0.00  0.00    +0.000 A 
ATOM     15  N   UNL     1       3.195   3.860  20.012  0.00  0.00    +0.000 NA
ATOM     16  H   UNL     1       2.166   5.558  21.545  0.00  0.00    +0.000 HD
BRANCH   5  18
ATOM     17  C   UNL     1       4.807   1.737  20.606  0.00  0.00    +0.000 C 
ATOM     18  O   UNL     1       4.216   1.844  19.321  0.00  0.00    +0.000 OA
ENDBRANCH   5  18
ENDBRANCH   1  10
BRANCH   3  19
ATOM     19  C   UNL     1       0.637  11.290  19.103  0.00  0.00    +0.000 A 
ATOM     20  C   UNL     1       1.466  12.384  19.391  0.00  0.00    +0.000 A 
ATOM     21  C   UNL     1       1.077  13.702  19.129  0.00  0.00    +0.000 A 
ATOM     22  C   UNL     1      -0.180  13.939  18.571  0.00  0.00    +0.000 A 
ATOM     23  C   UNL     1      -1.017  12.863  18.254  0.00  0.00    +0.000 A 
ATOM     24  C   UNL     1      -0.607  11.546  18.513  0.00  0.00    +0.000 A 
ATOM     25 CL   UNL     1      -1.707  10.263  18.142  0.00  0.00    +0.000 Cl
BRANCH  21  26
ATOM     26  C   UNL     1       1.967  14.852  19.472  0.00  0.00    +0.000 C 
ATOM     27  O   UNL     1       2.086  15.201  20.641  0.00  0.00    +0.000 OA
ATOM     28  N   UNL     1       2.605  15.482  18.424  0.00  0.00    +0.000 N 
ATOM     29  H   UNL     1       2.517  15.145  17.477  0.00  0.00    +0.000 HD
BRANCH  28  30
ATOM     30  C   UNL     1       3.559  16.546  18.639  0.00  0.00    +0.000 C 
BRANCH  30  31
ATOM     31  C   UNL     1       4.937  15.997  18.433  0.00  0.00    +0.000 A 
ATOM     32  C   UNL     1       5.300  14.806  17.832  0.00  0.00    +0.000 A 
ATOM     33  C   UNL     1       6.711  14.620  17.794  0.00  0.00    +0.000 A 
ATOM     34  C   UNL     1       7.384  15.672  18.373  0.00  0.00    +0.000 A 
ATOM     35  S   UNL     1       6.315  16.869  18.965  0.00  0.00    +0.000 S 
ENDBRANCH  30  31
ENDBRANCH  28  30
ENDBRANCH  21  26
ENDBRANCH   3  19
TORSDOF 6
ENDMDL
MODEL 4
REMARK VINA RESULT:      -8.4      1.709      1.904
REMARK  Name = 
REMARK  7 active torsions:
REMARK  status: ('A' for Active; 'I' for Inactive)
REMARK    1  A    between atoms: C_1  and  O_2
REMARK    2  A    between atoms: O_2  and  C_3
REMARK    3  A    between atoms: C_8  and  C_9
REMARK    4  A    between atoms: N_11  and  C_12
REMARK    5  A    between atoms: C_14  and  C_15
REMARK    6  A    between atoms: N_17  and  C_18
REMARK    7  A    between atoms: C_18  and  C_19
REMARK                            x       y       z     vdW  Elec       q    Type
REMARK                         _______ _______ _______ _____ _____    ______ ____
ROOT
ATOM      1  C   UNL     1       2.328   6.919  19.675  0.00  0.00    +0.000 C 
ATOM      2  O   UNL     1       2.975   6.393  20.582  0.00  0.00    +0.000 OA
ATOM      3  N   UNL     1       2.297   6.460  18.376  0.00  0.00    +0.000 N 
ATOM      4  H   UNL     1       1.840   7.036  17.667  0.00  0.00    +0.000 HD
ENDROOT
BRANCH   1  10
ATOM      5  C   UNL     1      -0.979  11.589  22.480  0.00  0.00    +0.000 A 
ATOM      6  N   UNL     1      -0.850  10.599  23.376  0.00  0.00    +0.000 NA
ATOM      7  C   UNL     1      -0.205   9.499  22.957  0.00  0.00    +0.000 A 
ATOM      8  C   UNL     1       0.309   9.370  21.690  0.00  0.00    +0.000 A 
ATOM      9  C   UNL     1       1.045   8.208  21.231  0.00  0.00    +0.000 A 
ATOM     10  C   UNL     1       1.568   8.163  19.992  0.00  0.00    +0.000 A 
ATOM     11  C   UNL     1       1.351   9.311  19.067  0.00  0.00    +0.000 A 
ATOM     12  O   UNL     1       1.815   9.302  17.930  0.00  0.00    +0.000 OA
ATOM     13  N   UNL     1       0.619  10.369  19.548  0.00  0.00    +0.000 N 
ATOM     14  C   UNL     1       0.108  10.443  20.846  0.00  0.00    +0.000 A 
ATOM     15  N   UNL     1      -0.536  11.563  21.208  0.00  0.00    +0.000 NA
ATOM     16  H   UNL     1       0.460  11.162  18.941  0.00  0.00    +0.000 HD
BRANCH   5  18
ATOM     17  C   UNL     1      -2.915  12.459  23.454  0.00  0.00    +0.000 C 
ATOM     18  O   UNL     1      -1.604  12.711  22.976  0.00  0.00    +0.000 OA
ENDBRANCH   5  18
ENDBRANCH   1  10
BRANCH   3  19
ATOM     19  C   UNL     1       2.954   5.278  17.914  0.00  0.00    +0.000 A 
ATOM     20  C   UNL     1       4.089   5.352  17.094  0.00  0.00    +0.000 A 
ATOM     21  C   UNL     1       4.736   4.208  16.613  0.00  0.00    +0.000 A 
ATOM     22  C   UNL     1       4.231   2.951  16.952  0.00  0.00    +0.000 A 
ATOM     23  C   UNL     1       3.112   2.851  17.787  0.00  0.00    +0.000 A 
ATOM     24  C   UNL     1       2.482   4.008  18.270  0.00  0.00    +0.000 A 
ATOM     25 CL   UNL     1       1.075   3.816  19.258  0.00  0.00    +0.000 Cl
BRANCH  21  26
ATOM     26  C   UNL     1       5.927   4.314  15.717  0.00  0.00    +0.000 C 
ATOM     27  O   UNL     1       7.049   4.132  16.175  0.00  0.00    +0.000 OA
ATOM     28  N   UNL     1       5.689   4.636  14.398  0.00  0.00    +0.000 N 
ATOM     29  H   UNL     1       4.750   4.741  14.043  0.00  0.00    +0.000 HD
BRANCH  28  30
ATOM     30  C   UNL     1       6.751   4.678  13.418  0.00  0.00    +0.000 C 
BRANCH  30  31
ATOM     31  C   UNL     1       6.566   3.535  12.469  0.00  0.00    +0.000 A 
ATOM     32  C   UNL     1       7.540   2.801  11.817  0.00  0.00    +0.000 A 
ATOM     33  C   UNL     1       6.993   1.769  11.002  0.00  0.00    +0.000 A 
ATOM     34  C   UNL     1       5.617   1.749  11.050  0.00  0.00    +0.000 A 
ATOM     35  S   UNL     1       4.995   2.976  12.067  0.00  0.00    +0.000 S 
ENDBRANCH  30  31
ENDBRANCH  28  30
ENDBRANCH  21  26
ENDBRANCH   3  19
TORSDOF 6
ENDMDL
MODEL 5
REMARK VINA RESULT:      -8.3      4.649     10.650
REMARK  Name = 
REMARK  7 active torsions:
REMARK  status: ('A' for Active; 'I' for Inactive)
REMARK    1  A    between atoms: C_1  and  O_2
REMARK    2  A    between atoms: O_2  and  C_3
REMARK    3  A    between atoms: C_8  and  C_9
REMARK    4  A    between atoms: N_11  and  C_12
REMARK    5  A    between atoms: C_14  and  C_15
REMARK    6  A    between atoms: N_17  and  C_18
REMARK    7  A    between atoms: C_18  and  C_19
REMARK                            x       y       z     vdW  Elec       q    Type
REMARK                         _______ _______ _______ _____ _____    ______ ____
ROOT
ATOM      1  C   UNL     1       1.091   9.310  19.872  0.00  0.00    +0.000 C 
ATOM      2  O   UNL     1       0.705   9.419  21.037  0.00  0.00    +0.000 OA
ATOM      3  N   UNL     1       0.879  10.256  18.892  0.00  0.00    +0.000 N 
ATOM      4  H   UNL     1       1.119  10.019  17.927  0.00  0.00    +0.000 HD
ENDROOT
BRANCH   1  10
ATOM      5  C   UNL     1       3.416   3.385  19.555  0.00  0.00    +0.000 A 
ATOM      6  N   UNL     1       2.783   3.502  20.732  0.00  0.00    +0.000 NA
ATOM      7  C   UNL     1       2.249   4.704  21.003  0.00  0.00    +0.000 A 
ATOM      8  C   UNL     1       2.327   5.768  20.139  0.00  0.00    +0.000 A 
ATOM      9  C   UNL     1       1.722   7.062  20.394  0.00  0.00    +0.000 A 
ATOM     10  C   UNL     1       1.791   8.051  19.484  0.00  0.00    +0.000 A 
ATOM     11  C   UNL     1       2.535   7.823  18.215  0.00  0.00    +0.000 A 
ATOM     12  O   UNL     1       2.617   8.705  17.364  0.00  0.00    +0.000 OA
ATOM     13  N   UNL     1       3.115   6.589  18.044  0.00  0.00    +0.000 N 
ATOM     14  C   UNL     1       3.013   5.542  18.964  0.00  0.00    +0.000 A 
ATOM     15  N   UNL     1       3.573   4.365  18.644  0.00  0.00    +0.000 NA
ATOM     16  H   UNL     1       3.623   6.408  17.190  0.00  0.00    +0.000 HD
BRANCH   5  18
ATOM     17  C   UNL     1       3.421   1.564  18.094  0.00  0.00    +0.000 C 
ATOM     18  O   UNL     1       3.901   2.121  19.307  0.00  0.00    +0.000 OA
ENDBRANCH   5  18
ENDBRANCH   1  10
BRANCH   3  19
ATOM     19  C   UNL     1       0.243  11.518  19.101  0.00  0.00    +0.000 A 
ATOM     20  C   UNL     1      -1.048  11.598  19.643  0.00  0.00    +0.000 A 
ATOM     21  C   UNL     1      -1.699  12.821  19.838  0.00  0.00    +0.000 A 
ATOM     22  C   UNL     1      -1.047  14.001  19.474  0.00  0.00    +0.000 A 
ATOM     23  C   UNL     1       0.251  13.948  18.951  0.00  0.00    +0.000 A 
ATOM     24  C   UNL     1       0.893  12.714  18.773  0.00  0.00    +0.000 A 
ATOM     25 CL   UNL     1       2.478  12.714  18.079  0.00  0.00    +0.000 Cl
BRANCH  21  26
ATOM     26  C   UNL     1      -3.087  12.879  20.390  0.00  0.00    +0.000 C 
ATOM     27  O   UNL     1      -3.276  12.652  21.579  0.00  0.00    +0.000 OA
ATOM     28  N   UNL     1      -4.100  13.174  19.502  0.00  0.00    +0.000 N 
ATOM     29  H   UNL     1      -3.905  13.394  18.536  0.00  0.00    +0.000 HD
BRANCH  28  30
ATOM     30  C   UNL     1      -5.468  13.346  19.934  0.00  0.00    +0.000 C 
BRANCH  30  31
ATOM     31  C   UNL     1      -6.157  12.017  19.866  0.00  0.00    +0.000 A 
ATOM     32  C   UNL     1      -7.021  11.456  20.789  0.00  0.00    +0.000 A 
ATOM     33  C   UNL     1      -7.502  10.180  20.380  0.00  0.00    +0.000 A 
ATOM     34  C   UNL     1      -6.988   9.801  19.161  0.00  0.00    +0.000 A 
ATOM     35  S   UNL     1      -5.923  10.978  18.522  0.00  0.00    +0.000 S 
ENDBRANCH  30  31
ENDBRANCH  28  30
ENDBRANCH  21  26
ENDBRANCH   3  19
TORSDOF 6
ENDMDL
MODEL 6
REMARK VINA RESULT:      -8.3      4.766      9.172
REMARK  Name = 
REMARK  7 active torsions:
REMARK  status: ('A' for Active; 'I' for Inactive)
REMARK    1  A    between atoms: C_1  and  O_2
REMARK    2  A    between atoms: O_2  and  C_3
REMARK    3  A    between atoms: C_8  and  C_9
REMARK    4  A    between atoms: N_11  and  C_12
REMARK    5  A    between atoms: C_14  and  C_15
REMARK    6  A    between atoms: N_17  and  C_18
REMARK    7  A    between atoms: C_18  and  C_19
REMARK                            x       y       z     vdW  Elec       q    Type
REMARK                         _______ _______ _______ _____ _____    ______ ____
ROOT
ATOM      1  C   UNL     1       1.715   9.676  18.586  0.00  0.00    +0.000 C 
ATOM      2  O   UNL     1       1.793   9.905  17.378  0.00  0.00    +0.000 OA
ATOM      3  N   UNL     1       1.424  10.627  19.540  0.00  0.00    +0.000 N 
ATOM      4  H   UNL     1       1.511  10.371  20.525  0.00  0.00    +0.000 HD
ENDROOT
BRANCH   1  10
ATOM      5  C   UNL     1       3.666   3.636  19.163  0.00  0.00    +0.000 A 
ATOM      6  N   UNL     1       3.963   4.033  17.917  0.00  0.00    +0.000 NA
ATOM      7  C   UNL     1       3.595   5.281  17.587  0.00  0.00    +0.000 A 
ATOM      8  C   UNL     1       2.954   6.127  18.459  0.00  0.00    +0.000 A 
ATOM      9  C   UNL     1       2.585   7.492  18.136  0.00  0.00    +0.000 A 
ATOM     10  C   UNL     1       2.003   8.288  19.052  0.00  0.00    +0.000 A 
ATOM     11  C   UNL     1       1.699   7.742  20.404  0.00  0.00    +0.000 A 
ATOM     12  O   UNL     1       1.168   8.442  21.263  0.00  0.00    +0.000 OA
ATOM     13  N   UNL     1       2.042   6.433  20.640  0.00  0.00    +0.000 N 
ATOM     14  C   UNL     1       2.684   5.612  19.709  0.00  0.00    +0.000 A 
ATOM     15  N   UNL     1       3.022   4.370  20.091  0.00  0.00    +0.000 NA
ATOM     16  H   UNL     1       1.849   6.040  21.551  0.00  0.00    +0.000 HD
BRANCH   5  18
ATOM     17  C   UNL     1       3.631   1.379  18.569  0.00  0.00    +0.000 C 
ATOM     18  O   UNL     1       4.109   2.368  19.464  0.00  0.00    +0.000 OA
ENDBRANCH   5  18
ENDBRANCH   1  10
BRANCH   3  19
ATOM     19  C   UNL     1       1.108  11.992  19.259  0.00  0.00    +0.000 A 
ATOM     20  C   UNL     1       2.112  12.917  18.937  0.00  0.00    +0.000 A 
ATOM     21  C   UNL     1       1.829  14.263  18.679  0.00  0.00    +0.000 A 
ATOM     22  C   UNL     1       0.506  14.703  18.753  0.00  0.00    +0.000 A 
ATOM     23  C   UNL     1      -0.516  13.794  19.050  0.00  0.00    +0.000 A 
ATOM     24  C   UNL     1      -0.216  12.446  19.295  0.00  0.00    +0.000 A 
ATOM     25 CL   UNL     1      -1.519  11.383  19.704  0.00  0.00    +0.000 Cl
BRANCH  21  26
ATOM     26  C   UNL     1       2.920  15.235  18.367  0.00  0.00    +0.000 C 
ATOM     27  O   UNL     1       2.644  16.310  17.847  0.00  0.00    +0.000 OA
ATOM     28  N   UNL     1       4.207  14.849  18.675  0.00  0.00    +0.000 N 
ATOM     29  H   UNL     1       4.396  13.973  19.139  0.00  0.00    +0.000 HD
BRANCH  28  30
ATOM     30  C   UNL     1       5.333  15.739  18.503  0.00  0.00    +0.000 C 
BRANCH  30  31
ATOM     31  C   UNL     1       6.590  14.926  18.545  0.00  0.00    +0.000 A 
ATOM     32  C   UNL     1       7.075  14.054  17.586  0.00  0.00    +0.000 A 
ATOM     33  C   UNL     1       8.317  13.467  17.960  0.00  0.00    +0.000 A 
ATOM     34  C   UNL     1       8.742  13.903  19.195  0.00  0.00    +0.000 A 
ATOM     35  S   UNL     1       7.640  15.006  19.899  0.00  0.00    +0.000 S 
ENDBRANCH  30  31
ENDBRANCH  28  30
ENDBRANCH  21  26
ENDBRANCH   3  19
TORSDOF 6
ENDMDL
MODEL 7
REMARK VINA RESULT:      -8.3      1.742      2.346
REMARK  Name = 
REMARK  7 active torsions:
REMARK  status: ('A' for Active; 'I' for Inactive)
REMARK    1  A    between atoms: C_1  and  O_2
REMARK    2  A    between atoms: O_2  and  C_3
REMARK    3  A    between atoms: C_8  and  C_9
REMARK    4  A    between atoms: N_11  and  C_12
REMARK    5  A    between atoms: C_14  and  C_15
REMARK    6  A    between atoms: N_17  and  C_18
REMARK    7  A    between atoms: C_18  and  C_19
REMARK                            x       y       z     vdW  Elec       q    Type
REMARK                         _______ _______ _______ _____ _____    ______ ____
ROOT
ATOM      1  C   UNL     1       1.958   7.977  19.009  0.00  0.00    +0.000 C 
ATOM      2  O   UNL     1       2.016   7.853  17.784  0.00  0.00    +0.000 OA
ATOM      3  N   UNL     1       2.432   7.044  19.907  0.00  0.00    +0.000 N 
ATOM      4  H   UNL     1       2.220   7.172  20.898  0.00  0.00    +0.000 HD
ENDROOT
BRANCH   1  10
ATOM      5  C   UNL     1      -0.337  13.836  20.021  0.00  0.00    +0.000 A 
ATOM      6  N   UNL     1       0.437  13.894  18.927  0.00  0.00    +0.000 NA
ATOM      7  C   UNL     1       1.045  12.753  18.567  0.00  0.00    +0.000 A 
ATOM      8  C   UNL     1       0.897  11.576  19.259  0.00  0.00    +0.000 A 
ATOM      9  C   UNL     1       1.511  10.323  18.863  0.00  0.00    +0.000 A 
ATOM     10  C   UNL     1       1.287   9.191  19.556  0.00  0.00    +0.000 A 
ATOM     11  C   UNL     1       0.425   9.239  20.770  0.00  0.00    +0.000 A 
ATOM     12  O   UNL     1       0.200   8.224  21.425  0.00  0.00    +0.000 OA
ATOM     13  N   UNL     1      -0.102  10.460  21.113  0.00  0.00    +0.000 N 
ATOM     14  C   UNL     1       0.091  11.632  20.377  0.00  0.00    +0.000 A 
ATOM     15  N   UNL     1      -0.535  12.745  20.787  0.00  0.00    +0.000 NA
ATOM     16  H   UNL     1      -0.693  10.518  21.931  0.00  0.00    +0.000 HD
BRANCH   5  18
ATOM     17  C   UNL     1      -0.722  16.044  19.371  0.00  0.00    +0.000 C 
ATOM     18  O   UNL     1      -0.975  15.018  20.317  0.00  0.00    +0.000 OA
ENDBRANCH   5  18
ENDBRANCH   1  10
BRANCH   3  19
ATOM     19  C   UNL     1       3.112   5.840  19.548  0.00  0.00    +0.000 A 
ATOM     20  C   UNL     1       4.342   5.874  18.875  0.00  0.00    +0.000 A 
ATOM     21  C   UNL     1       5.015   4.709  18.496  0.00  0.00    +0.000 A 
ATOM     22  C   UNL     1       4.442   3.469  18.787  0.00  0.00    +0.000 A 
ATOM     23  C   UNL     1       3.226   3.409  19.478  0.00  0.00    +0.000 A 
ATOM     24  C   UNL     1       2.569   4.587  19.861  0.00  0.00    +0.000 A 
ATOM     25 CL   UNL     1       1.046   4.444  20.669  0.00  0.00    +0.000 Cl
BRANCH  21  26
ATOM     26  C   UNL     1       6.311   4.772  17.753  0.00  0.00    +0.000 C 
ATOM     27  O   UNL     1       7.344   4.405  18.302  0.00  0.00    +0.000 OA
ATOM     28  N   UNL     1       6.270   5.269  16.468  0.00  0.00    +0.000 N 
ATOM     29  H   UNL     1       5.397   5.526  16.031  0.00  0.00    +0.000 HD
BRANCH  28  30
ATOM     30  C   UNL     1       7.441   5.295  15.621  0.00  0.00    +0.000 C 
BRANCH  30  31
ATOM     31  C   UNL     1       7.068   4.745  14.279  0.00  0.00    +0.000 A 
ATOM     32  C   UNL     1       7.713   4.934  13.070  0.00  0.00    +0.000 A 
ATOM     33  C   UNL     1       7.082   4.239  11.999  0.00  0.00    +0.000 A 
ATOM     34  C   UNL     1       5.971   3.544  12.420  0.00  0.00    +0.000 A 
ATOM     35  S   UNL     1       5.690   3.741  14.096  0.00  0.00    +0.000 S 
ENDBRANCH  30  31
ENDBRANCH  28  30
ENDBRANCH  21  26
ENDBRANCH   3  19
TORSDOF 6
ENDMDL
MODEL 8
REMARK VINA RESULT:      -8.2      4.802     10.929
REMARK  Name = 
REMARK  7 active torsions:
REMARK  status: ('A' for Active; 'I' for Inactive)
REMARK    1  A    between atoms: C_1  and  O_2
REMARK    2  A    between atoms: O_2  and  C_3
REMARK    3  A    between atoms: C_8  and  C_9
REMARK    4  A    between atoms: N_11  and  C_12
REMARK    5  A    between atoms: C_14  and  C_15
REMARK    6  A    between atoms: N_17  and  C_18
REMARK    7  A    between atoms: C_18  and  C_19
REMARK                            x       y       z     vdW  Elec       q    Type
REMARK                         _______ _______ _______ _____ _____    ______ ____
ROOT
ATOM      1  C   UNL     1       0.872   9.958  19.027  0.00  0.00    +0.000 C 
ATOM      2  O   UNL     1       0.197  10.025  17.999  0.00  0.00    +0.000 OA
ATOM      3  N   UNL     1       1.109  11.021  19.872  0.00  0.00    +0.000 N 
ATOM      4  H   UNL     1       1.788  10.901  20.627  0.00  0.00    +0.000 HD
ENDROOT
BRANCH   1  10
ATOM      5  C   UNL     1       4.269   4.566  18.985  0.00  0.00    +0.000 A 
ATOM      6  N   UNL     1       4.393   5.124  17.772  0.00  0.00    +0.000 NA
ATOM      7  C   UNL     1       3.713   6.264  17.570  0.00  0.00    +0.000 A 
ATOM      8  C   UNL     1       2.933   6.850  18.536  0.00  0.00    +0.000 A 
ATOM      9  C   UNL     1       2.225   8.103  18.352  0.00  0.00    +0.000 A 
ATOM     10  C   UNL     1       1.515   8.652  19.355  0.00  0.00    +0.000 A 
ATOM     11  C   UNL     1       1.427   7.940  20.660  0.00  0.00    +0.000 A 
ATOM     12  O   UNL     1       0.788   8.414  21.596  0.00  0.00    +0.000 OA
ATOM     13  N   UNL     1       2.092   6.742  20.764  0.00  0.00    +0.000 N 
ATOM     14  C   UNL     1       2.865   6.185  19.742  0.00  0.00    +0.000 A 
ATOM     15  N   UNL     1       3.516   5.039  19.997  0.00  0.00    +0.000 NA
ATOM     16  H   UNL     1       2.051   6.241  21.640  0.00  0.00    +0.000 HD
BRANCH   5  18
ATOM     17  C   UNL     1       4.337   2.394  19.839  0.00  0.00    +0.000 C 
ATOM     18  O   UNL     1       5.025   3.428  19.154  0.00  0.00    +0.000 OA
ENDBRANCH   5  18
ENDBRANCH   1  10
BRANCH   3  19
ATOM     19  C   UNL     1       0.556  12.328  19.710  0.00  0.00    +0.000 A 
ATOM     20  C   UNL     1      -0.674  12.672  20.289  0.00  0.00    +0.000 A 
ATOM     21  C   UNL     1      -1.245  13.939  20.127  0.00  0.00    +0.000 A 
ATOM     22  C   UNL     1      -0.573  14.891  19.357  0.00  0.00    +0.000 A 
ATOM     23  C   UNL     1       0.667  14.579  18.787  0.00  0.00    +0.000 A 
ATOM     24  C   UNL     1       1.230  13.307  18.969  0.00  0.00    +0.000 A 
ATOM     25 CL   UNL     1       2.742  12.969  18.200  0.00  0.00    +0.000 Cl
BRANCH  21  26
ATOM     26  C   UNL     1      -2.571  14.272  20.730  0.00  0.00    +0.000 C 
ATOM     27  O   UNL     1      -2.910  15.444  20.842  0.00  0.00    +0.000 OA
ATOM     28  N   UNL     1      -3.348  13.214  21.151  0.00  0.00    +0.000 N 
ATOM     29  H   UNL     1      -3.057  12.258  21.008  0.00  0.00    +0.000 HD
BRANCH  28  30
ATOM     30  C   UNL     1      -4.685  13.405  21.666  0.00  0.00    +0.000 C 
BRANCH  30  31
ATOM     31  C   UNL     1      -5.626  12.553  20.870  0.00  0.00    +0.000 A 
ATOM     32  C   UNL     1      -5.450  12.050  19.594  0.00  0.00    +0.000 A 
ATOM     33  C   UNL     1      -6.552  11.259  19.162  0.00  0.00    +0.000 A 
ATOM     34  C   UNL     1      -7.540  11.186  20.118  0.00  0.00    +0.000 A 
ATOM     35  S   UNL     1      -7.139  12.076  21.523  0.00  0.00    +0.000 S 
ENDBRANCH  30  31
ENDBRANCH  28  30
ENDBRANCH  21  26
ENDBRANCH   3  19
TORSDOF 6
ENDMDL
MODEL 9
REMARK VINA RESULT:      -8.2      4.559      9.269
REMARK  Name = 
REMARK  7 active torsions:
REMARK  status: ('A' for Active; 'I' for Inactive)
REMARK    1  A    between atoms: C_1  and  O_2
REMARK    2  A    between atoms: O_2  and  C_3
REMARK    3  A    between atoms: C_8  and  C_9
REMARK    4  A    between atoms: N_11  and  C_12
REMARK    5  A    between atoms: C_14  and  C_15
REMARK    6  A    between atoms: N_17  and  C_18
REMARK    7  A    between atoms: C_18  and  C_19
REMARK                            x       y       z     vdW  Elec       q    Type
REMARK                         _______ _______ _______ _____ _____    ______ ____
ROOT
ATOM      1  C   UNL     1       1.854   9.238  18.373  0.00  0.00    +0.000 C 
ATOM      2  O   UNL     1       2.026   9.464  17.174  0.00  0.00    +0.000 OA
ATOM      3  N   UNL     1       1.459  10.186  19.293  0.00  0.00    +0.000 N 
ATOM      4  H   UNL     1       1.472   9.937  20.284  0.00  0.00    +0.000 HD
ENDROOT
BRANCH   1  10
ATOM      5  C   UNL     1       3.769   3.200  19.077  0.00  0.00    +0.000 A 
ATOM      6  N   UNL     1       4.046   3.562  17.815  0.00  0.00    +0.000 NA
ATOM      7  C   UNL     1       3.681   4.804  17.458  0.00  0.00    +0.000 A 
ATOM      8  C   UNL     1       3.063   5.677  18.318  0.00  0.00    +0.000 A 
ATOM      9  C   UNL     1       2.699   7.037  17.966  0.00  0.00    +0.000 A 
ATOM     10  C   UNL     1       2.140   7.862  18.871  0.00  0.00    +0.000 A 
ATOM     11  C   UNL     1       1.857   7.355  20.242  0.00  0.00    +0.000 A 
ATOM     12  O   UNL     1       1.347   8.081  21.091  0.00  0.00    +0.000 OA
ATOM     13  N   UNL     1       2.194   6.049  20.507  0.00  0.00    +0.000 N 
ATOM     14  C   UNL     1       2.813   5.198  19.587  0.00  0.00    +0.000 A 
ATOM     15  N   UNL     1       3.148   3.965  19.996  0.00  0.00    +0.000 NA
ATOM     16  H   UNL     1       2.015   5.682  21.431  0.00  0.00    +0.000 HD
BRANCH   5  18
ATOM     17  C   UNL     1       4.603   1.814  20.760  0.00  0.00    +0.000 C 
ATOM     18  O   UNL     1       4.207   1.938  19.404  0.00  0.00    +0.000 OA
ENDBRANCH   5  18
ENDBRANCH   1  10
BRANCH   3  19
ATOM     19  C   UNL     1       1.131  11.540  18.978  0.00  0.00    +0.000 A 
ATOM     20  C   UNL     1       2.132  12.488  18.721  0.00  0.00    +0.000 A 
ATOM     21  C   UNL     1       1.836  13.824  18.431  0.00  0.00    +0.000 A 
ATOM     22  C   UNL     1       0.501  14.231  18.404  0.00  0.00    +0.000 A 
ATOM     23  C   UNL     1      -0.518  13.299  18.635  0.00  0.00    +0.000 A 
ATOM     24  C   UNL     1      -0.203  11.960  18.913  0.00  0.00    +0.000 A 
ATOM     25 CL   UNL     1      -1.505  10.869  19.237  0.00  0.00    +0.000 Cl
BRANCH  21  26
ATOM     26  C   UNL     1       2.922  14.822  18.189  0.00  0.00    +0.000 C 
ATOM     27  O   UNL     1       2.674  16.019  18.267  0.00  0.00    +0.000 OA
ATOM     28  N   UNL     1       4.167  14.324  17.867  0.00  0.00    +0.000 N 
ATOM     29  H   UNL     1       4.347  13.330  17.850  0.00  0.00    +0.000 HD
BRANCH  28  30
ATOM     30  C   UNL     1       5.315  15.185  17.700  0.00  0.00    +0.000 C 
BRANCH  30  31
ATOM     31  C   UNL     1       6.247  14.962  18.851  0.00  0.00    +0.000 A 
ATOM     32  C   UNL     1       5.978  15.079  20.202  0.00  0.00    +0.000 A 
ATOM     33  C   UNL     1       7.106  14.769  21.013  0.00  0.00    +0.000 A 
ATOM     34  C   UNL     1       8.206  14.429  20.258  0.00  0.00    +0.000 A 
ATOM     35  S   UNL     1       7.875  14.495  18.580  0.00  0.00    +0.000 S 
ENDBRANCH  30  31
ENDBRANCH  28  30
ENDBRANCH  21  26
ENDBRANCH   3  19
TORSDOF 6
ENDMDL
