MODEL 1
REMARK VINA RESULT:     -11.0      0.000      0.000
REMARK  Name = 
REMARK  9 active torsions:
REMARK  status: ('A' for Active; 'I' for Inactive)
REMARK    1  A    between atoms: C_1  and  C_2
REMARK    2  A    between atoms: C_6  and  C_7
REMARK    3  A    between atoms: C_7  and  C_8
REMARK    4  A    between atoms: C_7  and  N_9
REMARK    5  A    between atoms: N_9  and  C_10
REMARK    6  A    between atoms: C_12  and  C_13
REMARK    7  A    between atoms: C_17  and  C_18
REMARK    8  A    between atoms: C_19  and  C_20
REMARK    9  A    between atoms: N_25  and  C_26
REMARK                            x       y       z     vdW  Elec       q    Type
REMARK                         _______ _______ _______ _____ _____    ______ ____
ROOT
ATOM      1  C   UNL     1       4.012   6.539  17.836  0.00  0.00    +0.000 A 
ATOM      2  N   UNL     1       4.017   5.427  18.516  0.00  0.00    +0.000 NA
ATOM      3  C   UNL     1       2.812   5.134  18.911  0.00  0.00    +0.000 A 
ATOM      4  C   UNL     1       1.934   4.754  17.717  0.00  0.00    +0.000 C 
ATOM      5  N   UNL     1       2.345   5.974  19.802  0.00  0.00    +0.000 NA
ATOM      6  C   UNL     1       2.376   7.255  19.442  0.00  0.00    +0.000 A 
ATOM      7  C   UNL     1       1.710   8.083  20.360  0.00  0.00    +0.000 A 
ATOM      8  C   UNL     1       0.911   9.190  20.021  0.00  0.00    +0.000 A 
ATOM      9  C   UNL     1       0.106   9.805  21.143  0.00  0.00    +0.000 C 
ATOM     10  C   UNL     1       0.769   9.454  18.658  0.00  0.00    +0.000 A 
ATOM     11  C   UNL     1       1.825   8.811  17.792  0.00  0.00    +0.000 A 
ATOM     12  C   UNL     1       2.842   7.629  18.195  0.00  0.00    +0.000 A 
ENDROOT
BRANCH  10  13
ATOM     13  C   UNL     1      -0.671   9.981  18.228  0.00  0.00    +0.000 A 
ATOM     14  C   UNL     1      -1.233  11.160  18.913  0.00  0.00    +0.000 A 
ATOM     15  C   UNL     1      -2.355  11.795  18.529  0.00  0.00    +0.000 A 
ATOM     16  C   UNL     1      -3.144  11.348  17.359  0.00  0.00    +0.000 A 
ATOM     17  O   UNL     1      -4.177  11.915  17.082  0.00  0.00    +0.000 OA
ATOM     18  N   UNL     1      -2.559  10.276  16.674  0.00  0.00    +0.000 N 
ATOM     19  C   UNL     1      -3.284   9.828  15.467  0.00  0.00    +0.000 C 
ATOM     20  C   UNL     1      -1.358   9.641  17.078  0.00  0.00    +0.000 A 
ENDBRANCH  10  13
BRANCH   1  21
ATOM     21  N   UNL     1       5.096   6.485  16.947  0.00  0.00    +0.000 N 
ATOM     22  H   UNL     1       5.849   6.853  17.532  0.00  0.00    +0.000 HD
BRANCH  21  23
ATOM     23  C   UNL     1       5.837   5.139  16.272  0.00  0.00    +0.000 C 
ATOM     24  C   UNL     1       6.992   4.730  17.218  0.00  0.00    +0.000 C 
BRANCH  23  30
ATOM     25  C   UNL     1       4.676   2.912  11.586  0.00  0.00    +0.000 C 
ATOM     26  C   UNL     1       5.621   3.653  12.502  0.00  0.00    +0.000 A 
ATOM     27  C   UNL     1       6.840   4.055  11.971  0.00  0.00    +0.000 A 
ATOM     28  C   UNL     1       7.706   4.798  12.754  0.00  0.00    +0.000 A 
ATOM     29  C   UNL     1       7.393   5.153  14.087  0.00  0.00    +0.000 A 
ATOM     30  C   UNL     1       6.243   4.732  14.758  0.00  0.00    +0.000 A 
ATOM     31  C   UNL     1       5.339   3.989  13.880  0.00  0.00    +0.000 A 
ENDBRANCH  23  30
ENDBRANCH  21  23
ENDBRANCH   1  21
TORSDOF 4
ENDMDL
MODEL 2
REMARK VINA RESULT:     -11.0      0.679      1.308
REMARK  Name = 
REMARK  9 active torsions:
REMARK  status: ('A' for Active; 'I' for Inactive)
REMARK    1  A    between atoms: C_1  and  C_2
REMARK    2  A    between atoms: C_6  and  C_7
REMARK    3  A    between atoms: C_7  and  C_8
REMARK    4  A    between atoms: C_7  and  N_9
REMARK    5  A    between atoms: N_9  and  C_10
REMARK    6  A    between atoms: C_12  and  C_13
REMARK    7  A    between atoms: C_17  and  C_18
REMARK    8  A    between atoms: C_19  and  C_20
REMARK    9  A    between atoms: N_25  and  C_26
REMARK                            x       y       z     vdW  Elec       q    Type
REMARK                         _______ _______ _______ _____ _____    ______ ____
ROOT
ATOM      1  C   UNL     1       3.991   6.440  17.888  0.00  0.00    +0.000 A 
ATOM      2  N   UNL     1       3.886   5.263  18.442  0.00  0.00    +0.000 NA
ATOM      3  C   UNL     1       2.649   5.030  18.770  0.00  0.00    +0.000 A 
ATOM      4  C   UNL     1       1.785   4.854  17.520  0.00  0.00    +0.000 C 
ATOM      5  N   UNL     1       2.218   5.804  19.736  0.00  0.00    +0.000 NA
ATOM      6  C   UNL     1       2.363   7.110  19.521  0.00  0.00    +0.000 A 
ATOM      7  C   UNL     1       1.732   7.885  20.506  0.00  0.00    +0.000 A 
ATOM      8  C   UNL     1       1.035   9.084  20.271  0.00  0.00    +0.000 A 
ATOM      9  C   UNL     1       0.242   9.639  21.432  0.00  0.00    +0.000 C 
ATOM     10  C   UNL     1       0.961   9.505  18.942  0.00  0.00    +0.000 A 
ATOM     11  C   UNL     1       1.993   8.874  18.038  0.00  0.00    +0.000 A 
ATOM     12  C   UNL     1       2.899   7.576  18.335  0.00  0.00    +0.000 A 
ENDROOT
BRANCH  10  13
ATOM     13  C   UNL     1      -0.416  10.191  18.535  0.00  0.00    +0.000 A 
ATOM     14  C   UNL     1      -1.187   9.630  17.410  0.00  0.00    +0.000 A 
ATOM     15  C   UNL     1      -2.434  10.013  17.081  0.00  0.00    +0.000 A 
ATOM     16  C   UNL     1      -3.154  11.063  17.837  0.00  0.00    +0.000 A 
ATOM     17  O   UNL     1      -4.253  11.416  17.472  0.00  0.00    +0.000 OA
ATOM     18  N   UNL     1      -2.440  11.533  18.946  0.00  0.00    +0.000 N 
ATOM     19  C   UNL     1      -3.141  12.545  19.764  0.00  0.00    +0.000 C 
ATOM     20  C   UNL     1      -1.139  11.092  19.294  0.00  0.00    +0.000 A 
ENDBRANCH  10  13
BRANCH   1  21
ATOM     21  N   UNL     1       5.098   6.392  17.027  0.00  0.00    +0.000 N 
ATOM     22  H   UNL     1       5.845   6.713  17.648  0.00  0.00    +0.000 HD
BRANCH  21  23
ATOM     23  C   UNL     1       5.821   5.056  16.314  0.00  0.00    +0.000 C 
ATOM     24  C   UNL     1       6.971   4.606  17.248  0.00  0.00    +0.000 C 
BRANCH  23  30
ATOM     25  C   UNL     1       4.652   2.917  11.590  0.00  0.00    +0.000 C 
ATOM     26  C   UNL     1       5.595   3.648  12.515  0.00  0.00    +0.000 A 
ATOM     27  C   UNL     1       6.806   4.076  11.984  0.00  0.00    +0.000 A 
ATOM     28  C   UNL     1       7.669   4.812  12.777  0.00  0.00    +0.000 A 
ATOM     29  C   UNL     1       7.361   5.135  14.119  0.00  0.00    +0.000 A 
ATOM     30  C   UNL     1       6.221   4.687  14.789  0.00  0.00    +0.000 A 
ATOM     31  C   UNL     1       5.319   3.952  13.901  0.00  0.00    +0.000 A 
ENDBRANCH  23  30
ENDBRANCH  21  23
ENDBRANCH   1  21
TORSDOF 4
ENDMDL
MODEL 3
REMARK VINA RESULT:     -10.7      2.554      4.617
REMARK  Name = 
REMARK  9 active torsions:
REMARK  status: ('A' for Active; 'I' for Inactive)
REMARK    1  A    between atoms: C_1  and  C_2
REMARK    2  A    between atoms: C_6  and  C_7
REMARK    3  A    between atoms: C_7  and  C_8
REMARK    4  A    between atoms: C_7  and  N_9
REMARK    5  A    between atoms: N_9  and  C_10
REMARK    6  A    between atoms: C_12  and  C_13
REMARK    7  A    between atoms: C_17  and  C_18
REMARK    8  A    between atoms: C_19  and  C_20
REMARK    9  A    between atoms: N_25  and  C_26
REMARK                            x       y       z     vdW  Elec       q    Type
REMARK                         _______ _______ _______ _____ _____    ______ ____
ROOT
ATOM      1  C   UNL     1       1.266   8.394  21.043  0.00  0.00    +0.000 A 
ATOM      2  N   UNL     1       1.751   8.867  22.158  0.00  0.00    +0.000 NA
ATOM      3  C   UNL     1       1.002   9.835  22.600  0.00  0.00    +0.000 A 
ATOM      4  C   UNL     1      -0.353   9.297  23.064  0.00  0.00    +0.000 C 
ATOM      5  N   UNL     1       1.035  10.900  21.836  0.00  0.00    +0.000 NA
ATOM      6  C   UNL     1       0.744  10.687  20.555  0.00  0.00    +0.000 A 
ATOM      7  C   UNL     1       0.628  11.882  19.829  0.00  0.00    +0.000 A 
ATOM      8  C   UNL     1      -0.322  12.130  18.821  0.00  0.00    +0.000 A 
ATOM      9  C   UNL     1      -0.418  13.554  18.325  0.00  0.00    +0.000 C 
ATOM     10  C   UNL     1      -1.222  11.097  18.554  0.00  0.00    +0.000 A 
ATOM     11  C   UNL     1      -0.772   9.744  19.052  0.00  0.00    +0.000 A 
ATOM     12  C   UNL     1       0.400   9.424  20.109  0.00  0.00    +0.000 A 
ENDROOT
BRANCH  10  13
ATOM     13  C   UNL     1      -2.698  11.574  18.198  0.00  0.00    +0.000 A 
ATOM     14  C   UNL     1      -3.259  11.231  16.878  0.00  0.00    +0.000 A 
ATOM     15  C   UNL     1      -4.543  11.431  16.527  0.00  0.00    +0.000 A 
ATOM     16  C   UNL     1      -5.523  12.033  17.458  0.00  0.00    +0.000 A 
ATOM     17  O   UNL     1      -6.654  12.246  17.081  0.00  0.00    +0.000 OA
ATOM     18  N   UNL     1      -4.995  12.284  18.731  0.00  0.00    +0.000 N 
ATOM     19  C   UNL     1      -5.952  12.837  19.712  0.00  0.00    +0.000 C 
ATOM     20  C   UNL     1      -3.647  12.036  19.090  0.00  0.00    +0.000 A 
ENDBRANCH  10  13
BRANCH   1  21
ATOM     21  N   UNL     1       1.672   7.054  20.953  0.00  0.00    +0.000 N 
ATOM     22  H   UNL     1       0.856   6.574  21.340  0.00  0.00    +0.000 HD
BRANCH  21  23
ATOM     23  C   UNL     1       1.968   6.135  19.580  0.00  0.00    +0.000 C 
ATOM     24  C   UNL     1       1.721   4.654  19.959  0.00  0.00    +0.000 C 
BRANCH  23  30
ATOM     25  C   UNL     1       5.296   3.709  16.218  0.00  0.00    +0.000 C 
ATOM     26  C   UNL     1       4.687   4.960  16.806  0.00  0.00    +0.000 A 
ATOM     27  C   UNL     1       5.076   6.177  16.261  0.00  0.00    +0.000 A 
ATOM     28  C   UNL     1       4.490   7.342  16.721  0.00  0.00    +0.000 A 
ATOM     29  C   UNL     1       3.510   7.335  17.742  0.00  0.00    +0.000 A 
ATOM     30  C   UNL     1       3.104   6.188  18.427  0.00  0.00    +0.000 A 
ATOM     31  C   UNL     1       3.716   4.978  17.877  0.00  0.00    +0.000 A 
ENDBRANCH  23  30
ENDBRANCH  21  23
ENDBRANCH   1  21
TORSDOF 4
ENDMDL
MODEL 4
REMARK VINA RESULT:     -10.6      1.271      1.865
REMARK  Name = 
REMARK  9 active torsions:
REMARK  status: ('A' for Active; 'I' for Inactive)
REMARK    1  A    between atoms: C_1  and  C_2
REMARK    2  A    between atoms: C_6  and  C_7
REMARK    3  A    between atoms: C_7  and  C_8
REMARK    4  A    between atoms: C_7  and  N_9
REMARK    5  A    between atoms: N_9  and  C_10
REMARK    6  A    between atoms: C_12  and  C_13
REMARK    7  A    between atoms: C_17  and  C_18
REMARK    8  A    between atoms: C_19  and  C_20
REMARK    9  A    between atoms: N_25  and  C_26
REMARK                            x       y       z     vdW  Elec       q    Type
REMARK                         _______ _______ _______ _____ _____    ______ ____
ROOT
ATOM      1  C   UNL     1       4.023   4.968  18.180  0.00  0.00    +0.000 A 
ATOM      2  N   UNL     1       3.542   3.837  18.614  0.00  0.00    +0.000 NA
ATOM      3  C   UNL     1       2.253   3.924  18.765  0.00  0.00    +0.000 A 
ATOM      4  C   UNL     1       1.559   4.045  17.407  0.00  0.00    +0.000 C 
ATOM      5  N   UNL     1       1.902   4.736  19.733  0.00  0.00    +0.000 NA
ATOM      6  C   UNL     1       2.406   5.966  19.649  0.00  0.00    +0.000 A 
ATOM      7  C   UNL     1       1.861   6.831  20.610  0.00  0.00    +0.000 A 
ATOM      8  C   UNL     1       1.535   8.182  20.393  0.00  0.00    +0.000 A 
ATOM      9  C   UNL     1       0.755   8.869  21.490  0.00  0.00    +0.000 C 
ATOM     10  C   UNL     1       1.762   8.672  19.106  0.00  0.00    +0.000 A 
ATOM     11  C   UNL     1       2.715   7.835  18.287  0.00  0.00    +0.000 A 
ATOM     12  C   UNL     1       3.207   6.331  18.583  0.00  0.00    +0.000 A 
ENDROOT
BRANCH  10  13
ATOM     13  C   UNL     1       0.678   9.719  18.591  0.00  0.00    +0.000 A 
ATOM     14  C   UNL     1      -0.541   9.215  17.930  0.00  0.00    +0.000 A 
ATOM     15  C   UNL     1      -1.597   9.983  17.605  0.00  0.00    +0.000 A 
ATOM     16  C   UNL     1      -1.622  11.436  17.885  0.00  0.00    +0.000 A 
ATOM     17  O   UNL     1      -2.570  12.098  17.526  0.00  0.00    +0.000 OA
ATOM     18  N   UNL     1      -0.492  11.886  18.579  0.00  0.00    +0.000 N 
ATOM     19  C   UNL     1      -0.497  13.321  18.928  0.00  0.00    +0.000 C 
ATOM     20  C   UNL     1       0.596  11.053  18.941  0.00  0.00    +0.000 A 
ENDBRANCH  10  13
BRANCH   1  21
ATOM     21  N   UNL     1       5.191   4.672  17.463  0.00  0.00    +0.000 N 
ATOM     22  H   UNL     1       4.980   3.731  17.122  0.00  0.00    +0.000 HD
BRANCH  21  23
ATOM     23  C   UNL     1       5.784   5.397  16.070  0.00  0.00    +0.000 C 
ATOM     24  C   UNL     1       5.019   6.731  15.888  0.00  0.00    +0.000 C 
BRANCH  23  30
ATOM     25  C   UNL     1       4.560   2.876  11.552  0.00  0.00    +0.000 C 
ATOM     26  C   UNL     1       5.539   3.617  12.431  0.00  0.00    +0.000 A 
ATOM     27  C   UNL     1       6.798   3.879  11.905  0.00  0.00    +0.000 A 
ATOM     28  C   UNL     1       7.701   4.618  12.648  0.00  0.00    +0.000 A 
ATOM     29  C   UNL     1       7.386   5.107  13.938  0.00  0.00    +0.000 A 
ATOM     30  C   UNL     1       6.192   4.833  14.607  0.00  0.00    +0.000 A 
ATOM     31  C   UNL     1       5.253   4.089  13.767  0.00  0.00    +0.000 A 
ENDBRANCH  23  30
ENDBRANCH  21  23
ENDBRANCH   1  21
TORSDOF 4
ENDMDL
MODEL 5
REMARK VINA RESULT:     -10.5      2.724      4.799
REMARK  Name = 
REMARK  9 active torsions:
REMARK  status: ('A' for Active; 'I' for Inactive)
REMARK    1  A    between atoms: C_1  and  C_2
REMARK    2  A    between atoms: C_6  and  C_7
REMARK    3  A    between atoms: C_7  and  C_8
REMARK    4  A    between atoms: C_7  and  N_9
REMARK    5  A    between atoms: N_9  and  C_10
REMARK    6  A    between atoms: C_12  and  C_13
REMARK    7  A    between atoms: C_17  and  C_18
REMARK    8  A    between atoms: C_19  and  C_20
REMARK    9  A    between atoms: N_25  and  C_26
REMARK                            x       y       z     vdW  Elec       q    Type
REMARK                         _______ _______ _______ _____ _____    ______ ____
ROOT
ATOM      1  C   UNL     1       1.321   8.352  21.101  0.00  0.00    +0.000 A 
ATOM      2  N   UNL     1       1.790   8.851  22.212  0.00  0.00    +0.000 NA
ATOM      3  C   UNL     1       1.033   9.826  22.622  0.00  0.00    +0.000 A 
ATOM      4  C   UNL     1      -0.328   9.296  23.079  0.00  0.00    +0.000 C 
ATOM      5  N   UNL     1       1.074  10.874  21.836  0.00  0.00    +0.000 NA
ATOM      6  C   UNL     1       0.802  10.632  20.555  0.00  0.00    +0.000 A 
ATOM      7  C   UNL     1       0.694  11.811  19.801  0.00  0.00    +0.000 A 
ATOM      8  C   UNL     1      -0.242  12.034  18.775  0.00  0.00    +0.000 A 
ATOM      9  C   UNL     1      -0.334  13.447  18.246  0.00  0.00    +0.000 C 
ATOM     10  C   UNL     1      -1.136  10.993  18.518  0.00  0.00    +0.000 A 
ATOM     11  C   UNL     1      -0.690   9.653  19.052  0.00  0.00    +0.000 A 
ATOM     12  C   UNL     1       0.467   9.359  20.132  0.00  0.00    +0.000 A 
ENDROOT
BRANCH  10  13
ATOM     13  C   UNL     1      -2.608  11.460  18.131  0.00  0.00    +0.000 A 
ATOM     14  C   UNL     1      -3.155  11.074  16.817  0.00  0.00    +0.000 A 
ATOM     15  C   UNL     1      -4.434  11.263  16.445  0.00  0.00    +0.000 A 
ATOM     16  C   UNL     1      -5.424  11.895  17.345  0.00  0.00    +0.000 A 
ATOM     17  O   UNL     1      -6.551  12.096  16.950  0.00  0.00    +0.000 OA
ATOM     18  N   UNL     1      -4.910  12.187  18.615  0.00  0.00    +0.000 N 
ATOM     19  C   UNL     1      -5.877  12.772  19.568  0.00  0.00    +0.000 C 
ATOM     20  C   UNL     1      -3.566  11.951  18.997  0.00  0.00    +0.000 A 
ENDBRANCH  10  13
BRANCH   1  21
ATOM     21  N   UNL     1       1.731   7.012  21.046  0.00  0.00    +0.000 N 
ATOM     22  H   UNL     1       1.096   6.583  21.723  0.00  0.00    +0.000 HD
BRANCH  21  23
ATOM     23  C   UNL     1       1.622   5.930  19.768  0.00  0.00    +0.000 C 
ATOM     24  C   UNL     1       0.876   4.678  20.291  0.00  0.00    +0.000 C 
BRANCH  23  30
ATOM     25  C   UNL     1       5.937   6.770  16.778  0.00  0.00    +0.000 C 
ATOM     26  C   UNL     1       4.762   5.918  17.197  0.00  0.00    +0.000 A 
ATOM     27  C   UNL     1       4.637   4.668  16.606  0.00  0.00    +0.000 A 
ATOM     28  C   UNL     1       3.616   3.827  17.012  0.00  0.00    +0.000 A 
ATOM     29  C   UNL     1       2.685   4.207  18.007  0.00  0.00    +0.000 A 
ATOM     30  C   UNL     1       2.653   5.467  18.608  0.00  0.00    +0.000 A 
ATOM     31  C   UNL     1       3.775   6.303  18.181  0.00  0.00    +0.000 A 
ENDBRANCH  23  30
ENDBRANCH  21  23
ENDBRANCH   1  21
TORSDOF 4
ENDMDL
MODEL 6
REMARK VINA RESULT:     -10.4      3.153      5.131
REMARK  Name = 
REMARK  9 active torsions:
REMARK  status: ('A' for Active; 'I' for Inactive)
REMARK    1  A    between atoms: C_1  and  C_2
REMARK    2  A    between atoms: C_6  and  C_7
REMARK    3  A    between atoms: C_7  and  C_8
REMARK    4  A    between atoms: C_7  and  N_9
REMARK    5  A    between atoms: N_9  and  C_10
REMARK    6  A    between atoms: C_12  and  C_13
REMARK    7  A    between atoms: C_17  and  C_18
REMARK    8  A    between atoms: C_19  and  C_20
REMARK    9  A    between atoms: N_25  and  C_26
REMARK                            x       y       z     vdW  Elec       q    Type
REMARK                         _______ _______ _______ _____ _____    ______ ____
ROOT
ATOM      1  C   UNL     1       1.192   8.634  20.969  0.00  0.00    +0.000 A 
ATOM      2  N   UNL     1       1.619   9.031  22.136  0.00  0.00    +0.000 NA
ATOM      3  C   UNL     1       0.793   9.896  22.647  0.00  0.00    +0.000 A 
ATOM      4  C   UNL     1      -0.527   9.221  23.023  0.00  0.00    +0.000 C 
ATOM      5  N   UNL     1       0.762  11.029  21.988  0.00  0.00    +0.000 NA
ATOM      6  C   UNL     1       0.513  10.920  20.685  0.00  0.00    +0.000 A 
ATOM      7  C   UNL     1       0.323  12.168  20.072  0.00  0.00    +0.000 A 
ATOM      8  C   UNL     1      -0.622  12.443  19.067  0.00  0.00    +0.000 A 
ATOM      9  C   UNL     1      -0.814  13.897  18.705  0.00  0.00    +0.000 C 
ATOM     10  C   UNL     1      -1.439  11.378  18.680  0.00  0.00    +0.000 A 
ATOM     11  C   UNL     1      -0.900  10.020  19.060  0.00  0.00    +0.000 A 
ATOM     12  C   UNL     1       0.271   9.684  20.113  0.00  0.00    +0.000 A 
ENDROOT
BRANCH  10  13
ATOM     13  C   UNL     1      -2.939  11.781  18.332  0.00  0.00    +0.000 A 
ATOM     14  C   UNL     1      -3.490  11.408  17.016  0.00  0.00    +0.000 A 
ATOM     15  C   UNL     1      -4.784  11.543  16.672  0.00  0.00    +0.000 A 
ATOM     16  C   UNL     1      -5.787  12.097  17.608  0.00  0.00    +0.000 A 
ATOM     17  O   UNL     1      -6.930  12.253  17.237  0.00  0.00    +0.000 OA
ATOM     18  N   UNL     1      -5.266  12.376  18.877  0.00  0.00    +0.000 N 
ATOM     19  C   UNL     1      -6.243  12.883  19.863  0.00  0.00    +0.000 C 
ATOM     20  C   UNL     1      -3.905  12.197  19.229  0.00  0.00    +0.000 A 
ENDBRANCH  10  13
BRANCH   1  21
ATOM     21  N   UNL     1       1.697   7.342  20.763  0.00  0.00    +0.000 N 
ATOM     22  H   UNL     1       0.833   6.798  20.707  0.00  0.00    +0.000 HD
BRANCH  21  23
ATOM     23  C   UNL     1       2.545   6.740  19.446  0.00  0.00    +0.000 C 
ATOM     24  C   UNL     1       2.502   7.824  18.341  0.00  0.00    +0.000 C 
BRANCH  23  30
ATOM     25  C   UNL     1       0.675   1.814  18.739  0.00  0.00    +0.000 C 
ATOM     26  C   UNL     1       1.660   2.914  18.422  0.00  0.00    +0.000 A 
ATOM     27  C   UNL     1       2.597   2.666  17.427  0.00  0.00    +0.000 A 
ATOM     28  C   UNL     1       3.472   3.671  17.056  0.00  0.00    +0.000 A 
ATOM     29  C   UNL     1       3.450   4.946  17.668  0.00  0.00    +0.000 A 
ATOM     30  C   UNL     1       2.618   5.285  18.737  0.00  0.00    +0.000 A 
ATOM     31  C   UNL     1       1.683   4.209  19.064  0.00  0.00    +0.000 A 
ENDBRANCH  23  30
ENDBRANCH  21  23
ENDBRANCH   1  21
TORSDOF 4
ENDMDL
MODEL 7
REMARK VINA RESULT:     -10.3      2.407      4.607
REMARK  Name = 
REMARK  9 active torsions:
REMARK  status: ('A' for Active; 'I' for Inactive)
REMARK    1  A    between atoms: C_1  and  C_2
REMARK    2  A    between atoms: C_6  and  C_7
REMARK    3  A    between atoms: C_7  and  C_8
REMARK    4  A    between atoms: C_7  and  N_9
REMARK    5  A    between atoms: N_9  and  C_10
REMARK    6  A    between atoms: C_12  and  C_13
REMARK    7  A    between atoms: C_17  and  C_18
REMARK    8  A    between atoms: C_19  and  C_20
REMARK    9  A    between atoms: N_25  and  C_26
REMARK                            x       y       z     vdW  Elec       q    Type
REMARK                         _______ _______ _______ _____ _____    ______ ____
ROOT
ATOM      1  C   UNL     1       1.318   8.261  20.981  0.00  0.00    +0.000 A 
ATOM      2  N   UNL     1       1.804   8.720  22.101  0.00  0.00    +0.000 NA
ATOM      3  C   UNL     1       1.065   9.694  22.547  0.00  0.00    +0.000 A 
ATOM      4  C   UNL     1      -0.298   9.169  23.002  0.00  0.00    +0.000 C 
ATOM      5  N   UNL     1       1.114  10.764  21.791  0.00  0.00    +0.000 NA
ATOM      6  C   UNL     1       0.826  10.563  20.507  0.00  0.00    +0.000 A 
ATOM      7  C   UNL     1       0.728  11.765  19.788  0.00  0.00    +0.000 A 
ATOM      8  C   UNL     1      -0.214  12.031  18.778  0.00  0.00    +0.000 A 
ATOM      9  C   UNL     1      -0.291  13.459  18.292  0.00  0.00    +0.000 C 
ATOM     10  C   UNL     1      -1.125  11.011  18.500  0.00  0.00    +0.000 A 
ATOM     11  C   UNL     1      -0.694   9.649  18.990  0.00  0.00    +0.000 A 
ATOM     12  C   UNL     1       0.469   9.307  20.050  0.00  0.00    +0.000 A 
ENDROOT
BRANCH  10  13
ATOM     13  C   UNL     1      -2.594  11.509  18.141  0.00  0.00    +0.000 A 
ATOM     14  C   UNL     1      -3.153  11.184  16.816  0.00  0.00    +0.000 A 
ATOM     15  C   UNL     1      -4.432  11.402  16.460  0.00  0.00    +0.000 A 
ATOM     16  C   UNL     1      -5.409  12.007  17.391  0.00  0.00    +0.000 A 
ATOM     17  O   UNL     1      -6.536  12.237  17.011  0.00  0.00    +0.000 OA
ATOM     18  N   UNL     1      -4.885  12.241  18.668  0.00  0.00    +0.000 N 
ATOM     19  C   UNL     1      -5.840  12.797  19.650  0.00  0.00    +0.000 C 
ATOM     20  C   UNL     1      -3.542  11.974  19.032  0.00  0.00    +0.000 A 
ENDBRANCH  10  13
BRANCH   1  21
ATOM     21  N   UNL     1       1.708   6.917  20.883  0.00  0.00    +0.000 N 
ATOM     22  H   UNL     1       0.833   6.440  21.112  0.00  0.00    +0.000 HD
BRANCH  21  23
ATOM     23  C   UNL     1       2.199   6.060  19.526  0.00  0.00    +0.000 C 
ATOM     24  C   UNL     1       1.368   4.754  19.484  0.00  0.00    +0.000 C 
BRANCH  23  30
ATOM     25  C   UNL     1       5.385   5.854  15.275  0.00  0.00    +0.000 C 
ATOM     26  C   UNL     1       5.146   5.705  16.759  0.00  0.00    +0.000 A 
ATOM     27  C   UNL     1       6.241   5.389  17.554  0.00  0.00    +0.000 A 
ATOM     28  C   UNL     1       6.081   5.314  18.926  0.00  0.00    +0.000 A 
ATOM     29  C   UNL     1       4.830   5.538  19.547  0.00  0.00    +0.000 A 
ATOM     30  C   UNL     1       3.643   5.772  18.851  0.00  0.00    +0.000 A 
ATOM     31  C   UNL     1       3.868   5.888  17.410  0.00  0.00    +0.000 A 
ENDBRANCH  23  30
ENDBRANCH  21  23
ENDBRANCH   1  21
TORSDOF 4
ENDMDL
MODEL 8
REMARK VINA RESULT:     -10.3      3.354      9.853
REMARK  Name = 
REMARK  9 active torsions:
REMARK  status: ('A' for Active; 'I' for Inactive)
REMARK    1  A    between atoms: C_1  and  C_2
REMARK    2  A    between atoms: C_6  and  C_7
REMARK    3  A    between atoms: C_7  and  C_8
REMARK    4  A    between atoms: C_7  and  N_9
REMARK    5  A    between atoms: N_9  and  C_10
REMARK    6  A    between atoms: C_12  and  C_13
REMARK    7  A    between atoms: C_17  and  C_18
REMARK    8  A    between atoms: C_19  and  C_20
REMARK    9  A    between atoms: N_25  and  C_26
REMARK                            x       y       z     vdW  Elec       q    Type
REMARK                         _______ _______ _______ _____ _____    ______ ____
ROOT
ATOM      1  C   UNL     1      -0.301  10.591  18.437  0.00  0.00    +0.000 A 
ATOM      2  N   UNL     1      -0.313  11.311  19.524  0.00  0.00    +0.000 NA
ATOM      3  C   UNL     1       0.849  11.262  20.108  0.00  0.00    +0.000 A 
ATOM      4  C   UNL     1       1.901  11.994  19.273  0.00  0.00    +0.000 C 
ATOM      5  N   UNL     1       1.133  10.077  20.591  0.00  0.00    +0.000 NA
ATOM      6  C   UNL     1       1.053   9.077  19.717  0.00  0.00    +0.000 A 
ATOM      7  C   UNL     1       1.531   7.868  20.245  0.00  0.00    +0.000 A 
ATOM      8  C   UNL     1       2.283   6.914  19.536  0.00  0.00    +0.000 A 
ATOM      9  C   UNL     1       2.887   5.793  20.351  0.00  0.00    +0.000 C 
ATOM     10  C   UNL     1       2.581   7.225  18.208  0.00  0.00    +0.000 A 
ATOM     11  C   UNL     1       1.697   8.295  17.614  0.00  0.00    +0.000 A 
ATOM     12  C   UNL     1       0.727   9.317  18.394  0.00  0.00    +0.000 A 
ENDROOT
BRANCH  10  13
ATOM     13  C   UNL     1       4.021   6.754  17.720  0.00  0.00    +0.000 A 
ATOM     14  C   UNL     1       4.120   5.616  16.787  0.00  0.00    +0.000 A 
ATOM     15  C   UNL     1       5.257   5.235  16.177  0.00  0.00    +0.000 A 
ATOM     16  C   UNL     1       6.539   5.939  16.402  0.00  0.00    +0.000 A 
ATOM     17  O   UNL     1       7.549   5.528  15.876  0.00  0.00    +0.000 OA
ATOM     18  N   UNL     1       6.415   7.062  17.231  0.00  0.00    +0.000 N 
ATOM     19  C   UNL     1       7.660   7.829  17.442  0.00  0.00    +0.000 C 
ATOM     20  C   UNL     1       5.200   7.465  17.838  0.00  0.00    +0.000 A 
ENDBRANCH  10  13
BRANCH   1  21
ATOM     21  N   UNL     1      -1.254  11.143  17.567  0.00  0.00    +0.000 N 
ATOM     22  H   UNL     1      -0.747  11.121  16.679  0.00  0.00    +0.000 HD
BRANCH  21  23
ATOM     23  C   UNL     1      -2.743  10.522  17.106  0.00  0.00    +0.000 C 
ATOM     24  C   UNL     1      -2.641  10.155  15.605  0.00  0.00    +0.000 C 
BRANCH  23  30
ATOM     25  C   UNL     1      -7.218   9.958  19.920  0.00  0.00    +0.000 C 
ATOM     26  C   UNL     1      -6.412  10.634  18.836  0.00  0.00    +0.000 A 
ATOM     27  C   UNL     1      -7.004  11.699  18.170  0.00  0.00    +0.000 A 
ATOM     28  C   UNL     1      -6.276  12.392  17.219  0.00  0.00    +0.000 A 
ATOM     29  C   UNL     1      -4.944  12.041  16.896  0.00  0.00    +0.000 A 
ATOM     30  C   UNL     1      -4.274  10.939  17.430  0.00  0.00    +0.000 A 
ATOM     31  C   UNL     1      -5.066  10.266  18.460  0.00  0.00    +0.000 A 
ENDBRANCH  23  30
ENDBRANCH  21  23
ENDBRANCH   1  21
TORSDOF 4
ENDMDL
MODEL 9
REMARK VINA RESULT:     -10.3      4.179     10.403
REMARK  Name = 
REMARK  9 active torsions:
REMARK  status: ('A' for Active; 'I' for Inactive)
REMARK    1  A    between atoms: C_1  and  C_2
REMARK    2  A    between atoms: C_6  and  C_7
REMARK    3  A    between atoms: C_7  and  C_8
REMARK    4  A    between atoms: C_7  and  N_9
REMARK    5  A    between atoms: N_9  and  C_10
REMARK    6  A    between atoms: C_12  and  C_13
REMARK    7  A    between atoms: C_17  and  C_18
REMARK    8  A    between atoms: C_19  and  C_20
REMARK    9  A    between atoms: N_25  and  C_26
REMARK                            x       y       z     vdW  Elec       q    Type
REMARK                         _______ _______ _______ _____ _____    ______ ____
ROOT
ATOM      1  C   UNL     1       0.324  11.204  20.321  0.00  0.00    +0.000 A 
ATOM      2  N   UNL     1      -0.190  11.833  19.300  0.00  0.00    +0.000 NA
ATOM      3  C   UNL     1      -0.539  10.985  18.378  0.00  0.00    +0.000 A 
ATOM      4  C   UNL     1      -1.728  10.143  18.844  0.00  0.00    +0.000 C 
ATOM      5  N   UNL     1       0.483  10.386  17.818  0.00  0.00    +0.000 NA
ATOM      6  C   UNL     1       1.315   9.779  18.661  0.00  0.00    +0.000 A 
ATOM      7  C   UNL     1       2.287   9.016  17.995  0.00  0.00    +0.000 A 
ATOM      8  C   UNL     1       2.764   7.763  18.419  0.00  0.00    +0.000 A 
ATOM      9  C   UNL     1       3.640   7.012  17.443  0.00  0.00    +0.000 C 
ATOM     10  C   UNL     1       2.197   7.249  19.587  0.00  0.00    +0.000 A 
ATOM     11  C   UNL     1       1.506   8.284  20.443  0.00  0.00    +0.000 A 
ATOM     12  C   UNL     1       1.064   9.774  20.021  0.00  0.00    +0.000 A 
ENDROOT
BRANCH  10  13
ATOM     13  C   UNL     1       1.988   5.671  19.588  0.00  0.00    +0.000 A 
ATOM     14  C   UNL     1       1.704   4.989  18.312  0.00  0.00    +0.000 A 
ATOM     15  C   UNL     1       1.674   3.653  18.159  0.00  0.00    +0.000 A 
ATOM     16  C   UNL     1       1.924   2.731  19.289  0.00  0.00    +0.000 A 
ATOM     17  O   UNL     1       1.833   1.535  19.118  0.00  0.00    +0.000 OA
ATOM     18  N   UNL     1       2.266   3.391  20.476  0.00  0.00    +0.000 N 
ATOM     19  C   UNL     1       2.578   2.509  21.620  0.00  0.00    +0.000 C 
ATOM     20  C   UNL     1       2.323   4.800  20.608  0.00  0.00    +0.000 A 
ENDBRANCH  10  13
BRANCH   1  21
ATOM     21  N   UNL     1       0.097  12.000  21.453  0.00  0.00    +0.000 N 
ATOM     22  H   UNL     1      -0.170  12.888  21.021  0.00  0.00    +0.000 HD
BRANCH  21  23
ATOM     23  C   UNL     1      -1.090  11.842  22.629  0.00  0.00    +0.000 C 
ATOM     24  C   UNL     1      -0.982  10.407  23.199  0.00  0.00    +0.000 C 
BRANCH  23  30
ATOM     25  C   UNL     1      -5.675  13.238  20.329  0.00  0.00    +0.000 C 
ATOM     26  C   UNL     1      -4.837  12.973  21.558  0.00  0.00    +0.000 A 
ATOM     27  C   UNL     1      -5.465  13.071  22.793  0.00  0.00    +0.000 A 
ATOM     28  C   UNL     1      -4.753  12.767  23.939  0.00  0.00    +0.000 A 
ATOM     29  C   UNL     1      -3.397  12.367  23.894  0.00  0.00    +0.000 A 
ATOM     30  C   UNL     1      -2.635  12.319  22.725  0.00  0.00    +0.000 A 
ATOM     31  C   UNL     1      -3.439  12.605  21.537  0.00  0.00    +0.000 A 
ENDBRANCH  23  30
ENDBRANCH  21  23
ENDBRANCH   1  21
TORSDOF 4
ENDMDL
