MODEL 1
REMARK VINA RESULT:      -8.1      0.000      0.000
REMARK  Name = 
REMARK  5 active torsions:
REMARK  status: ('A' for Active; 'I' for Inactive)
REMARK    1  A    between atoms: C_1  and  C_2
REMARK    2  A    between atoms: C_6  and  C_7
REMARK    3  A    between atoms: C_13  and  C_14
REMARK    4  A    between atoms: C_14  and  C_15
REMARK    5  A    between atoms: C_23  and  C_24
REMARK                            x       y       z     vdW  Elec       q    Type
REMARK                         _______ _______ _______ _____ _____    ______ ____
ROOT
ATOM      1  C   UNL     1       0.172  11.193  18.684  0.00  0.00    +0.000 C 
ATOM      2  C   UNL     1       1.005   9.945  18.828  0.00  0.00    +0.000 A 
ATOM      3  C   UNL     1       1.895   9.636  17.869  0.00  0.00    +0.000 A 
ATOM      4  C   UNL     1       2.680   8.464  17.955  0.00  0.00    +0.000 A 
ATOM      5  N   UNL     1       3.549   8.017  17.086  0.00  0.00    +0.000 NA
ATOM      6  C   UNL     1       4.008   6.834  17.587  0.00  0.00    +0.000 A 
ATOM      7  C   UNL     1       3.458   6.582  18.842  0.00  0.00    +0.000 A 
ATOM      8  N   UNL     1       2.539   7.627  19.069  0.00  0.00    +0.000 N 
ATOM      9  C   UNL     1       1.599   7.926  20.103  0.00  0.00    +0.000 A 
ATOM     10  C   UNL     1       1.391   7.026  21.293  0.00  0.00    +0.000 C 
ATOM     11  C   UNL     1       0.848   9.060  19.992  0.00  0.00    +0.000 A 
ATOM     12 BR   UNL     1      -0.418   9.568  21.303  0.00  0.00    +0.000 Br
ENDROOT
BRANCH   6  13
ATOM     13  C   UNL     1       4.951   6.033  16.809  0.00  0.00    +0.000 A 
ATOM     14  C   UNL     1       4.475   4.907  16.115  0.00  0.00    +0.000 A 
ATOM     15  C   UNL     1       5.352   4.053  15.438  0.00  0.00    +0.000 A 
ATOM     16  C   UNL     1       6.719   4.316  15.439  0.00  0.00    +0.000 A 
ATOM     17  C   UNL     1       7.207   5.430  16.114  0.00  0.00    +0.000 A 
ATOM     18  C   UNL     1       6.328   6.277  16.798  0.00  0.00    +0.000 A 
ENDBRANCH   6  13
BRANCH   7  19
ATOM     19  C   UNL     1       3.777   5.464  19.784  0.00  0.00    +0.000 C 
BRANCH  19  20
ATOM     20  C   UNL     1       3.251   4.091  19.391  0.00  0.00    +0.000 A 
ATOM     21  C   UNL     1       4.174   3.042  19.222  0.00  0.00    +0.000 A 
ATOM     22  C   UNL     1       3.748   1.755  18.877  0.00  0.00    +0.000 A 
ATOM     23  C   UNL     1       2.393   1.499  18.687  0.00  0.00    +0.000 A 
ATOM     24  C   UNL     1       1.479   2.533  18.833  0.00  0.00    +0.000 A 
ATOM     25  F   UNL     1       0.174   2.290  18.635  0.00  0.00    +0.000 F 
ATOM     26  C   UNL     1       1.890   3.816  19.176  0.00  0.00    +0.000 A 
ENDBRANCH  19  20
ENDBRANCH   7  19
TORSDOF 3
ENDMDL
MODEL 2
REMARK VINA RESULT:      -8.0      1.155      1.325
REMARK  Name = 
REMARK  5 active torsions:
REMARK  status: ('A' for Active; 'I' for Inactive)
REMARK    1  A    between atoms: C_1  and  C_2
REMARK    2  A    between atoms: C_6  and  C_7
REMARK    3  A    between atoms: C_13  and  C_14
REMARK    4  A    between atoms: C_14  and  C_15
REMARK    5  A    between atoms: C_23  and  C_24
REMARK                            x       y       z     vdW  Elec       q    Type
REMARK                         _______ _______ _______ _____ _____    ______ ____
ROOT
ATOM      1  C   UNL     1       0.171  11.439  18.552  0.00  0.00    +0.000 C 
ATOM      2  C   UNL     1       0.964  10.172  18.743  0.00  0.00    +0.000 A 
ATOM      3  C   UNL     1       1.823   9.784  17.785  0.00  0.00    +0.000 A 
ATOM      4  C   UNL     1       2.570   8.592  17.915  0.00  0.00    +0.000 A 
ATOM      5  N   UNL     1       3.404   8.071  17.053  0.00  0.00    +0.000 NA
ATOM      6  C   UNL     1       3.834   6.900  17.605  0.00  0.00    +0.000 A 
ATOM      7  C   UNL     1       3.302   6.730  18.882  0.00  0.00    +0.000 A 
ATOM      8  N   UNL     1       2.423   7.817  19.072  0.00  0.00    +0.000 N 
ATOM      9  C   UNL     1       1.516   8.199  20.108  0.00  0.00    +0.000 A 
ATOM     10  C   UNL     1       1.302   7.369  21.346  0.00  0.00    +0.000 C 
ATOM     11  C   UNL     1       0.801   9.352  19.954  0.00  0.00    +0.000 A 
ATOM     12 BR   UNL     1      -0.420   9.969  21.261  0.00  0.00    +0.000 Br
ENDROOT
BRANCH   6  13
ATOM     13  C   UNL     1       4.732   6.028  16.851  0.00  0.00    +0.000 A 
ATOM     14  C   UNL     1       4.291   4.743  16.493  0.00  0.00    +0.000 A 
ATOM     15  C   UNL     1       5.147   3.837  15.858  0.00  0.00    +0.000 A 
ATOM     16  C   UNL     1       6.457   4.205  15.566  0.00  0.00    +0.000 A 
ATOM     17  C   UNL     1       6.909   5.476  15.907  0.00  0.00    +0.000 A 
ATOM     18  C   UNL     1       6.053   6.376  16.550  0.00  0.00    +0.000 A 
ENDBRANCH   6  13
BRANCH   7  19
ATOM     19  C   UNL     1       3.601   5.651  19.873  0.00  0.00    +0.000 C 
BRANCH  19  20
ATOM     20  C   UNL     1       2.593   4.512  19.943  0.00  0.00    +0.000 A 
ATOM     21  C   UNL     1       2.017   4.052  18.745  0.00  0.00    +0.000 A 
ATOM     22  C   UNL     1       1.097   2.998  18.745  0.00  0.00    +0.000 A 
ATOM     23  C   UNL     1       0.733   2.393  19.945  0.00  0.00    +0.000 A 
ATOM     24  C   UNL     1       1.282   2.855  21.133  0.00  0.00    +0.000 A 
ATOM     25  F   UNL     1       0.920   2.283  22.291  0.00  0.00    +0.000 F 
ATOM     26  C   UNL     1       2.198   3.901  21.145  0.00  0.00    +0.000 A 
ENDBRANCH  19  20
ENDBRANCH   7  19
TORSDOF 3
ENDMDL
MODEL 3
REMARK VINA RESULT:      -8.0      0.942      1.512
REMARK  Name = 
REMARK  5 active torsions:
REMARK  status: ('A' for Active; 'I' for Inactive)
REMARK    1  A    between atoms: C_1  and  C_2
REMARK    2  A    between atoms: C_6  and  C_7
REMARK    3  A    between atoms: C_13  and  C_14
REMARK    4  A    between atoms: C_14  and  C_15
REMARK    5  A    between atoms: C_23  and  C_24
REMARK                            x       y       z     vdW  Elec       q    Type
REMARK                         _______ _______ _______ _____ _____    ______ ____
ROOT
ATOM      1  C   UNL     1       0.378  11.351  18.606  0.00  0.00    +0.000 C 
ATOM      2  C   UNL     1       1.142  10.062  18.770  0.00  0.00    +0.000 A 
ATOM      3  C   UNL     1       2.054   9.717  17.846  0.00  0.00    +0.000 A 
ATOM      4  C   UNL     1       2.776   8.507  17.952  0.00  0.00    +0.000 A 
ATOM      5  N   UNL     1       3.656   8.023  17.114  0.00  0.00    +0.000 NA
ATOM      6  C   UNL     1       4.036   6.815  17.622  0.00  0.00    +0.000 A 
ATOM      7  C   UNL     1       3.423   6.581  18.851  0.00  0.00    +0.000 A 
ATOM      8  N   UNL     1       2.548   7.669  19.050  0.00  0.00    +0.000 N 
ATOM      9  C   UNL     1       1.582   8.005  20.048  0.00  0.00    +0.000 A 
ATOM     10  C   UNL     1       1.281   7.108  21.220  0.00  0.00    +0.000 C 
ATOM     11  C   UNL     1       0.893   9.176  19.919  0.00  0.00    +0.000 A 
ATOM     12 BR   UNL     1      -0.399   9.736  21.182  0.00  0.00    +0.000 Br
ENDROOT
BRANCH   6  13
ATOM     13  C   UNL     1       4.969   5.974  16.874  0.00  0.00    +0.000 A 
ATOM     14  C   UNL     1       6.108   5.475  17.528  0.00  0.00    +0.000 A 
ATOM     15  C   UNL     1       7.079   4.749  16.832  0.00  0.00    +0.000 A 
ATOM     16  C   UNL     1       6.924   4.505  15.471  0.00  0.00    +0.000 A 
ATOM     17  C   UNL     1       5.799   4.986  14.808  0.00  0.00    +0.000 A 
ATOM     18  C   UNL     1       4.833   5.720  15.505  0.00  0.00    +0.000 A 
ENDBRANCH   6  13
BRANCH   7  19
ATOM     19  C   UNL     1       3.647   5.441  19.794  0.00  0.00    +0.000 C 
BRANCH  19  20
ATOM     20  C   UNL     1       3.024   4.112  19.391  0.00  0.00    +0.000 A 
ATOM     21  C   UNL     1       1.620   4.010  19.364  0.00  0.00    +0.000 A 
ATOM     22  C   UNL     1       0.991   2.819  18.987  0.00  0.00    +0.000 A 
ATOM     23  C   UNL     1       1.756   1.709  18.637  0.00  0.00    +0.000 A 
ATOM     24  C   UNL     1       3.140   1.797  18.681  0.00  0.00    +0.000 A 
ATOM     25  F   UNL     1       3.877   0.723  18.359  0.00  0.00    +0.000 F 
ATOM     26  C   UNL     1       3.777   2.975  19.054  0.00  0.00    +0.000 A 
ENDBRANCH  19  20
ENDBRANCH   7  19
TORSDOF 3
ENDMDL
MODEL 4
REMARK VINA RESULT:      -8.0      1.854      2.334
REMARK  Name = 
REMARK  5 active torsions:
REMARK  status: ('A' for Active; 'I' for Inactive)
REMARK    1  A    between atoms: C_1  and  C_2
REMARK    2  A    between atoms: C_6  and  C_7
REMARK    3  A    between atoms: C_13  and  C_14
REMARK    4  A    between atoms: C_14  and  C_15
REMARK    5  A    between atoms: C_23  and  C_24
REMARK                            x       y       z     vdW  Elec       q    Type
REMARK                         _______ _______ _______ _____ _____    ______ ____
ROOT
ATOM      1  C   UNL     1       0.237  12.517  18.520  0.00  0.00    +0.000 C 
ATOM      2  C   UNL     1       0.650  11.145  18.987  0.00  0.00    +0.000 A 
ATOM      3  C   UNL     1       1.468  10.407  18.215  0.00  0.00    +0.000 A 
ATOM      4  C   UNL     1       1.862   9.108  18.607  0.00  0.00    +0.000 A 
ATOM      5  N   UNL     1       2.612   8.265  17.945  0.00  0.00    +0.000 NA
ATOM      6  C   UNL     1       2.666   7.133  18.704  0.00  0.00    +0.000 A 
ATOM      7  C   UNL     1       1.987   7.311  19.907  0.00  0.00    +0.000 A 
ATOM      8  N   UNL     1       1.407   8.594  19.827  0.00  0.00    +0.000 N 
ATOM      9  C   UNL     1       0.534   9.351  20.668  0.00  0.00    +0.000 A 
ATOM     10  C   UNL     1      -0.009   8.813  21.966  0.00  0.00    +0.000 C 
ATOM     11  C   UNL     1       0.162  10.600  20.263  0.00  0.00    +0.000 A 
ATOM     12 BR   UNL     1      -0.977  11.702  21.297  0.00  0.00    +0.000 Br
ENDROOT
BRANCH   6  13
ATOM     13  C   UNL     1       3.376   5.957  18.204  0.00  0.00    +0.000 A 
ATOM     14  C   UNL     1       2.665   4.997  17.465  0.00  0.00    +0.000 A 
ATOM     15  C   UNL     1       3.275   3.809  17.049  0.00  0.00    +0.000 A 
ATOM     16  C   UNL     1       4.609   3.565  17.362  0.00  0.00    +0.000 A 
ATOM     17  C   UNL     1       5.331   4.508  18.087  0.00  0.00    +0.000 A 
ATOM     18  C   UNL     1       4.715   5.691  18.509  0.00  0.00    +0.000 A 
ENDBRANCH   6  13
BRANCH   7  19
ATOM     19  C   UNL     1       1.896   6.370  21.067  0.00  0.00    +0.000 C 
BRANCH  19  20
ATOM     20  C   UNL     1       1.925   4.887  20.725  0.00  0.00    +0.000 A 
ATOM     21  C   UNL     1       0.778   4.310  20.149  0.00  0.00    +0.000 A 
ATOM     22  C   UNL     1       0.750   2.956  19.798  0.00  0.00    +0.000 A 
ATOM     23  C   UNL     1       1.868   2.156  20.026  0.00  0.00    +0.000 A 
ATOM     24  C   UNL     1       2.995   2.714  20.612  0.00  0.00    +0.000 A 
ATOM     25  F   UNL     1       4.066   1.941  20.846  0.00  0.00    +0.000 F 
ATOM     26  C   UNL     1       3.034   4.059  20.964  0.00  0.00    +0.000 A 
ENDBRANCH  19  20
ENDBRANCH   7  19
TORSDOF 3
ENDMDL
MODEL 5
REMARK VINA RESULT:      -7.9      2.213      4.335
REMARK  Name = 
REMARK  5 active torsions:
REMARK  status: ('A' for Active; 'I' for Inactive)
REMARK    1  A    between atoms: C_1  and  C_2
REMARK    2  A    between atoms: C_6  and  C_7
REMARK    3  A    between atoms: C_13  and  C_14
REMARK    4  A    between atoms: C_14  and  C_15
REMARK    5  A    between atoms: C_23  and  C_24
REMARK                            x       y       z     vdW  Elec       q    Type
REMARK                         _______ _______ _______ _____ _____    ______ ____
ROOT
ATOM      1  C   UNL     1      -0.160   9.921  22.553  0.00  0.00    +0.000 C 
ATOM      2  C   UNL     1       0.546   9.175  21.451  0.00  0.00    +0.000 A 
ATOM      3  C   UNL     1       0.722   7.847  21.564  0.00  0.00    +0.000 A 
ATOM      4  C   UNL     1       1.398   7.114  20.563  0.00  0.00    +0.000 A 
ATOM      5  N   UNL     1       1.678   5.836  20.558  0.00  0.00    +0.000 NA
ATOM      6  C   UNL     1       2.379   5.610  19.410  0.00  0.00    +0.000 A 
ATOM      7  C   UNL     1       2.471   6.773  18.648  0.00  0.00    +0.000 A 
ATOM      8  N   UNL     1       1.872   7.783  19.428  0.00  0.00    +0.000 N 
ATOM      9  C   UNL     1       1.705   9.195  19.279  0.00  0.00    +0.000 A 
ATOM     10  C   UNL     1       2.238   9.953  18.092  0.00  0.00    +0.000 C 
ATOM     11  C   UNL     1       1.055   9.881  20.264  0.00  0.00    +0.000 A 
ATOM     12 BR   UNL     1       0.760  11.747  20.173  0.00  0.00    +0.000 Br
ENDROOT
BRANCH   6  13
ATOM     13  C   UNL     1       2.911   4.276  19.135  0.00  0.00    +0.000 A 
ATOM     14  C   UNL     1       2.211   3.433  18.256  0.00  0.00    +0.000 A 
ATOM     15  C   UNL     1       2.625   2.115  18.038  0.00  0.00    +0.000 A 
ATOM     16  C   UNL     1       3.751   1.621  18.691  0.00  0.00    +0.000 A 
ATOM     17  C   UNL     1       4.460   2.445  19.559  0.00  0.00    +0.000 A 
ATOM     18  C   UNL     1       4.039   3.759  19.783  0.00  0.00    +0.000 A 
ENDBRANCH   6  13
BRANCH   7  19
ATOM     19  C   UNL     1       3.050   6.939  17.278  0.00  0.00    +0.000 C 
BRANCH  19  20
ATOM     20  C   UNL     1       4.479   6.445  17.095  0.00  0.00    +0.000 A 
ATOM     21  C   UNL     1       4.688   5.243  16.394  0.00  0.00    +0.000 A 
ATOM     22  C   UNL     1       5.978   4.748  16.180  0.00  0.00    +0.000 A 
ATOM     23  C   UNL     1       7.080   5.444  16.670  0.00  0.00    +0.000 A 
ATOM     24  C   UNL     1       6.880   6.620  17.380  0.00  0.00    +0.000 A 
ATOM     25  F   UNL     1       7.940   7.283  17.866  0.00  0.00    +0.000 F 
ATOM     26  C   UNL     1       5.602   7.122  17.598  0.00  0.00    +0.000 A 
ENDBRANCH  19  20
ENDBRANCH   7  19
TORSDOF 3
ENDMDL
MODEL 6
REMARK VINA RESULT:      -7.9      1.625      2.146
REMARK  Name = 
REMARK  5 active torsions:
REMARK  status: ('A' for Active; 'I' for Inactive)
REMARK    1  A    between atoms: C_1  and  C_2
REMARK    2  A    between atoms: C_6  and  C_7
REMARK    3  A    between atoms: C_13  and  C_14
REMARK    4  A    between atoms: C_14  and  C_15
REMARK    5  A    between atoms: C_23  and  C_24
REMARK                            x       y       z     vdW  Elec       q    Type
REMARK                         _______ _______ _______ _____ _____    ______ ____
ROOT
ATOM      1  C   UNL     1       0.464  12.513  18.462  0.00  0.00    +0.000 C 
ATOM      2  C   UNL     1       0.795  11.125  18.947  0.00  0.00    +0.000 A 
ATOM      3  C   UNL     1       1.701  10.393  18.276  0.00  0.00    +0.000 A 
ATOM      4  C   UNL     1       2.023   9.080  18.686  0.00  0.00    +0.000 A 
ATOM      5  N   UNL     1       2.846   8.241  18.111  0.00  0.00    +0.000 NA
ATOM      6  C   UNL     1       2.783   7.091  18.843  0.00  0.00    +0.000 A 
ATOM      7  C   UNL     1       1.949   7.253  19.947  0.00  0.00    +0.000 A 
ATOM      8  N   UNL     1       1.401   8.545  19.821  0.00  0.00    +0.000 N 
ATOM      9  C   UNL     1       0.430   9.296  20.553  0.00  0.00    +0.000 A 
ATOM     10  C   UNL     1      -0.290   8.738  21.753  0.00  0.00    +0.000 C 
ATOM     11  C   UNL     1       0.131  10.560  20.133  0.00  0.00    +0.000 A 
ATOM     12 BR   UNL     1      -1.125  11.655  21.028  0.00  0.00    +0.000 Br
ENDROOT
BRANCH   6  13
ATOM     13  C   UNL     1       3.541   5.917  18.416  0.00  0.00    +0.000 A 
ATOM     14  C   UNL     1       4.826   5.707  18.944  0.00  0.00    +0.000 A 
ATOM     15  C   UNL     1       5.628   4.654  18.494  0.00  0.00    +0.000 A 
ATOM     16  C   UNL     1       5.155   3.789  17.511  0.00  0.00    +0.000 A 
ATOM     17  C   UNL     1       3.882   3.977  16.981  0.00  0.00    +0.000 A 
ATOM     18  C   UNL     1       3.086   5.037  17.427  0.00  0.00    +0.000 A 
ENDBRANCH   6  13
BRANCH   7  19
ATOM     19  C   UNL     1       1.692   6.288  21.061  0.00  0.00    +0.000 C 
BRANCH  19  20
ATOM     20  C   UNL     1       1.731   4.812  20.687  0.00  0.00    +0.000 A 
ATOM     21  C   UNL     1       2.749   4.009  21.233  0.00  0.00    +0.000 A 
ATOM     22  C   UNL     1       2.827   2.644  20.939  0.00  0.00    +0.000 A 
ATOM     23  C   UNL     1       1.890   2.062  20.088  0.00  0.00    +0.000 A 
ATOM     24  C   UNL     1       0.895   2.853  19.530  0.00  0.00    +0.000 A 
ATOM     25  F   UNL     1       0.003   2.295  18.698  0.00  0.00    +0.000 F 
ATOM     26  C   UNL     1       0.808   4.210  19.816  0.00  0.00    +0.000 A 
ENDBRANCH  19  20
ENDBRANCH   7  19
TORSDOF 3
ENDMDL
MODEL 7
REMARK VINA RESULT:      -7.8      1.812      4.065
REMARK  Name = 
REMARK  5 active torsions:
REMARK  status: ('A' for Active; 'I' for Inactive)
REMARK    1  A    between atoms: C_1  and  C_2
REMARK    2  A    between atoms: C_6  and  C_7
REMARK    3  A    between atoms: C_13  and  C_14
REMARK    4  A    between atoms: C_14  and  C_15
REMARK    5  A    between atoms: C_23  and  C_24
REMARK                            x       y       z     vdW  Elec       q    Type
REMARK                         _______ _______ _______ _____ _____    ______ ____
ROOT
ATOM      1  C   UNL     1      -0.181   9.778  22.479  0.00  0.00    +0.000 C 
ATOM      2  C   UNL     1       0.554   9.035  21.393  0.00  0.00    +0.000 A 
ATOM      3  C   UNL     1       0.716   7.705  21.501  0.00  0.00    +0.000 A 
ATOM      4  C   UNL     1       1.418   6.975  20.516  0.00  0.00    +0.000 A 
ATOM      5  N   UNL     1       1.689   5.695  20.509  0.00  0.00    +0.000 NA
ATOM      6  C   UNL     1       2.425   5.472  19.382  0.00  0.00    +0.000 A 
ATOM      7  C   UNL     1       2.549   6.641  18.633  0.00  0.00    +0.000 A 
ATOM      8  N   UNL     1       1.933   7.649  19.402  0.00  0.00    +0.000 N 
ATOM      9  C   UNL     1       1.782   9.063  19.260  0.00  0.00    +0.000 A 
ATOM     10  C   UNL     1       2.359   9.827  18.097  0.00  0.00    +0.000 C 
ATOM     11  C   UNL     1       1.106   9.747  20.229  0.00  0.00    +0.000 A 
ATOM     12 BR   UNL     1       0.828  11.616  20.144  0.00  0.00    +0.000 Br
ENDROOT
BRANCH   6  13
ATOM     13  C   UNL     1       2.955   4.137  19.114  0.00  0.00    +0.000 A 
ATOM     14  C   UNL     1       2.257   3.292  18.234  0.00  0.00    +0.000 A 
ATOM     15  C   UNL     1       2.669   1.973  18.021  0.00  0.00    +0.000 A 
ATOM     16  C   UNL     1       3.791   1.479  18.681  0.00  0.00    +0.000 A 
ATOM     17  C   UNL     1       4.499   2.304  19.550  0.00  0.00    +0.000 A 
ATOM     18  C   UNL     1       4.079   3.620  19.768  0.00  0.00    +0.000 A 
ENDBRANCH   6  13
BRANCH   7  19
ATOM     19  C   UNL     1       3.173   6.813  17.284  0.00  0.00    +0.000 C 
BRANCH  19  20
ATOM     20  C   UNL     1       4.516   6.125  17.079  0.00  0.00    +0.000 A 
ATOM     21  C   UNL     1       5.658   6.691  17.676  0.00  0.00    +0.000 A 
ATOM     22  C   UNL     1       6.915   6.094  17.535  0.00  0.00    +0.000 A 
ATOM     23  C   UNL     1       7.051   4.926  16.789  0.00  0.00    +0.000 A 
ATOM     24  C   UNL     1       5.932   4.375  16.181  0.00  0.00    +0.000 A 
ATOM     25  F   UNL     1       6.066   3.258  15.449  0.00  0.00    +0.000 F 
ATOM     26  C   UNL     1       4.678   4.958  16.314  0.00  0.00    +0.000 A 
ENDBRANCH  19  20
ENDBRANCH   7  19
TORSDOF 3
ENDMDL
MODEL 8
REMARK VINA RESULT:      -7.7      1.793      2.132
REMARK  Name = 
REMARK  5 active torsions:
REMARK  status: ('A' for Active; 'I' for Inactive)
REMARK    1  A    between atoms: C_1  and  C_2
REMARK    2  A    between atoms: C_6  and  C_7
REMARK    3  A    between atoms: C_13  and  C_14
REMARK    4  A    between atoms: C_14  and  C_15
REMARK    5  A    between atoms: C_23  and  C_24
REMARK                            x       y       z     vdW  Elec       q    Type
REMARK                         _______ _______ _______ _____ _____    ______ ____
ROOT
ATOM      1  C   UNL     1       1.110  12.531  18.114  0.00  0.00    +0.000 C 
ATOM      2  C   UNL     1       1.287  11.141  18.667  0.00  0.00    +0.000 A 
ATOM      3  C   UNL     1       2.129  10.292  18.052  0.00  0.00    +0.000 A 
ATOM      4  C   UNL     1       2.308   8.973  18.527  0.00  0.00    +0.000 A 
ATOM      5  N   UNL     1       3.054   8.031  18.011  0.00  0.00    +0.000 NA
ATOM      6  C   UNL     1       2.859   6.928  18.790  0.00  0.00    +0.000 A 
ATOM      7  C   UNL     1       2.022   7.222  19.864  0.00  0.00    +0.000 A 
ATOM      8  N   UNL     1       1.610   8.556  19.667  0.00  0.00    +0.000 N 
ATOM      9  C   UNL     1       0.705   9.433  20.341  0.00  0.00    +0.000 A 
ATOM     10  C   UNL     1      -0.093   9.005  21.545  0.00  0.00    +0.000 C 
ATOM     11  C   UNL     1       0.545  10.700  19.858  0.00  0.00    +0.000 A 
ATOM     12 BR   UNL     1      -0.612  11.955  20.673  0.00  0.00    +0.000 Br
ENDROOT
BRANCH   6  13
ATOM     13  C   UNL     1       3.503   5.665  18.433  0.00  0.00    +0.000 A 
ATOM     14  C   UNL     1       2.904   4.847  17.461  0.00  0.00    +0.000 A 
ATOM     15  C   UNL     1       3.427   3.586  17.156  0.00  0.00    +0.000 A 
ATOM     16  C   UNL     1       4.562   3.125  17.816  0.00  0.00    +0.000 A 
ATOM     17  C   UNL     1       5.173   3.925  18.778  0.00  0.00    +0.000 A 
ATOM     18  C   UNL     1       4.642   5.181  19.086  0.00  0.00    +0.000 A 
ENDBRANCH   6  13
BRANCH   7  19
ATOM     19  C   UNL     1       1.645   6.339  21.011  0.00  0.00    +0.000 C 
BRANCH  19  20
ATOM     20  C   UNL     1       1.666   4.842  20.736  0.00  0.00    +0.000 A 
ATOM     21  C   UNL     1       2.564   4.039  21.463  0.00  0.00    +0.000 A 
ATOM     22  C   UNL     1       2.618   2.656  21.265  0.00  0.00    +0.000 A 
ATOM     23  C   UNL     1       1.779   2.054  20.331  0.00  0.00    +0.000 A 
ATOM     24  C   UNL     1       0.904   2.843  19.596  0.00  0.00    +0.000 A 
ATOM     25  F   UNL     1       0.106   2.266  18.685  0.00  0.00    +0.000 F 
ATOM     26  C   UNL     1       0.842   4.219  19.785  0.00  0.00    +0.000 A 
ENDBRANCH  19  20
ENDBRANCH   7  19
TORSDOF 3
ENDMDL
MODEL 9
REMARK VINA RESULT:      -7.5      0.797      1.053
REMARK  Name = 
REMARK  5 active torsions:
REMARK  status: ('A' for Active; 'I' for Inactive)
REMARK    1  A    between atoms: C_1  and  C_2
REMARK    2  A    between atoms: C_6  and  C_7
REMARK    3  A    between atoms: C_13  and  C_14
REMARK    4  A    between atoms: C_14  and  C_15
REMARK    5  A    between atoms: C_23  and  C_24
REMARK                            x       y       z     vdW  Elec       q    Type
REMARK                         _______ _______ _______ _____ _____    ______ ____
ROOT
ATOM      1  C   UNL     1       0.100  11.196  18.571  0.00  0.00    +0.000 C 
ATOM      2  C   UNL     1       0.947   9.963  18.752  0.00  0.00    +0.000 A 
ATOM      3  C   UNL     1       1.856   9.648  17.813  0.00  0.00    +0.000 A 
ATOM      4  C   UNL     1       2.656   8.489  17.934  0.00  0.00    +0.000 A 
ATOM      5  N   UNL     1       3.543   8.037  17.087  0.00  0.00    +0.000 NA
ATOM      6  C   UNL     1       4.010   6.870  17.618  0.00  0.00    +0.000 A 
ATOM      7  C   UNL     1       3.445   6.635  18.869  0.00  0.00    +0.000 A 
ATOM      8  N   UNL     1       2.508   7.671  19.061  0.00  0.00    +0.000 N 
ATOM      9  C   UNL     1       1.548   7.977  20.075  0.00  0.00    +0.000 A 
ATOM     10  C   UNL     1       1.333   7.097  21.279  0.00  0.00    +0.000 C 
ATOM     11  C   UNL     1       0.783   9.098  19.931  0.00  0.00    +0.000 A 
ATOM     12 BR   UNL     1      -0.509   9.614  21.212  0.00  0.00    +0.000 Br
ENDROOT
BRANCH   6  13
ATOM     13  C   UNL     1       4.976   6.067  16.870  0.00  0.00    +0.000 A 
ATOM     14  C   UNL     1       4.505   5.172  15.895  0.00  0.00    +0.000 A 
ATOM     15  C   UNL     1       5.379   4.312  15.222  0.00  0.00    +0.000 A 
ATOM     16  C   UNL     1       6.741   4.338  15.511  0.00  0.00    +0.000 A 
ATOM     17  C   UNL     1       7.226   5.223  16.468  0.00  0.00    +0.000 A 
ATOM     18  C   UNL     1       6.347   6.076  17.146  0.00  0.00    +0.000 A 
ENDBRANCH   6  13
BRANCH   7  19
ATOM     19  C   UNL     1       3.763   5.540  19.837  0.00  0.00    +0.000 C 
BRANCH  19  20
ATOM     20  C   UNL     1       2.995   4.238  19.647  0.00  0.00    +0.000 A 
ATOM     21  C   UNL     1       2.150   3.801  20.684  0.00  0.00    +0.000 A 
ATOM     22  C   UNL     1       1.408   2.622  20.560  0.00  0.00    +0.000 A 
ATOM     23  C   UNL     1       1.504   1.858  19.399  0.00  0.00    +0.000 A 
ATOM     24  C   UNL     1       2.351   2.274  18.381  0.00  0.00    +0.000 A 
ATOM     25  F   UNL     1       2.455   1.531  17.269  0.00  0.00    +0.000 F 
ATOM     26  C   UNL     1       3.093   3.444  18.492  0.00  0.00    +0.000 A 
ENDBRANCH  19  20
ENDBRANCH   7  19
TORSDOF 3
ENDMDL
