MODEL 1
REMARK VINA RESULT:      -8.0      0.000      0.000
REMARK  Name = 
REMARK  9 active torsions:
REMARK  status: ('A' for Active; 'I' for Inactive)
REMARK    1  A    between atoms: C_1  and  O_2
REMARK    2  A    between atoms: O_2  and  C_3
REMARK    3  A    between atoms: C_6  and  C_7
REMARK    4  A    between atoms: C_7  and  N_8
REMARK    5  A    between atoms: C_11  and  C_12
REMARK    6  A    between atoms: N_14  and  C_15
REMARK    7  A    between atoms: C_15  and  C_16
REMARK    8  A    between atoms: C_30  and  C_31
REMARK    9  A    between atoms: C_31  and  O_33
REMARK                            x       y       z     vdW  Elec       q    Type
REMARK                         _______ _______ _______ _____ _____    ______ ____
ROOT
ATOM      1  N   UNL     1       2.115   8.660  18.777  0.00  0.00    +0.000 NA
ATOM      2  C   UNL     1       1.856   9.749  17.841  0.00  0.00    +0.000 C 
ATOM      3  C   UNL     1       1.794  11.095  18.543  0.00  0.00    +0.000 C 
ATOM      4  C   UNL     1       0.685  11.143  19.610  0.00  0.00    +0.000 C 
ATOM      5  C   UNL     1       0.894   9.990  20.584  0.00  0.00    +0.000 C 
ATOM      6  C   UNL     1       1.244   8.636  19.954  0.00  0.00    +0.000 C 
ENDROOT
BRANCH   4   7
ATOM      7  C   UNL     1      -0.695  11.577  19.091  0.00  0.00    +0.000 A 
ATOM      8  C   UNL     1      -1.229  12.779  19.560  0.00  0.00    +0.000 A 
ATOM      9  N   UNL     1      -2.576  12.570  19.629  0.00  0.00    +0.000 N 
ATOM     10  C   UNL     1      -2.923  11.793  18.556  0.00  0.00    +0.000 A 
ATOM     11  C   UNL     1      -4.179  11.653  17.949  0.00  0.00    +0.000 A 
ATOM     12  C   UNL     1      -4.311  10.680  16.975  0.00  0.00    +0.000 A 
ATOM     13  C   UNL     1      -3.239   9.835  16.696  0.00  0.00    +0.000 A 
ATOM     14  C   UNL     1      -1.984   9.968  17.350  0.00  0.00    +0.000 A 
ATOM     15  C   UNL     1      -1.776  11.026  18.269  0.00  0.00    +0.000 A 
BRANCH   9  16
ATOM     16  C   UNL     1      -3.325  12.568  20.885  0.00  0.00    +0.000 C 
BRANCH  16  17
ATOM     17  C   UNL     1      -2.660  13.380  21.933  0.00  0.00    +0.000 A 
ATOM     18  C   UNL     1      -1.676  12.979  22.814  0.00  0.00    +0.000 A 
ATOM     19  C   UNL     1      -1.305  14.020  23.708  0.00  0.00    +0.000 A 
ATOM     20  C   UNL     1      -2.018  15.174  23.483  0.00  0.00    +0.000 A 
ATOM     21  S   UNL     1      -3.139  15.000  22.206  0.00  0.00    +0.000 S 
ENDBRANCH  16  17
ENDBRANCH   9  16
ENDBRANCH   4   7
BRANCH   1  22
ATOM     22  C   UNL     1       2.217   7.344  18.111  0.00  0.00    +0.000 C 
BRANCH  22  26
ATOM     23  C   UNL     1       6.013   5.285  18.722  0.00  0.00    +0.000 A 
ATOM     24  C   UNL     1       4.870   4.921  19.446  0.00  0.00    +0.000 A 
ATOM     25  C   UNL     1       3.645   5.559  19.223  0.00  0.00    +0.000 A 
ATOM     26  C   UNL     1       3.529   6.591  18.288  0.00  0.00    +0.000 A 
ATOM     27  C   UNL     1       4.664   6.922  17.534  0.00  0.00    +0.000 A 
ATOM     28  C   UNL     1       5.902   6.276  17.733  0.00  0.00    +0.000 A 
BRANCH  23  30
ATOM     29  C   UNL     1       8.168   5.386  19.731  0.00  0.00    +0.000 C 
ATOM     30  O   UNL     1       7.235   4.688  18.905  0.00  0.00    +0.000 OA
ENDBRANCH  23  30
BRANCH  28  31
ATOM     31  C   UNL     1       7.041   6.757  16.887  0.00  0.00    +0.000 C 
ATOM     32  O   UNL     1       7.503   7.895  17.020  0.00  0.00    +0.000 OA
BRANCH  31  33
ATOM     33  O   UNL     1       7.491   5.901  15.965  0.00  0.00    +0.000 OA
ATOM     34  H   UNL     1       7.960   6.342  15.232  0.00  0.00    +0.000 HD
ENDBRANCH  31  33
ENDBRANCH  28  31
ENDBRANCH  22  26
ENDBRANCH   1  22
TORSDOF 8
ENDMDL
MODEL 2
REMARK VINA RESULT:      -8.0      0.984      1.404
REMARK  Name = 
REMARK  9 active torsions:
REMARK  status: ('A' for Active; 'I' for Inactive)
REMARK    1  A    between atoms: C_1  and  O_2
REMARK    2  A    between atoms: O_2  and  C_3
REMARK    3  A    between atoms: C_6  and  C_7
REMARK    4  A    between atoms: C_7  and  N_8
REMARK    5  A    between atoms: C_11  and  C_12
REMARK    6  A    between atoms: N_14  and  C_15
REMARK    7  A    between atoms: C_15  and  C_16
REMARK    8  A    between atoms: C_30  and  C_31
REMARK    9  A    between atoms: C_31  and  O_33
REMARK                            x       y       z     vdW  Elec       q    Type
REMARK                         _______ _______ _______ _____ _____    ______ ____
ROOT
ATOM      1  N   UNL     1       2.183   8.863  18.510  0.00  0.00    +0.000 NA
ATOM      2  C   UNL     1       1.904  10.133  17.848  0.00  0.00    +0.000 C 
ATOM      3  C   UNL     1       1.806  11.279  18.840  0.00  0.00    +0.000 C 
ATOM      4  C   UNL     1       0.689  11.055  19.877  0.00  0.00    +0.000 C 
ATOM      5  C   UNL     1       0.919   9.713  20.561  0.00  0.00    +0.000 C 
ATOM      6  C   UNL     1       1.305   8.549  19.640  0.00  0.00    +0.000 C 
ENDROOT
BRANCH   4   7
ATOM      7  C   UNL     1      -0.697  11.567  19.456  0.00  0.00    +0.000 A 
ATOM      8  C   UNL     1      -1.127  12.798  19.957  0.00  0.00    +0.000 A 
ATOM      9  N   UNL     1      -2.476  12.666  20.123  0.00  0.00    +0.000 N 
ATOM     10  C   UNL     1      -2.942  11.911  19.081  0.00  0.00    +0.000 A 
ATOM     11  C   UNL     1      -4.244  11.843  18.565  0.00  0.00    +0.000 A 
ATOM     12  C   UNL     1      -4.500  10.879  17.607  0.00  0.00    +0.000 A 
ATOM     13  C   UNL     1      -3.501   9.974  17.255  0.00  0.00    +0.000 A 
ATOM     14  C   UNL     1      -2.198  10.036  17.817  0.00  0.00    +0.000 A 
ATOM     15  C   UNL     1      -1.864  11.079  18.715  0.00  0.00    +0.000 A 
BRANCH   9  16
ATOM     16  C   UNL     1      -3.131  12.707  21.429  0.00  0.00    +0.000 C 
BRANCH  16  17
ATOM     17  C   UNL     1      -2.513  13.706  22.334  0.00  0.00    +0.000 A 
ATOM     18  C   UNL     1      -1.692  13.469  23.418  0.00  0.00    +0.000 A 
ATOM     19  C   UNL     1      -1.320  14.672  24.078  0.00  0.00    +0.000 A 
ATOM     20  C   UNL     1      -1.870  15.782  23.479  0.00  0.00    +0.000 A 
ATOM     21  S   UNL     1      -2.841  15.374  22.134  0.00  0.00    +0.000 S 
ENDBRANCH  16  17
ENDBRANCH   9  16
ENDBRANCH   4   7
BRANCH   1  22
ATOM     22  C   UNL     1       2.320   7.738  17.560  0.00  0.00    +0.000 C 
BRANCH  22  26
ATOM     23  C   UNL     1       4.478   4.288  19.125  0.00  0.00    +0.000 A 
ATOM     24  C   UNL     1       3.080   4.351  19.184  0.00  0.00    +0.000 A 
ATOM     25  C   UNL     1       2.387   5.443  18.649  0.00  0.00    +0.000 A 
ATOM     26  C   UNL     1       3.070   6.511  18.061  0.00  0.00    +0.000 A 
ATOM     27  C   UNL     1       4.466   6.423  17.964  0.00  0.00    +0.000 A 
ATOM     28  C   UNL     1       5.178   5.321  18.481  0.00  0.00    +0.000 A 
BRANCH  23  30
ATOM     29  C   UNL     1       4.448   2.141  20.158  0.00  0.00    +0.000 C 
ATOM     30  O   UNL     1       5.200   3.237  19.635  0.00  0.00    +0.000 OA
ENDBRANCH  23  30
BRANCH  28  31
ATOM     31  C   UNL     1       6.669   5.375  18.346  0.00  0.00    +0.000 C 
ATOM     32  O   UNL     1       7.280   6.447  18.413  0.00  0.00    +0.000 OA
BRANCH  31  33
ATOM     33  O   UNL     1       7.281   4.211  18.112  0.00  0.00    +0.000 OA
ATOM     34  H   UNL     1       8.146   4.140  18.556  0.00  0.00    +0.000 HD
ENDBRANCH  31  33
ENDBRANCH  28  31
ENDBRANCH  22  26
ENDBRANCH   1  22
TORSDOF 8
ENDMDL
MODEL 3
REMARK VINA RESULT:      -7.9      1.274      2.154
REMARK  Name = 
REMARK  9 active torsions:
REMARK  status: ('A' for Active; 'I' for Inactive)
REMARK    1  A    between atoms: C_1  and  O_2
REMARK    2  A    between atoms: O_2  and  C_3
REMARK    3  A    between atoms: C_6  and  C_7
REMARK    4  A    between atoms: C_7  and  N_8
REMARK    5  A    between atoms: C_11  and  C_12
REMARK    6  A    between atoms: N_14  and  C_15
REMARK    7  A    between atoms: C_15  and  C_16
REMARK    8  A    between atoms: C_30  and  C_31
REMARK    9  A    between atoms: C_31  and  O_33
REMARK                            x       y       z     vdW  Elec       q    Type
REMARK                         _______ _______ _______ _____ _____    ______ ____
ROOT
ATOM      1  N   UNL     1       1.877   8.719  18.760  0.00  0.00    +0.000 NA
ATOM      2  C   UNL     1       1.554   9.845  17.890  0.00  0.00    +0.000 C 
ATOM      3  C   UNL     1       1.611  11.168  18.633  0.00  0.00    +0.000 C 
ATOM      4  C   UNL     1       0.625  11.213  19.815  0.00  0.00    +0.000 C 
ATOM      5  C   UNL     1       0.901  10.024  20.727  0.00  0.00    +0.000 C 
ATOM      6  C   UNL     1       1.138   8.681  20.023  0.00  0.00    +0.000 C 
ENDROOT
BRANCH   4   7
ATOM      7  C   UNL     1      -0.787  11.704  19.463  0.00  0.00    +0.000 A 
ATOM      8  C   UNL     1      -1.225  12.911  20.011  0.00  0.00    +0.000 A 
ATOM      9  N   UNL     1      -2.562  12.744  20.226  0.00  0.00    +0.000 N 
ATOM     10  C   UNL     1      -3.052  12.004  19.184  0.00  0.00    +0.000 A 
ATOM     11  C   UNL     1      -4.372  11.918  18.719  0.00  0.00    +0.000 A 
ATOM     12  C   UNL     1      -4.645  10.973  17.747  0.00  0.00    +0.000 A 
ATOM     13  C   UNL     1      -3.640  10.100  17.333  0.00  0.00    +0.000 A 
ATOM     14  C   UNL     1      -2.318  10.178  17.845  0.00  0.00    +0.000 A 
ATOM     15  C   UNL     1      -1.972  11.207  18.756  0.00  0.00    +0.000 A 
BRANCH   9  16
ATOM     16  C   UNL     1      -3.166  12.737  21.558  0.00  0.00    +0.000 C 
BRANCH  16  17
ATOM     17  C   UNL     1      -2.570  13.763  22.448  0.00  0.00    +0.000 A 
ATOM     18  C   UNL     1      -1.593  13.584  23.406  0.00  0.00    +0.000 A 
ATOM     19  C   UNL     1      -1.297  14.791  24.096  0.00  0.00    +0.000 A 
ATOM     20  C   UNL     1      -2.057  15.845  23.645  0.00  0.00    +0.000 A 
ATOM     21  S   UNL     1      -3.132  15.378  22.403  0.00  0.00    +0.000 S 
ENDBRANCH  16  17
ENDBRANCH   9  16
ENDBRANCH   4   7
BRANCH   1  22
ATOM     22  C   UNL     1       1.865   7.423  18.048  0.00  0.00    +0.000 C 
BRANCH  22  26
ATOM     23  C   UNL     1       5.472   4.975  18.167  0.00  0.00    +0.000 A 
ATOM     24  C   UNL     1       5.515   6.302  17.719  0.00  0.00    +0.000 A 
ATOM     25  C   UNL     1       4.363   7.097  17.714  0.00  0.00    +0.000 A 
ATOM     26  C   UNL     1       3.133   6.585  18.137  0.00  0.00    +0.000 A 
ATOM     27  C   UNL     1       3.103   5.271  18.626  0.00  0.00    +0.000 A 
ATOM     28  C   UNL     1       4.258   4.463  18.655  0.00  0.00    +0.000 A 
BRANCH  23  30
ATOM     29  C   UNL     1       7.685   4.564  17.387  0.00  0.00    +0.000 C 
ATOM     30  O   UNL     1       6.575   4.158  18.190  0.00  0.00    +0.000 OA
ENDBRANCH  23  30
BRANCH  28  31
ATOM     31  C   UNL     1       4.075   3.066  19.165  0.00  0.00    +0.000 C 
ATOM     32  O   UNL     1       3.032   2.438  18.954  0.00  0.00    +0.000 OA
BRANCH  31  33
ATOM     33  O   UNL     1       5.082   2.567  19.886  0.00  0.00    +0.000 OA
ATOM     34  H   UNL     1       5.942   2.620  19.427  0.00  0.00    +0.000 HD
ENDBRANCH  31  33
ENDBRANCH  28  31
ENDBRANCH  22  26
ENDBRANCH   1  22
TORSDOF 8
ENDMDL
MODEL 4
REMARK VINA RESULT:      -7.8      1.376      1.952
REMARK  Name = 
REMARK  9 active torsions:
REMARK  status: ('A' for Active; 'I' for Inactive)
REMARK    1  A    between atoms: C_1  and  O_2
REMARK    2  A    between atoms: O_2  and  C_3
REMARK    3  A    between atoms: C_6  and  C_7
REMARK    4  A    between atoms: C_7  and  N_8
REMARK    5  A    between atoms: C_11  and  C_12
REMARK    6  A    between atoms: N_14  and  C_15
REMARK    7  A    between atoms: C_15  and  C_16
REMARK    8  A    between atoms: C_30  and  C_31
REMARK    9  A    between atoms: C_31  and  O_33
REMARK                            x       y       z     vdW  Elec       q    Type
REMARK                         _______ _______ _______ _____ _____    ______ ____
ROOT
ATOM      1  N   UNL     1       2.115   8.868  18.549  0.00  0.00    +0.000 NA
ATOM      2  C   UNL     1       1.816  10.121  17.863  0.00  0.00    +0.000 C 
ATOM      3  C   UNL     1       1.779  11.296  18.824  0.00  0.00    +0.000 C 
ATOM      4  C   UNL     1       0.713  11.116  19.921  0.00  0.00    +0.000 C 
ATOM      5  C   UNL     1       0.964   9.792  20.633  0.00  0.00    +0.000 C 
ATOM      6  C   UNL     1       1.292   8.597  19.729  0.00  0.00    +0.000 C 
ENDROOT
BRANCH   4   7
ATOM      7  C   UNL     1      -0.687  11.631  19.556  0.00  0.00    +0.000 A 
ATOM      8  C   UNL     1      -1.138  12.807  20.160  0.00  0.00    +0.000 A 
ATOM      9  N   UNL     1      -2.482  12.633  20.325  0.00  0.00    +0.000 N 
ATOM     10  C   UNL     1      -2.942  11.956  19.227  0.00  0.00    +0.000 A 
ATOM     11  C   UNL     1      -4.247  11.903  18.718  0.00  0.00    +0.000 A 
ATOM     12  C   UNL     1      -4.493  11.016  17.685  0.00  0.00    +0.000 A 
ATOM     13  C   UNL     1      -3.478  10.165  17.252  0.00  0.00    +0.000 A 
ATOM     14  C   UNL     1      -2.171  10.208  17.808  0.00  0.00    +0.000 A 
ATOM     15  C   UNL     1      -1.851  11.181  18.786  0.00  0.00    +0.000 A 
BRANCH   9  16
ATOM     16  C   UNL     1      -3.126  12.552  21.635  0.00  0.00    +0.000 C 
BRANCH  16  17
ATOM     17  C   UNL     1      -3.945  13.752  21.930  0.00  0.00    +0.000 A 
ATOM     18  C   UNL     1      -5.301  13.918  21.734  0.00  0.00    +0.000 A 
ATOM     19  C   UNL     1      -5.737  15.221  22.096  0.00  0.00    +0.000 A 
ATOM     20  C   UNL     1      -4.702  16.005  22.551  0.00  0.00    +0.000 A 
ATOM     21  S   UNL     1      -3.209  15.176  22.530  0.00  0.00    +0.000 S 
ENDBRANCH  16  17
ENDBRANCH   9  16
ENDBRANCH   4   7
BRANCH   1  22
ATOM     22  C   UNL     1       2.194   7.715  17.626  0.00  0.00    +0.000 C 
BRANCH  22  26
ATOM     23  C   UNL     1       4.426   4.299  19.164  0.00  0.00    +0.000 A 
ATOM     24  C   UNL     1       3.029   4.259  19.057  0.00  0.00    +0.000 A 
ATOM     25  C   UNL     1       2.318   5.343  18.530  0.00  0.00    +0.000 A 
ATOM     26  C   UNL     1       2.976   6.503  18.116  0.00  0.00    +0.000 A 
ATOM     27  C   UNL     1       4.377   6.522  18.183  0.00  0.00    +0.000 A 
ATOM     28  C   UNL     1       5.110   5.432  18.694  0.00  0.00    +0.000 A 
BRANCH  23  30
ATOM     29  C   UNL     1       4.433   2.137  20.165  0.00  0.00    +0.000 C 
ATOM     30  O   UNL     1       5.166   3.261  19.674  0.00  0.00    +0.000 OA
ENDBRANCH  23  30
BRANCH  28  31
ATOM     31  C   UNL     1       6.598   5.602  18.746  0.00  0.00    +0.000 C 
ATOM     32  O   UNL     1       7.250   5.853  17.727  0.00  0.00    +0.000 OA
BRANCH  31  33
ATOM     33  O   UNL     1       7.168   5.428  19.941  0.00  0.00    +0.000 OA
ATOM     34  H   UNL     1       8.140   5.360  19.893  0.00  0.00    +0.000 HD
ENDBRANCH  31  33
ENDBRANCH  28  31
ENDBRANCH  22  26
ENDBRANCH   1  22
TORSDOF 8
ENDMDL
MODEL 5
REMARK VINA RESULT:      -7.8      2.079      3.932
REMARK  Name = 
REMARK  9 active torsions:
REMARK  status: ('A' for Active; 'I' for Inactive)
REMARK    1  A    between atoms: C_1  and  O_2
REMARK    2  A    between atoms: O_2  and  C_3
REMARK    3  A    between atoms: C_6  and  C_7
REMARK    4  A    between atoms: C_7  and  N_8
REMARK    5  A    between atoms: C_11  and  C_12
REMARK    6  A    between atoms: N_14  and  C_15
REMARK    7  A    between atoms: C_15  and  C_16
REMARK    8  A    between atoms: C_30  and  C_31
REMARK    9  A    between atoms: C_31  and  O_33
REMARK                            x       y       z     vdW  Elec       q    Type
REMARK                         _______ _______ _______ _____ _____    ______ ____
ROOT
ATOM      1  N   UNL     1       1.279   8.614  18.735  0.00  0.00    +0.000 NA
ATOM      2  C   UNL     1       1.417   8.762  20.180  0.00  0.00    +0.000 C 
ATOM      3  C   UNL     1       0.100   9.128  20.840  0.00  0.00    +0.000 C 
ATOM      4  C   UNL     1      -0.471  10.453  20.302  0.00  0.00    +0.000 C 
ATOM      5  C   UNL     1      -0.589  10.355  18.786  0.00  0.00    +0.000 C 
ATOM      6  C   UNL     1       0.607   9.726  18.060  0.00  0.00    +0.000 C 
ENDROOT
BRANCH   4   7
ATOM      7  C   UNL     1       0.014  11.712  21.036  0.00  0.00    +0.000 A 
ATOM      8  C   UNL     1      -0.520  11.990  22.297  0.00  0.00    +0.000 A 
ATOM      9  N   UNL     1      -0.589  13.352  22.365  0.00  0.00    +0.000 N 
ATOM     10  C   UNL     1       0.519  13.847  21.733  0.00  0.00    +0.000 A 
ATOM     11  C   UNL     1       1.123  15.104  21.885  0.00  0.00    +0.000 A 
ATOM     12  C   UNL     1       2.144  15.430  21.011  0.00  0.00    +0.000 A 
ATOM     13  C   UNL     1       2.475  14.553  19.980  0.00  0.00    +0.000 A 
ATOM     14  C   UNL     1       1.825  13.300  19.819  0.00  0.00    +0.000 A 
ATOM     15  C   UNL     1       0.854  12.882  20.762  0.00  0.00    +0.000 A 
BRANCH   9  16
ATOM     16  C   UNL     1      -1.849  14.088  22.452  0.00  0.00    +0.000 C 
BRANCH  16  17
ATOM     17  C   UNL     1      -2.929  13.443  21.666  0.00  0.00    +0.000 A 
ATOM     18  C   UNL     1      -2.964  13.219  20.305  0.00  0.00    +0.000 A 
ATOM     19  C   UNL     1      -4.182  12.610  19.896  0.00  0.00    +0.000 A 
ATOM     20  C   UNL     1      -5.034  12.395  20.955  0.00  0.00    +0.000 A 
ATOM     21  S   UNL     1      -4.372  12.935  22.434  0.00  0.00    +0.000 S 
ENDBRANCH  16  17
ENDBRANCH   9  16
ENDBRANCH   4   7
BRANCH   1  22
ATOM     22  C   UNL     1       2.542   8.220  18.075  0.00  0.00    +0.000 C 
BRANCH  22  26
ATOM     23  C   UNL     1       3.714   4.056  18.622  0.00  0.00    +0.000 A 
ATOM     24  C   UNL     1       2.381   4.402  18.364  0.00  0.00    +0.000 A 
ATOM     25  C   UNL     1       2.013   5.736  18.154  0.00  0.00    +0.000 A 
ATOM     26  C   UNL     1       2.959   6.763  18.215  0.00  0.00    +0.000 A 
ATOM     27  C   UNL     1       4.299   6.407  18.429  0.00  0.00    +0.000 A 
ATOM     28  C   UNL     1       4.689   5.067  18.624  0.00  0.00    +0.000 A 
BRANCH  23  30
ATOM     29  C   UNL     1       3.401   1.745  18.137  0.00  0.00    +0.000 C 
ATOM     30  O   UNL     1       4.122   2.763  18.834  0.00  0.00    +0.000 OA
ENDBRANCH  23  30
BRANCH  28  31
ATOM     31  C   UNL     1       6.147   4.834  18.883  0.00  0.00    +0.000 C 
ATOM     32  O   UNL     1       6.734   5.407  19.806  0.00  0.00    +0.000 OA
BRANCH  31  33
ATOM     33  O   UNL     1       6.769   4.009  18.037  0.00  0.00    +0.000 OA
ATOM     34  H   UNL     1       7.558   4.409  17.625  0.00  0.00    +0.000 HD
ENDBRANCH  31  33
ENDBRANCH  28  31
ENDBRANCH  22  26
ENDBRANCH   1  22
TORSDOF 8
ENDMDL
MODEL 6
REMARK VINA RESULT:      -7.8      2.566      3.741
REMARK  Name = 
REMARK  9 active torsions:
REMARK  status: ('A' for Active; 'I' for Inactive)
REMARK    1  A    between atoms: C_1  and  O_2
REMARK    2  A    between atoms: O_2  and  C_3
REMARK    3  A    between atoms: C_6  and  C_7
REMARK    4  A    between atoms: C_7  and  N_8
REMARK    5  A    between atoms: C_11  and  C_12
REMARK    6  A    between atoms: N_14  and  C_15
REMARK    7  A    between atoms: C_15  and  C_16
REMARK    8  A    between atoms: C_30  and  C_31
REMARK    9  A    between atoms: C_31  and  O_33
REMARK                            x       y       z     vdW  Elec       q    Type
REMARK                         _______ _______ _______ _____ _____    ______ ____
ROOT
ATOM      1  N   UNL     1       0.890   9.649  19.585  0.00  0.00    +0.000 NA
ATOM      2  C   UNL     1      -0.487   9.437  19.152  0.00  0.00    +0.000 C 
ATOM      3  C   UNL     1      -0.906  10.438  18.089  0.00  0.00    +0.000 C 
ATOM      4  C   UNL     1      -0.808  11.891  18.590  0.00  0.00    +0.000 C 
ATOM      5  C   UNL     1       0.608  12.139  19.095  0.00  0.00    +0.000 C 
ATOM      6  C   UNL     1       1.216  11.027  19.958  0.00  0.00    +0.000 C 
ENDROOT
BRANCH   4   7
ATOM      7  C   UNL     1      -2.066  12.420  19.295  0.00  0.00    +0.000 A 
ATOM      8  C   UNL     1      -1.905  13.326  20.347  0.00  0.00    +0.000 A 
ATOM      9  N   UNL     1      -2.909  13.038  21.225  0.00  0.00    +0.000 N 
ATOM     10  C   UNL     1      -4.014  12.711  20.487  0.00  0.00    +0.000 A 
ATOM     11  C   UNL     1      -5.362  12.748  20.869  0.00  0.00    +0.000 A 
ATOM     12  C   UNL     1      -6.289  12.212  19.993  0.00  0.00    +0.000 A 
ATOM     13  C   UNL     1      -5.853  11.592  18.824  0.00  0.00    +0.000 A 
ATOM     14  C   UNL     1      -4.478  11.530  18.472  0.00  0.00    +0.000 A 
ATOM     15  C   UNL     1      -3.511  12.168  19.287  0.00  0.00    +0.000 A 
BRANCH   9  16
ATOM     16  C   UNL     1      -2.673  12.521  22.572  0.00  0.00    +0.000 C 
BRANCH  16  17
ATOM     17  C   UNL     1      -2.430  13.608  23.553  0.00  0.00    +0.000 A 
ATOM     18  C   UNL     1      -1.237  14.244  23.829  0.00  0.00    +0.000 A 
ATOM     19  C   UNL     1      -1.375  15.211  24.862  0.00  0.00    +0.000 A 
ATOM     20  C   UNL     1      -2.664  15.277  25.339  0.00  0.00    +0.000 A 
ATOM     21  S   UNL     1      -3.699  14.169  24.554  0.00  0.00    +0.000 S 
ENDBRANCH  16  17
ENDBRANCH   9  16
ENDBRANCH   4   7
BRANCH   1  22
ATOM     22  C   UNL     1       1.332   8.661  20.593  0.00  0.00    +0.000 C 
BRANCH  22  26
ATOM     23  C   UNL     1       2.612   4.807  19.005  0.00  0.00    +0.000 A 
ATOM     24  C   UNL     1       2.886   5.997  18.318  0.00  0.00    +0.000 A 
ATOM     25  C   UNL     1       2.506   7.236  18.846  0.00  0.00    +0.000 A 
ATOM     26  C   UNL     1       1.823   7.321  20.063  0.00  0.00    +0.000 A 
ATOM     27  C   UNL     1       1.591   6.131  20.769  0.00  0.00    +0.000 A 
ATOM     28  C   UNL     1       1.984   4.877  20.259  0.00  0.00    +0.000 A 
BRANCH  23  30
ATOM     29  C   UNL     1       3.866   3.550  17.417  0.00  0.00    +0.000 C 
ATOM     30  O   UNL     1       2.966   3.570  18.526  0.00  0.00    +0.000 OA
ENDBRANCH  23  30
BRANCH  28  31
ATOM     31  C   UNL     1       1.637   3.685  21.097  0.00  0.00    +0.000 C 
ATOM     32  O   UNL     1       2.232   3.448  22.154  0.00  0.00    +0.000 OA
BRANCH  31  33
ATOM     33  O   UNL     1       0.682   2.884  20.615  0.00  0.00    +0.000 OA
ATOM     34  H   UNL     1       0.516   3.020  19.663  0.00  0.00    +0.000 HD
ENDBRANCH  31  33
ENDBRANCH  28  31
ENDBRANCH  22  26
ENDBRANCH   1  22
TORSDOF 8
ENDMDL
MODEL 7
REMARK VINA RESULT:      -7.6      1.321      1.667
REMARK  Name = 
REMARK  9 active torsions:
REMARK  status: ('A' for Active; 'I' for Inactive)
REMARK    1  A    between atoms: C_1  and  O_2
REMARK    2  A    between atoms: O_2  and  C_3
REMARK    3  A    between atoms: C_6  and  C_7
REMARK    4  A    between atoms: C_7  and  N_8
REMARK    5  A    between atoms: C_11  and  C_12
REMARK    6  A    between atoms: N_14  and  C_15
REMARK    7  A    between atoms: C_15  and  C_16
REMARK    8  A    between atoms: C_30  and  C_31
REMARK    9  A    between atoms: C_31  and  O_33
REMARK                            x       y       z     vdW  Elec       q    Type
REMARK                         _______ _______ _______ _____ _____    ______ ____
ROOT
ATOM      1  N   UNL     1       1.957   8.187  19.432  0.00  0.00    +0.000 NA
ATOM      2  C   UNL     1       1.693   8.891  18.181  0.00  0.00    +0.000 C 
ATOM      3  C   UNL     1       1.896  10.389  18.321  0.00  0.00    +0.000 C 
ATOM      4  C   UNL     1       0.972  11.003  19.389  0.00  0.00    +0.000 C 
ATOM      5  C   UNL     1       1.185  10.263  20.704  0.00  0.00    +0.000 C 
ATOM      6  C   UNL     1       1.274   8.735  20.606  0.00  0.00    +0.000 C 
ENDROOT
BRANCH   4   7
ATOM      7  C   UNL     1      -0.408  11.443  18.876  0.00  0.00    +0.000 A 
ATOM      8  C   UNL     1      -0.946  12.636  19.363  0.00  0.00    +0.000 A 
ATOM      9  N   UNL     1      -2.293  12.423  19.427  0.00  0.00    +0.000 N 
ATOM     10  C   UNL     1      -2.636  11.663  18.341  0.00  0.00    +0.000 A 
ATOM     11  C   UNL     1      -3.891  11.530  17.730  0.00  0.00    +0.000 A 
ATOM     12  C   UNL     1      -4.020  10.572  16.741  0.00  0.00    +0.000 A 
ATOM     13  C   UNL     1      -2.945   9.734  16.449  0.00  0.00    +0.000 A 
ATOM     14  C   UNL     1      -1.692   9.860  17.107  0.00  0.00    +0.000 A 
ATOM     15  C   UNL     1      -1.487  10.902  18.043  0.00  0.00    +0.000 A 
BRANCH   9  16
ATOM     16  C   UNL     1      -3.042  12.399  20.681  0.00  0.00    +0.000 C 
BRANCH  16  17
ATOM     17  C   UNL     1      -2.431  13.271  21.714  0.00  0.00    +0.000 A 
ATOM     18  C   UNL     1      -2.522  14.644  21.821  0.00  0.00    +0.000 A 
ATOM     19  C   UNL     1      -1.770  15.144  22.919  0.00  0.00    +0.000 A 
ATOM     20  C   UNL     1      -1.131  14.140  23.608  0.00  0.00    +0.000 A 
ATOM     21  S   UNL     1      -1.426  12.602  22.926  0.00  0.00    +0.000 S 
ENDBRANCH  16  17
ENDBRANCH   9  16
ENDBRANCH   4   7
BRANCH   1  22
ATOM     22  C   UNL     1       1.802   6.721  19.309  0.00  0.00    +0.000 C 
BRANCH  22  26
ATOM     23  C   UNL     1       4.828   4.563  17.029  0.00  0.00    +0.000 A 
ATOM     24  C   UNL     1       3.513   4.087  17.114  0.00  0.00    +0.000 A 
ATOM     25  C   UNL     1       2.535   4.799  17.817  0.00  0.00    +0.000 A 
ATOM     26  C   UNL     1       2.845   5.994  18.471  0.00  0.00    +0.000 A 
ATOM     27  C   UNL     1       4.151   6.490  18.346  0.00  0.00    +0.000 A 
ATOM     28  C   UNL     1       5.143   5.795  17.627  0.00  0.00    +0.000 A 
BRANCH  23  30
ATOM     29  C   UNL     1       5.883   4.116  14.940  0.00  0.00    +0.000 C 
ATOM     30  O   UNL     1       5.820   3.900  16.351  0.00  0.00    +0.000 OA
ENDBRANCH  23  30
BRANCH  28  31
ATOM     31  C   UNL     1       6.506   6.418  17.608  0.00  0.00    +0.000 C 
ATOM     32  O   UNL     1       7.360   6.117  18.447  0.00  0.00    +0.000 OA
BRANCH  31  33
ATOM     33  O   UNL     1       6.719   7.338  16.662  0.00  0.00    +0.000 OA
ATOM     34  H   UNL     1       7.665   7.466  16.462  0.00  0.00    +0.000 HD
ENDBRANCH  31  33
ENDBRANCH  28  31
ENDBRANCH  22  26
ENDBRANCH   1  22
TORSDOF 8
ENDMDL
MODEL 8
REMARK VINA RESULT:      -7.6      2.658      3.820
REMARK  Name = 
REMARK  9 active torsions:
REMARK  status: ('A' for Active; 'I' for Inactive)
REMARK    1  A    between atoms: C_1  and  O_2
REMARK    2  A    between atoms: O_2  and  C_3
REMARK    3  A    between atoms: C_6  and  C_7
REMARK    4  A    between atoms: C_7  and  N_8
REMARK    5  A    between atoms: C_11  and  C_12
REMARK    6  A    between atoms: N_14  and  C_15
REMARK    7  A    between atoms: C_15  and  C_16
REMARK    8  A    between atoms: C_30  and  C_31
REMARK    9  A    between atoms: C_31  and  O_33
REMARK                            x       y       z     vdW  Elec       q    Type
REMARK                         _______ _______ _______ _____ _____    ______ ____
ROOT
ATOM      1  N   UNL     1       0.725   9.730  20.491  0.00  0.00    +0.000 NA
ATOM      2  C   UNL     1      -0.208   9.759  19.370  0.00  0.00    +0.000 C 
ATOM      3  C   UNL     1      -0.172  11.089  18.638  0.00  0.00    +0.000 C 
ATOM      4  C   UNL     1      -0.536  12.268  19.560  0.00  0.00    +0.000 C 
ATOM      5  C   UNL     1       0.390  12.247  20.769  0.00  0.00    +0.000 C 
ATOM      6  C   UNL     1       0.631  10.871  21.404  0.00  0.00    +0.000 C 
ENDROOT
BRANCH   4   7
ATOM      7  C   UNL     1      -2.036  12.586  19.644  0.00  0.00    +0.000 A 
ATOM      8  C   UNL     1      -2.460  13.537  20.575  0.00  0.00    +0.000 A 
ATOM      9  N   UNL     1      -3.682  13.102  21.001  0.00  0.00    +0.000 N 
ATOM     10  C   UNL     1      -4.322  12.562  19.918  0.00  0.00    +0.000 A 
ATOM     11  C   UNL     1      -5.697  12.371  19.721  0.00  0.00    +0.000 A 
ATOM     12  C   UNL     1      -6.087  11.653  18.605  0.00  0.00    +0.000 A 
ATOM     13  C   UNL     1      -5.120  11.085  17.778  0.00  0.00    +0.000 A 
ATOM     14  C   UNL     1      -3.730  11.258  18.016  0.00  0.00    +0.000 A 
ATOM     15  C   UNL     1      -3.293  12.082  19.082  0.00  0.00    +0.000 A 
BRANCH   9  16
ATOM     16  C   UNL     1      -3.948  12.676  22.374  0.00  0.00    +0.000 C 
BRANCH  16  17
ATOM     17  C   UNL     1      -5.070  13.431  22.986  0.00  0.00    +0.000 A 
ATOM     18  C   UNL     1      -6.247  12.925  23.498  0.00  0.00    +0.000 A 
ATOM     19  C   UNL     1      -7.109  13.953  23.967  0.00  0.00    +0.000 A 
ATOM     20  C   UNL     1      -6.564  15.205  23.793  0.00  0.00    +0.000 A 
ATOM     21  S   UNL     1      -5.024  15.140  23.057  0.00  0.00    +0.000 S 
ENDBRANCH  16  17
ENDBRANCH   9  16
ENDBRANCH   4   7
BRANCH   1  22
ATOM     22  C   UNL     1       0.735   8.430  21.196  0.00  0.00    +0.000 C 
BRANCH  22  26
ATOM     23  C   UNL     1       2.826   5.167  19.196  0.00  0.00    +0.000 A 
ATOM     24  C   UNL     1       2.945   6.487  18.741  0.00  0.00    +0.000 A 
ATOM     25  C   UNL     1       2.302   7.537  19.405  0.00  0.00    +0.000 A 
ATOM     26  C   UNL     1       1.505   7.299  20.528  0.00  0.00    +0.000 A 
ATOM     27  C   UNL     1       1.424   5.983  21.006  0.00  0.00    +0.000 A 
ATOM     28  C   UNL     1       2.081   4.916  20.360  0.00  0.00    +0.000 A 
BRANCH  23  30
ATOM     29  C   UNL     1       4.708   4.365  17.976  0.00  0.00    +0.000 C 
ATOM     30  O   UNL     1       3.438   4.106  18.578  0.00  0.00    +0.000 OA
ENDBRANCH  23  30
BRANCH  28  31
ATOM     31  C   UNL     1       1.876   3.556  20.954  0.00  0.00    +0.000 C 
ATOM     32  O   UNL     1       2.207   3.309  22.118  0.00  0.00    +0.000 OA
BRANCH  31  33
ATOM     33  O   UNL     1       1.355   2.632  20.142  0.00  0.00    +0.000 OA
ATOM     34  H   UNL     1       0.624   2.975  19.594  0.00  0.00    +0.000 HD
ENDBRANCH  31  33
ENDBRANCH  28  31
ENDBRANCH  22  26
ENDBRANCH   1  22
TORSDOF 8
ENDMDL
MODEL 9
REMARK VINA RESULT:      -7.6      1.737      2.591
REMARK  Name = 
REMARK  9 active torsions:
REMARK  status: ('A' for Active; 'I' for Inactive)
REMARK    1  A    between atoms: C_1  and  O_2
REMARK    2  A    between atoms: O_2  and  C_3
REMARK    3  A    between atoms: C_6  and  C_7
REMARK    4  A    between atoms: C_7  and  N_8
REMARK    5  A    between atoms: C_11  and  C_12
REMARK    6  A    between atoms: N_14  and  C_15
REMARK    7  A    between atoms: C_15  and  C_16
REMARK    8  A    between atoms: C_30  and  C_31
REMARK    9  A    between atoms: C_31  and  O_33
REMARK                            x       y       z     vdW  Elec       q    Type
REMARK                         _______ _______ _______ _____ _____    ______ ____
ROOT
ATOM      1  N   UNL     1       1.755   8.963  18.950  0.00  0.00    +0.000 NA
ATOM      2  C   UNL     1       1.392  10.149  18.181  0.00  0.00    +0.000 C 
ATOM      3  C   UNL     1       1.544  11.421  18.996  0.00  0.00    +0.000 C 
ATOM      4  C   UNL     1       0.659  11.412  20.256  0.00  0.00    +0.000 C 
ATOM      5  C   UNL     1       0.977  10.162  21.067  0.00  0.00    +0.000 C 
ATOM      6  C   UNL     1       1.120   8.862  20.266  0.00  0.00    +0.000 C 
ENDROOT
BRANCH   4   7
ATOM      7  C   UNL     1      -0.764  11.953  20.052  0.00  0.00    +0.000 A 
ATOM      8  C   UNL     1      -1.201  12.994  20.876  0.00  0.00    +0.000 A 
ATOM      9  N   UNL     1      -2.532  12.764  21.069  0.00  0.00    +0.000 N 
ATOM     10  C   UNL     1      -3.037  12.282  19.891  0.00  0.00    +0.000 A 
ATOM     11  C   UNL     1      -4.365  12.291  19.441  0.00  0.00    +0.000 A 
ATOM     12  C   UNL     1      -4.649  11.595  18.281  0.00  0.00    +0.000 A 
ATOM     13  C   UNL     1      -3.646  10.856  17.657  0.00  0.00    +0.000 A 
ATOM     14  C   UNL     1      -2.314  10.828  18.151  0.00  0.00    +0.000 A 
ATOM     15  C   UNL     1      -1.959  11.620  19.270  0.00  0.00    +0.000 A 
BRANCH   9  16
ATOM     16  C   UNL     1      -3.109  12.440  22.372  0.00  0.00    +0.000 C 
BRANCH  16  17
ATOM     17  C   UNL     1      -4.089  13.460  22.819  0.00  0.00    +0.000 A 
ATOM     18  C   UNL     1      -5.445  13.297  23.019  0.00  0.00    +0.000 A 
ATOM     19  C   UNL     1      -6.075  14.510  23.411  0.00  0.00    +0.000 A 
ATOM     20  C   UNL     1      -5.182  15.553  23.493  0.00  0.00    +0.000 A 
ATOM     21  S   UNL     1      -3.594  15.076  23.087  0.00  0.00    +0.000 S 
ENDBRANCH  16  17
ENDBRANCH   9  16
ENDBRANCH   4   7
BRANCH   1  22
ATOM     22  C   UNL     1       1.651   7.715  18.164  0.00  0.00    +0.000 C 
BRANCH  22  26
ATOM     23  C   UNL     1       5.171   5.160  17.859  0.00  0.00    +0.000 A 
ATOM     24  C   UNL     1       5.148   6.430  17.266  0.00  0.00    +0.000 A 
ATOM     25  C   UNL     1       4.030   7.262  17.395  0.00  0.00    +0.000 A 
ATOM     26  C   UNL     1       2.898   6.845  18.100  0.00  0.00    +0.000 A 
ATOM     27  C   UNL     1       2.943   5.592  18.729  0.00  0.00    +0.000 A 
ATOM     28  C   UNL     1       4.068   4.749  18.624  0.00  0.00    +0.000 A 
BRANCH  23  30
ATOM     29  C   UNL     1       7.281   4.694  16.855  0.00  0.00    +0.000 C 
ATOM     30  O   UNL     1       6.244   4.310  17.760  0.00  0.00    +0.000 OA
ENDBRANCH  23  30
BRANCH  28  31
ATOM     31  C   UNL     1       3.965   3.421  19.312  0.00  0.00    +0.000 C 
ATOM     32  O   UNL     1       2.868   2.904  19.546  0.00  0.00    +0.000 OA
BRANCH  31  33
ATOM     33  O   UNL     1       5.119   2.862  19.685  0.00  0.00    +0.000 OA
ATOM     34  H   UNL     1       5.677   3.458  20.219  0.00  0.00    +0.000 HD
ENDBRANCH  31  33
ENDBRANCH  28  31
ENDBRANCH  22  26
ENDBRANCH   1  22
TORSDOF 8
ENDMDL
