MODEL 1
REMARK VINA RESULT:      -7.0      0.000      0.000
REMARK  Name = 
REMARK  6 active torsions:
REMARK  status: ('A' for Active; 'I' for Inactive)
REMARK    1  A    between atoms: C_1  and  C_2
REMARK    2  A    between atoms: C_2  and  C_3
REMARK    3  A    between atoms: C_2  and  N_6
REMARK    4  A    between atoms: N_6  and  C_7
REMARK    5  A    between atoms: C_8  and  C_10
REMARK    6  A    between atoms: N_14  and  C_15
REMARK                            x       y       z     vdW  Elec       q    Type
REMARK                         _______ _______ _______ _____ _____    ______ ____
ROOT
ATOM      1  C   UNL     1       5.356   4.263  18.051  0.00  0.00    +0.000 C 
ATOM      2  C   UNL     1       6.009   5.640  18.152  0.00  0.00    +0.000 C 
ATOM      3  C   UNL     1       6.117   6.085  16.718  0.00  0.00    +0.000 C 
ATOM      4  O   UNL     1       6.334   7.234  16.365  0.00  0.00    +0.000 OA
ATOM      5  N   UNL     1       6.033   4.956  15.912  0.00  0.00    +0.000 N 
ATOM      6  C   UNL     1       5.743   3.765  16.674  0.00  0.00    +0.000 C 
ENDROOT
BRANCH   5   7
ATOM      7  C   UNL     1       6.062   4.967  14.454  0.00  0.00    +0.000 C 
ATOM      8  C   UNL     1       7.468   5.058  13.866  0.00  0.00    +0.000 C 
ATOM      9  C   UNL     1       7.312   4.578  12.434  0.00  0.00    +0.000 C 
ATOM     10  C   UNL     1       6.152   3.590  12.444  0.00  0.00    +0.000 C 
ATOM     11  C   UNL     1       5.527   3.675  13.830  0.00  0.00    +0.000 C 
ENDBRANCH   5   7
BRANCH   1  14
ATOM     12  N   UNL     1       3.138   3.355  18.810  0.00  0.00    +0.000 N 
ATOM     13  C   UNL     1       3.806   2.202  19.395  0.00  0.00    +0.000 C 
ATOM     14  C   UNL     1       3.840   4.374  18.151  0.00  0.00    +0.000 C 
ATOM     15  O   UNL     1       3.260   5.319  17.620  0.00  0.00    +0.000 OA
BRANCH  12  17
ATOM     16  C   UNL     1       0.845   2.304  18.577  0.00  0.00    +0.000 C 
ATOM     17  C   UNL     1       1.677   3.537  18.947  0.00  0.00    +0.000 C 
BRANCH  17  18
ATOM     18  C   UNL     1       1.296   4.038  20.329  0.00  0.00    +0.000 C 
ATOM     19  C   UNL     1       2.279   4.537  21.369  0.00  0.00    +0.000 C 
ATOM     20  C   UNL     1       1.441   5.522  20.612  0.00  0.00    +0.000 C 
ENDBRANCH  17  18
ENDBRANCH  12  17
ENDBRANCH   1  14
TORSDOF 4
ENDMDL
MODEL 2
REMARK VINA RESULT:      -6.9      2.315      3.942
REMARK  Name = 
REMARK  6 active torsions:
REMARK  status: ('A' for Active; 'I' for Inactive)
REMARK    1  A    between atoms: C_1  and  C_2
REMARK    2  A    between atoms: C_2  and  C_3
REMARK    3  A    between atoms: C_2  and  N_6
REMARK    4  A    between atoms: N_6  and  C_7
REMARK    5  A    between atoms: C_8  and  C_10
REMARK    6  A    between atoms: N_14  and  C_15
REMARK                            x       y       z     vdW  Elec       q    Type
REMARK                         _______ _______ _______ _____ _____    ______ ____
ROOT
ATOM      1  C   UNL     1       4.519   5.335  17.016  0.00  0.00    +0.000 C 
ATOM      2  C   UNL     1       5.545   4.246  16.705  0.00  0.00    +0.000 C 
ATOM      3  C   UNL     1       6.862   4.903  17.018  0.00  0.00    +0.000 C 
ATOM      4  O   UNL     1       7.917   4.304  17.163  0.00  0.00    +0.000 OA
ATOM      5  N   UNL     1       6.669   6.279  17.002  0.00  0.00    +0.000 N 
ATOM      6  C   UNL     1       5.280   6.631  16.827  0.00  0.00    +0.000 C 
ENDROOT
BRANCH   5   7
ATOM      7  C   UNL     1       7.699   7.270  17.292  0.00  0.00    +0.000 C 
ATOM      8  C   UNL     1       7.203   8.712  17.232  0.00  0.00    +0.000 C 
ATOM      9  C   UNL     1       8.241   9.503  18.009  0.00  0.00    +0.000 C 
ATOM     10  C   UNL     1       8.810   8.546  19.048  0.00  0.00    +0.000 C 
ATOM     11  C   UNL     1       8.248   7.170  18.719  0.00  0.00    +0.000 C 
ENDBRANCH   5   7
BRANCH   1  14
ATOM     12  N   UNL     1       2.681   4.945  18.684  0.00  0.00    +0.000 N 
ATOM     13  C   UNL     1       1.730   4.756  17.599  0.00  0.00    +0.000 C 
ATOM     14  C   UNL     1       4.035   5.226  18.456  0.00  0.00    +0.000 C 
ATOM     15  O   UNL     1       4.817   5.430  19.381  0.00  0.00    +0.000 OA
BRANCH  12  17
ATOM     16  C   UNL     1       1.717   6.048  20.751  0.00  0.00    +0.000 C 
ATOM     17  C   UNL     1       2.267   4.777  20.094  0.00  0.00    +0.000 C 
BRANCH  17  18
ATOM     18  C   UNL     1       1.289   3.628  20.264  0.00  0.00    +0.000 C 
ATOM     19  C   UNL     1       1.639   2.163  20.096  0.00  0.00    +0.000 C 
ATOM     20  C   UNL     1       1.457   2.725  21.473  0.00  0.00    +0.000 C 
ENDBRANCH  17  18
ENDBRANCH  12  17
ENDBRANCH   1  14
TORSDOF 4
ENDMDL
MODEL 3
REMARK VINA RESULT:      -6.7      2.153      4.004
REMARK  Name = 
REMARK  6 active torsions:
REMARK  status: ('A' for Active; 'I' for Inactive)
REMARK    1  A    between atoms: C_1  and  C_2
REMARK    2  A    between atoms: C_2  and  C_3
REMARK    3  A    between atoms: C_2  and  N_6
REMARK    4  A    between atoms: N_6  and  C_7
REMARK    5  A    between atoms: C_8  and  C_10
REMARK    6  A    between atoms: N_14  and  C_15
REMARK                            x       y       z     vdW  Elec       q    Type
REMARK                         _______ _______ _______ _____ _____    ______ ____
ROOT
ATOM      1  C   UNL     1       4.200   5.750  17.030  0.00  0.00    +0.000 C 
ATOM      2  C   UNL     1       5.035   4.788  16.186  0.00  0.00    +0.000 C 
ATOM      3  C   UNL     1       6.447   5.254  16.413  0.00  0.00    +0.000 C 
ATOM      4  O   UNL     1       7.443   4.601  16.142  0.00  0.00    +0.000 OA
ATOM      5  N   UNL     1       6.397   6.564  16.875  0.00  0.00    +0.000 N 
ATOM      6  C   UNL     1       5.043   7.006  17.110  0.00  0.00    +0.000 C 
ENDROOT
BRANCH   5   7
ATOM      7  C   UNL     1       7.560   7.363  17.247  0.00  0.00    +0.000 C 
ATOM      8  C   UNL     1       7.272   8.858  17.352  0.00  0.00    +0.000 C 
ATOM      9  C   UNL     1       8.417   9.407  18.185  0.00  0.00    +0.000 C 
ATOM     10  C   UNL     1       8.851   8.272  19.104  0.00  0.00    +0.000 C 
ATOM     11  C   UNL     1       8.098   7.032  18.642  0.00  0.00    +0.000 C 
ENDBRANCH   5   7
BRANCH   1  14
ATOM     12  N   UNL     1       2.782   4.504  18.688  0.00  0.00    +0.000 N 
ATOM     13  C   UNL     1       1.755   4.314  17.674  0.00  0.00    +0.000 C 
ATOM     14  C   UNL     1       3.977   5.189  18.428  0.00  0.00    +0.000 C 
ATOM     15  O   UNL     1       4.814   5.383  19.305  0.00  0.00    +0.000 OA
BRANCH  12  17
ATOM     16  C   UNL     1       1.272   4.159  20.693  0.00  0.00    +0.000 C 
ATOM     17  C   UNL     1       2.635   3.914  20.036  0.00  0.00    +0.000 C 
BRANCH  17  18
ATOM     18  C   UNL     1       2.969   2.432  20.045  0.00  0.00    +0.000 C 
ATOM     19  C   UNL     1       3.766   1.719  18.972  0.00  0.00    +0.000 C 
ATOM     20  C   UNL     1       4.412   2.031  20.287  0.00  0.00    +0.000 C 
ENDBRANCH  17  18
ENDBRANCH  12  17
ENDBRANCH   1  14
TORSDOF 4
ENDMDL
MODEL 4
REMARK VINA RESULT:      -6.6      0.825      1.231
REMARK  Name = 
REMARK  6 active torsions:
REMARK  status: ('A' for Active; 'I' for Inactive)
REMARK    1  A    between atoms: C_1  and  C_2
REMARK    2  A    between atoms: C_2  and  C_3
REMARK    3  A    between atoms: C_2  and  N_6
REMARK    4  A    between atoms: N_6  and  C_7
REMARK    5  A    between atoms: C_8  and  C_10
REMARK    6  A    between atoms: N_14  and  C_15
REMARK                            x       y       z     vdW  Elec       q    Type
REMARK                         _______ _______ _______ _____ _____    ______ ____
ROOT
ATOM      1  C   UNL     1       5.269   5.068  18.056  0.00  0.00    +0.000 C 
ATOM      2  C   UNL     1       5.284   6.428  17.359  0.00  0.00    +0.000 C 
ATOM      3  C   UNL     1       5.523   6.081  15.914  0.00  0.00    +0.000 C 
ATOM      4  O   UNL     1       5.341   6.846  14.980  0.00  0.00    +0.000 OA
ATOM      5  N   UNL     1       6.073   4.805  15.866  0.00  0.00    +0.000 N 
ATOM      6  C   UNL     1       6.117   4.183  17.167  0.00  0.00    +0.000 C 
ENDROOT
BRANCH   5   7
ATOM      7  C   UNL     1       6.418   4.092  14.641  0.00  0.00    +0.000 C 
ATOM      8  C   UNL     1       5.224   3.813  13.732  0.00  0.00    +0.000 C 
ATOM      9  C   UNL     1       5.840   3.530  12.373  0.00  0.00    +0.000 C 
ATOM     10  C   UNL     1       7.137   4.327  12.323  0.00  0.00    +0.000 C 
ATOM     11  C   UNL     1       7.353   4.885  13.724  0.00  0.00    +0.000 C 
ENDBRANCH   5   7
BRANCH   1  14
ATOM     12  N   UNL     1       3.613   3.401  18.948  0.00  0.00    +0.000 N 
ATOM     13  C   UNL     1       4.669   2.759  19.717  0.00  0.00    +0.000 C 
ATOM     14  C   UNL     1       3.851   4.516  18.133  0.00  0.00    +0.000 C 
ATOM     15  O   UNL     1       2.961   5.021  17.453  0.00  0.00    +0.000 OA
BRANCH  12  17
ATOM     16  C   UNL     1       2.011   1.447  18.771  0.00  0.00    +0.000 C 
ATOM     17  C   UNL     1       2.212   2.941  19.050  0.00  0.00    +0.000 C 
BRANCH  17  18
ATOM     18  C   UNL     1       1.586   3.319  20.381  0.00  0.00    +0.000 C 
ATOM     19  C   UNL     1       2.112   4.398  21.308  0.00  0.00    +0.000 C 
ATOM     20  C   UNL     1       0.890   4.664  20.482  0.00  0.00    +0.000 C 
ENDBRANCH  17  18
ENDBRANCH  12  17
ENDBRANCH   1  14
TORSDOF 4
ENDMDL
MODEL 5
REMARK VINA RESULT:      -6.6      1.274      1.820
REMARK  Name = 
REMARK  6 active torsions:
REMARK  status: ('A' for Active; 'I' for Inactive)
REMARK    1  A    between atoms: C_1  and  C_2
REMARK    2  A    between atoms: C_2  and  C_3
REMARK    3  A    between atoms: C_2  and  N_6
REMARK    4  A    between atoms: N_6  and  C_7
REMARK    5  A    between atoms: C_8  and  C_10
REMARK    6  A    between atoms: N_14  and  C_15
REMARK                            x       y       z     vdW  Elec       q    Type
REMARK                         _______ _______ _______ _____ _____    ______ ____
ROOT
ATOM      1  C   UNL     1       5.446   5.208  18.135  0.00  0.00    +0.000 C 
ATOM      2  C   UNL     1       5.166   6.507  17.380  0.00  0.00    +0.000 C 
ATOM      3  C   UNL     1       5.455   6.150  15.947  0.00  0.00    +0.000 C 
ATOM      4  O   UNL     1       5.104   6.815  14.984  0.00  0.00    +0.000 OA
ATOM      5  N   UNL     1       6.261   5.018  15.941  0.00  0.00    +0.000 N 
ATOM      6  C   UNL     1       6.451   4.480  17.267  0.00  0.00    +0.000 C 
ENDROOT
BRANCH   5   7
ATOM      7  C   UNL     1       6.733   4.336  14.742  0.00  0.00    +0.000 C 
ATOM      8  C   UNL     1       5.613   3.840  13.832  0.00  0.00    +0.000 C 
ATOM      9  C   UNL     1       6.283   3.623  12.487  0.00  0.00    +0.000 C 
ATOM     10  C   UNL     1       7.433   4.620  12.423  0.00  0.00    +0.000 C 
ATOM     11  C   UNL     1       7.537   5.246  13.808  0.00  0.00    +0.000 C 
ENDBRANCH   5   7
BRANCH   1  14
ATOM     12  N   UNL     1       3.130   4.875  19.053  0.00  0.00    +0.000 N 
ATOM     13  C   UNL     1       3.215   6.154  19.742  0.00  0.00    +0.000 C 
ATOM     14  C   UNL     1       4.178   4.375  18.267  0.00  0.00    +0.000 C 
ATOM     15  O   UNL     1       4.112   3.273  17.729  0.00  0.00    +0.000 OA
BRANCH  12  17
ATOM     16  C   UNL     1       1.327   3.693  17.723  0.00  0.00    +0.000 C 
ATOM     17  C   UNL     1       1.891   4.070  19.097  0.00  0.00    +0.000 C 
BRANCH  17  18
ATOM     18  C   UNL     1       2.051   2.832  19.962  0.00  0.00    +0.000 C 
ATOM     19  C   UNL     1       2.787   2.791  21.286  0.00  0.00    +0.000 C 
ATOM     20  C   UNL     1       1.289   2.777  21.273  0.00  0.00    +0.000 C 
ENDBRANCH  17  18
ENDBRANCH  12  17
ENDBRANCH   1  14
TORSDOF 4
ENDMDL
MODEL 6
REMARK VINA RESULT:      -6.5      1.982      3.705
REMARK  Name = 
REMARK  6 active torsions:
REMARK  status: ('A' for Active; 'I' for Inactive)
REMARK    1  A    between atoms: C_1  and  C_2
REMARK    2  A    between atoms: C_2  and  C_3
REMARK    3  A    between atoms: C_2  and  N_6
REMARK    4  A    between atoms: N_6  and  C_7
REMARK    5  A    between atoms: C_8  and  C_10
REMARK    6  A    between atoms: N_14  and  C_15
REMARK                            x       y       z     vdW  Elec       q    Type
REMARK                         _______ _______ _______ _____ _____    ______ ____
ROOT
ATOM      1  C   UNL     1       4.291   4.933  17.076  0.00  0.00    +0.000 C 
ATOM      2  C   UNL     1       5.105   4.214  16.000  0.00  0.00    +0.000 C 
ATOM      3  C   UNL     1       6.486   4.787  16.161  0.00  0.00    +0.000 C 
ATOM      4  O   UNL     1       7.499   4.298  15.683  0.00  0.00    +0.000 OA
ATOM      5  N   UNL     1       6.373   5.993  16.843  0.00  0.00    +0.000 N 
ATOM      6  C   UNL     1       5.021   6.243  17.284  0.00  0.00    +0.000 C 
ENDROOT
BRANCH   5   7
ATOM      7  C   UNL     1       7.494   6.844  17.227  0.00  0.00    +0.000 C 
ATOM      8  C   UNL     1       7.160   8.333  17.248  0.00  0.00    +0.000 C 
ATOM      9  C   UNL     1       8.249   8.955  18.104  0.00  0.00    +0.000 C 
ATOM     10  C   UNL     1       8.673   7.877  19.094  0.00  0.00    +0.000 C 
ATOM     11  C   UNL     1       7.977   6.595  18.659  0.00  0.00    +0.000 C 
ENDBRANCH   5   7
BRANCH   1  14
ATOM     12  N   UNL     1       3.262   3.196  18.572  0.00  0.00    +0.000 N 
ATOM     13  C   UNL     1       2.215   2.963  17.589  0.00  0.00    +0.000 C 
ATOM     14  C   UNL     1       4.284   4.133  18.373  0.00  0.00    +0.000 C 
ATOM     15  O   UNL     1       5.136   4.354  19.231  0.00  0.00    +0.000 OA
BRANCH  12  17
ATOM     16  C   UNL     1       4.734   1.878  20.159  0.00  0.00    +0.000 C 
ATOM     17  C   UNL     1       3.332   2.392  19.812  0.00  0.00    +0.000 C 
BRANCH  17  18
ATOM     18  C   UNL     1       2.728   3.123  20.997  0.00  0.00    +0.000 C 
ATOM     19  C   UNL     1       1.655   4.190  20.899  0.00  0.00    +0.000 C 
ATOM     20  C   UNL     1       1.288   2.814  21.364  0.00  0.00    +0.000 C 
ENDBRANCH  17  18
ENDBRANCH  12  17
ENDBRANCH   1  14
TORSDOF 4
ENDMDL
MODEL 7
REMARK VINA RESULT:      -6.5      1.089      1.126
REMARK  Name = 
REMARK  6 active torsions:
REMARK  status: ('A' for Active; 'I' for Inactive)
REMARK    1  A    between atoms: C_1  and  C_2
REMARK    2  A    between atoms: C_2  and  C_3
REMARK    3  A    between atoms: C_2  and  N_6
REMARK    4  A    between atoms: N_6  and  C_7
REMARK    5  A    between atoms: C_8  and  C_10
REMARK    6  A    between atoms: N_14  and  C_15
REMARK                            x       y       z     vdW  Elec       q    Type
REMARK                         _______ _______ _______ _____ _____    ______ ____
ROOT
ATOM      1  C   UNL     1       6.067   4.514  18.489  0.00  0.00    +0.000 C 
ATOM      2  C   UNL     1       6.819   5.844  18.479  0.00  0.00    +0.000 C 
ATOM      3  C   UNL     1       6.748   6.279  17.040  0.00  0.00    +0.000 C 
ATOM      4  O   UNL     1       6.987   7.410  16.646  0.00  0.00    +0.000 OA
ATOM      5  N   UNL     1       6.472   5.157  16.267  0.00  0.00    +0.000 N 
ATOM      6  C   UNL     1       6.217   3.989  17.076  0.00  0.00    +0.000 C 
ENDROOT
BRANCH   5   7
ATOM      7  C   UNL     1       6.290   5.165  14.820  0.00  0.00    +0.000 C 
ATOM      8  C   UNL     1       7.595   5.082  14.034  0.00  0.00    +0.000 C 
ATOM      9  C   UNL     1       7.175   4.625  12.648  0.00  0.00    +0.000 C 
ATOM     10  C   UNL     1       5.918   3.787  12.843  0.00  0.00    +0.000 C 
ATOM     11  C   UNL     1       5.516   3.948  14.303  0.00  0.00    +0.000 C 
ENDBRANCH   5   7
BRANCH   1  14
ATOM     12  N   UNL     1       3.729   3.627  18.736  0.00  0.00    +0.000 N 
ATOM     13  C   UNL     1       4.191   2.296  18.371  0.00  0.00    +0.000 C 
ATOM     14  C   UNL     1       4.593   4.728  18.806  0.00  0.00    +0.000 C 
ATOM     15  O   UNL     1       4.182   5.856  19.069  0.00  0.00    +0.000 OA
BRANCH  12  17
ATOM     16  C   UNL     1       1.345   3.949  17.940  0.00  0.00    +0.000 C 
ATOM     17  C   UNL     1       2.320   3.863  19.120  0.00  0.00    +0.000 C 
BRANCH  17  18
ATOM     18  C   UNL     1       1.832   2.847  20.137  0.00  0.00    +0.000 C 
ATOM     19  C   UNL     1       2.516   2.547  21.456  0.00  0.00    +0.000 C 
ATOM     20  C   UNL     1       1.262   3.367  21.444  0.00  0.00    +0.000 C 
ENDBRANCH  17  18
ENDBRANCH  12  17
ENDBRANCH   1  14
TORSDOF 4
ENDMDL
MODEL 8
REMARK VINA RESULT:      -6.5      1.419      2.469
REMARK  Name = 
REMARK  6 active torsions:
REMARK  status: ('A' for Active; 'I' for Inactive)
REMARK    1  A    between atoms: C_1  and  C_2
REMARK    2  A    between atoms: C_2  and  C_3
REMARK    3  A    between atoms: C_2  and  N_6
REMARK    4  A    between atoms: N_6  and  C_7
REMARK    5  A    between atoms: C_8  and  C_10
REMARK    6  A    between atoms: N_14  and  C_15
REMARK                            x       y       z     vdW  Elec       q    Type
REMARK                         _______ _______ _______ _____ _____    ______ ____
ROOT
ATOM      1  C   UNL     1       6.327   5.586  18.328  0.00  0.00    +0.000 C 
ATOM      2  C   UNL     1       5.707   6.732  17.530  0.00  0.00    +0.000 C 
ATOM      3  C   UNL     1       5.682   6.207  16.121  0.00  0.00    +0.000 C 
ATOM      4  O   UNL     1       5.025   6.692  15.213  0.00  0.00    +0.000 OA
ATOM      5  N   UNL     1       6.601   5.168  16.035  0.00  0.00    +0.000 N 
ATOM      6  C   UNL     1       7.176   4.843  17.318  0.00  0.00    +0.000 C 
ENDROOT
BRANCH   5   7
ATOM      7  C   UNL     1       6.852   4.372  14.838  0.00  0.00    +0.000 C 
ATOM      8  C   UNL     1       5.582   3.888  14.142  0.00  0.00    +0.000 C 
ATOM      9  C   UNL     1       6.032   3.531  12.736  0.00  0.00    +0.000 C 
ATOM     10  C   UNL     1       7.213   4.443  12.428  0.00  0.00    +0.000 C 
ATOM     11  C   UNL     1       7.557   5.158  13.728  0.00  0.00    +0.000 C 
ENDBRANCH   5   7
BRANCH   1  14
ATOM     12  N   UNL     1       3.999   5.212  19.197  0.00  0.00    +0.000 N 
ATOM     13  C   UNL     1       3.704   6.627  19.026  0.00  0.00    +0.000 C 
ATOM     14  C   UNL     1       5.247   4.662  18.876  0.00  0.00    +0.000 C 
ATOM     15  O   UNL     1       5.499   3.475  19.069  0.00  0.00    +0.000 OA
BRANCH  12  17
ATOM     16  C   UNL     1       2.136   4.763  20.854  0.00  0.00    +0.000 C 
ATOM     17  C   UNL     1       2.957   4.269  19.658  0.00  0.00    +0.000 C 
BRANCH  17  18
ATOM     18  C   UNL     1       2.039   3.841  18.526  0.00  0.00    +0.000 C 
ATOM     19  C   UNL     1       2.497   3.510  17.120  0.00  0.00    +0.000 C 
ATOM     20  C   UNL     1       2.117   2.401  18.054  0.00  0.00    +0.000 C 
ENDBRANCH  17  18
ENDBRANCH  12  17
ENDBRANCH   1  14
TORSDOF 4
ENDMDL
MODEL 9
REMARK VINA RESULT:      -6.4      2.399      6.699
REMARK  Name = 
REMARK  6 active torsions:
REMARK  status: ('A' for Active; 'I' for Inactive)
REMARK    1  A    between atoms: C_1  and  C_2
REMARK    2  A    between atoms: C_2  and  C_3
REMARK    3  A    between atoms: C_2  and  N_6
REMARK    4  A    between atoms: N_6  and  C_7
REMARK    5  A    between atoms: C_8  and  C_10
REMARK    6  A    between atoms: N_14  and  C_15
REMARK                            x       y       z     vdW  Elec       q    Type
REMARK                         _______ _______ _______ _____ _____    ______ ____
ROOT
ATOM      1  C   UNL     1       3.171   6.422  17.741  0.00  0.00    +0.000 C 
ATOM      2  C   UNL     1       2.653   7.582  18.590  0.00  0.00    +0.000 C 
ATOM      3  C   UNL     1       2.065   6.901  19.797  0.00  0.00    +0.000 C 
ATOM      4  O   UNL     1       1.786   7.466  20.843  0.00  0.00    +0.000 OA
ATOM      5  N   UNL     1       1.814   5.576  19.460  0.00  0.00    +0.000 N 
ATOM      6  C   UNL     1       2.304   5.248  18.142  0.00  0.00    +0.000 C 
ENDROOT
BRANCH   5   7
ATOM      7  C   UNL     1       1.275   4.572  20.370  0.00  0.00    +0.000 C 
ATOM      8  C   UNL     1       0.935   3.245  19.695  0.00  0.00    +0.000 C 
ATOM      9  C   UNL     1       0.868   2.245  20.835  0.00  0.00    +0.000 C 
ATOM     10  C   UNL     1       1.827   2.757  21.902  0.00  0.00    +0.000 C 
ATOM     11  C   UNL     1       2.269   4.144  21.454  0.00  0.00    +0.000 C 
ENDBRANCH   5   7
BRANCH   1  14
ATOM     12  N   UNL     1       5.554   6.091  17.015  0.00  0.00    +0.000 N 
ATOM     13  C   UNL     1       5.170   6.333  15.632  0.00  0.00    +0.000 C 
ATOM     14  C   UNL     1       4.629   6.123  18.067  0.00  0.00    +0.000 C 
ATOM     15  O   UNL     1       4.957   5.871  19.224  0.00  0.00    +0.000 OA
BRANCH  12  17
ATOM     16  C   UNL     1       7.633   4.685  16.669  0.00  0.00    +0.000 C 
ATOM     17  C   UNL     1       6.969   5.868  17.382  0.00  0.00    +0.000 C 
BRANCH  17  18
ATOM     18  C   UNL     1       7.804   7.124  17.212  0.00  0.00    +0.000 C 
ATOM     19  C   UNL     1       7.356   8.520  17.601  0.00  0.00    +0.000 C 
ATOM     20  C   UNL     1       8.344   7.794  18.463  0.00  0.00    +0.000 C 
ENDBRANCH  17  18
ENDBRANCH  12  17
ENDBRANCH   1  14
TORSDOF 4
ENDMDL
