MODEL 1
REMARK VINA RESULT:      -7.7      0.000      0.000
REMARK  Name = 
REMARK  5 active torsions:
REMARK  status: ('A' for Active; 'I' for Inactive)
REMARK    1  A    between atoms: C_2  and  C_3
REMARK    2  A    between atoms: C_3  and  C_4
REMARK    3  A    between atoms: C_4  and  C_5
REMARK    4  A    between atoms: C_15  and  O_16
REMARK    5  A    between atoms: O_16  and  C_17
REMARK                            x       y       z     vdW  Elec       q    Type
REMARK                         _______ _______ _______ _____ _____    ______ ____
ROOT
ATOM      1  O   UNL     1       1.557   7.895  20.142  0.00  0.00    +0.000 OA
ATOM      2  C   UNL     1       2.140   7.807  19.061  0.00  0.00    +0.000 C 
ATOM      3  N   UNL     1       2.980   6.755  18.778  0.00  0.00    +0.000 N 
ATOM      4  C   UNL     1       3.181   5.668  19.720  0.00  0.00    +0.000 C 
ATOM      5  C   UNL     1       4.603   5.217  19.452  0.00  0.00    +0.000 C 
ATOM      6  C   UNL     1       4.731   5.370  17.934  0.00  0.00    +0.000 C 
ATOM      7  C   UNL     1       3.895   6.630  17.651  0.00  0.00    +0.000 C 
ENDROOT
BRANCH   2   8
ATOM      8  C   UNL     1       1.896   8.821  17.956  0.00  0.00    +0.000 C 
BRANCH   8   9
ATOM      9  C   UNL     1       1.544  10.190  18.539  0.00  0.00    +0.000 C 
BRANCH   9  10
ATOM     10  C   UNL     1       0.065  10.478  18.468  0.00  0.00    +0.000 A 
ATOM     11  C   UNL     1      -0.748   9.786  17.558  0.00  0.00    +0.000 A 
ATOM     12  C   UNL     1      -2.119  10.042  17.491  0.00  0.00    +0.000 A 
ATOM     13  C   UNL     1      -2.690  11.000  18.331  0.00  0.00    +0.000 A 
ATOM     14  C   UNL     1      -1.890  11.699  19.230  0.00  0.00    +0.000 A 
ATOM     15 CL   UNL     1      -2.596  12.875  20.268  0.00  0.00    +0.000 Cl
ATOM     16  C   UNL     1      -0.518  11.446  19.300  0.00  0.00    +0.000 A 
ENDBRANCH   9  10
ENDBRANCH   8   9
ENDBRANCH   2   8
BRANCH   6  17
ATOM     17  O   UNL     1       6.088   5.591  17.550  0.00  0.00    +0.000 OA
BRANCH  17  18
ATOM     18  C   UNL     1       6.372   5.243  16.245  0.00  0.00    +0.000 A 
ATOM     19  C   UNL     1       5.630   4.217  15.691  0.00  0.00    +0.000 A 
ATOM     20  C   UNL     1       5.927   3.819  14.393  0.00  0.00    +0.000 A 
ATOM     21  C   UNL     1       6.946   4.475  13.729  0.00  0.00    +0.000 A 
ATOM     22  N   UNL     1       7.645   5.482  14.288  0.00  0.00    +0.000 NA
ATOM     23  N   UNL     1       7.353   5.871  15.562  0.00  0.00    +0.000 NA
ENDBRANCH  17  18
ENDBRANCH   6  17
TORSDOF 5
ENDMDL
MODEL 2
REMARK VINA RESULT:      -7.6      1.044      1.382
REMARK  Name = 
REMARK  5 active torsions:
REMARK  status: ('A' for Active; 'I' for Inactive)
REMARK    1  A    between atoms: C_2  and  C_3
REMARK    2  A    between atoms: C_3  and  C_4
REMARK    3  A    between atoms: C_4  and  C_5
REMARK    4  A    between atoms: C_15  and  O_16
REMARK    5  A    between atoms: O_16  and  C_17
REMARK                            x       y       z     vdW  Elec       q    Type
REMARK                         _______ _______ _______ _____ _____    ______ ____
ROOT
ATOM      1  O   UNL     1       1.559   7.872  20.174  0.00  0.00    +0.000 OA
ATOM      2  C   UNL     1       2.157   7.809  19.098  0.00  0.00    +0.000 C 
ATOM      3  N   UNL     1       2.962   6.739  18.782  0.00  0.00    +0.000 N 
ATOM      4  C   UNL     1       3.107   5.606  19.677  0.00  0.00    +0.000 C 
ATOM      5  C   UNL     1       4.516   5.114  19.411  0.00  0.00    +0.000 C 
ATOM      6  C   UNL     1       4.675   5.329  17.904  0.00  0.00    +0.000 C 
ATOM      7  C   UNL     1       3.890   6.630  17.664  0.00  0.00    +0.000 C 
ENDROOT
BRANCH   2   8
ATOM      8  C   UNL     1       1.968   8.879  18.036  0.00  0.00    +0.000 C 
BRANCH   8   9
ATOM      9  C   UNL     1       1.849  10.264  18.671  0.00  0.00    +0.000 C 
BRANCH   9  10
ATOM     10  C   UNL     1       0.469  10.851  18.509  0.00  0.00    +0.000 A 
ATOM     11  C   UNL     1       0.261  12.228  18.680  0.00  0.00    +0.000 A 
ATOM     12  C   UNL     1      -1.012  12.780  18.524  0.00  0.00    +0.000 A 
ATOM     13  C   UNL     1      -2.093  11.958  18.200  0.00  0.00    +0.000 A 
ATOM     14  C   UNL     1      -1.898  10.589  18.037  0.00  0.00    +0.000 A 
ATOM     15 CL   UNL     1      -3.228   9.578  17.632  0.00  0.00    +0.000 Cl
ATOM     16  C   UNL     1      -0.626  10.033  18.192  0.00  0.00    +0.000 A 
ENDBRANCH   9  10
ENDBRANCH   8   9
ENDBRANCH   2   8
BRANCH   6  17
ATOM     17  O   UNL     1       6.045   5.516  17.551  0.00  0.00    +0.000 OA
BRANCH  17  18
ATOM     18  C   UNL     1       6.345   5.184  16.245  0.00  0.00    +0.000 A 
ATOM     19  C   UNL     1       5.580   4.196  15.655  0.00  0.00    +0.000 A 
ATOM     20  C   UNL     1       5.890   3.813  14.355  0.00  0.00    +0.000 A 
ATOM     21  C   UNL     1       6.945   4.445  13.726  0.00  0.00    +0.000 A 
ATOM     22  N   UNL     1       7.667   5.417  14.320  0.00  0.00    +0.000 NA
ATOM     23  N   UNL     1       7.362   5.790  15.595  0.00  0.00    +0.000 NA
ENDBRANCH  17  18
ENDBRANCH   6  17
TORSDOF 5
ENDMDL
MODEL 3
REMARK VINA RESULT:      -7.4      4.488      9.468
REMARK  Name = 
REMARK  5 active torsions:
REMARK  status: ('A' for Active; 'I' for Inactive)
REMARK    1  A    between atoms: C_2  and  C_3
REMARK    2  A    between atoms: C_3  and  C_4
REMARK    3  A    between atoms: C_4  and  C_5
REMARK    4  A    between atoms: C_15  and  O_16
REMARK    5  A    between atoms: O_16  and  C_17
REMARK                            x       y       z     vdW  Elec       q    Type
REMARK                         _______ _______ _______ _____ _____    ______ ____
ROOT
ATOM      1  O   UNL     1       2.148   9.198  17.436  0.00  0.00    +0.000 OA
ATOM      2  C   UNL     1       1.790   8.832  18.556  0.00  0.00    +0.000 C 
ATOM      3  N   UNL     1       0.886   9.557  19.298  0.00  0.00    +0.000 N 
ATOM      4  C   UNL     1       0.269  10.764  18.776  0.00  0.00    +0.000 C 
ATOM      5  C   UNL     1       0.031  11.609  20.011  0.00  0.00    +0.000 C 
ATOM      6  C   UNL     1      -0.349  10.571  21.070  0.00  0.00    +0.000 C 
ATOM      7  C   UNL     1       0.542   9.372  20.702  0.00  0.00    +0.000 C 
ENDROOT
BRANCH   2   8
ATOM      8  C   UNL     1       2.274   7.515  19.139  0.00  0.00    +0.000 C 
BRANCH   8   9
ATOM      9  C   UNL     1       2.551   6.497  18.033  0.00  0.00    +0.000 C 
BRANCH   9  10
ATOM     10  C   UNL     1       2.297   5.080  18.483  0.00  0.00    +0.000 A 
ATOM     11  C   UNL     1       2.224   4.041  17.543  0.00  0.00    +0.000 A 
ATOM     12  C   UNL     1       1.997   2.726  17.954  0.00  0.00    +0.000 A 
ATOM     13  C   UNL     1       1.833   2.437  19.310  0.00  0.00    +0.000 A 
ATOM     14  C   UNL     1       1.895   3.463  20.249  0.00  0.00    +0.000 A 
ATOM     15 CL   UNL     1       1.699   3.106  21.919  0.00  0.00    +0.000 Cl
ATOM     16  C   UNL     1       2.122   4.780  19.843  0.00  0.00    +0.000 A 
ENDBRANCH   9  10
ENDBRANCH   8   9
ENDBRANCH   2   8
BRANCH   6  17
ATOM     17  O   UNL     1      -0.027  11.030  22.382  0.00  0.00    +0.000 OA
BRANCH  17  18
ATOM     18  C   UNL     1      -0.885  11.994  22.872  0.00  0.00    +0.000 A 
ATOM     19  C   UNL     1      -2.214  11.642  23.011  0.00  0.00    +0.000 A 
ATOM     20  C   UNL     1      -3.106  12.609  23.461  0.00  0.00    +0.000 A 
ATOM     21  C   UNL     1      -2.611  13.867  23.746  0.00  0.00    +0.000 A 
ATOM     22  N   UNL     1      -1.306  14.180  23.615  0.00  0.00    +0.000 NA
ATOM     23  N   UNL     1      -0.434  13.231  23.173  0.00  0.00    +0.000 NA
ENDBRANCH  17  18
ENDBRANCH   6  17
TORSDOF 5
ENDMDL
MODEL 4
REMARK VINA RESULT:      -7.4      1.505      2.080
REMARK  Name = 
REMARK  5 active torsions:
REMARK  status: ('A' for Active; 'I' for Inactive)
REMARK    1  A    between atoms: C_2  and  C_3
REMARK    2  A    between atoms: C_3  and  C_4
REMARK    3  A    between atoms: C_4  and  C_5
REMARK    4  A    between atoms: C_15  and  O_16
REMARK    5  A    between atoms: O_16  and  C_17
REMARK                            x       y       z     vdW  Elec       q    Type
REMARK                         _______ _______ _______ _____ _____    ______ ____
ROOT
ATOM      1  O   UNL     1       2.332   5.920  19.805  0.00  0.00    +0.000 OA
ATOM      2  C   UNL     1       2.738   6.101  18.656  0.00  0.00    +0.000 C 
ATOM      3  N   UNL     1       3.702   5.294  18.097  0.00  0.00    +0.000 N 
ATOM      4  C   UNL     1       4.252   4.157  18.814  0.00  0.00    +0.000 C 
ATOM      5  C   UNL     1       5.670   4.052  18.291  0.00  0.00    +0.000 C 
ATOM      6  C   UNL     1       5.520   4.430  16.815  0.00  0.00    +0.000 C 
ATOM      7  C   UNL     1       4.430   5.514  16.854  0.00  0.00    +0.000 C 
ENDROOT
BRANCH   2   8
ATOM      8  C   UNL     1       2.134   7.180  17.774  0.00  0.00    +0.000 C 
BRANCH   8   9
ATOM      9  C   UNL     1       2.471   8.573  18.306  0.00  0.00    +0.000 C 
BRANCH   9  10
ATOM     10  C   UNL     1       1.248   9.311  18.790  0.00  0.00    +0.000 A 
ATOM     11  C   UNL     1       1.071   9.566  20.158  0.00  0.00    +0.000 A 
ATOM     12  C   UNL     1      -0.055  10.256  20.613  0.00  0.00    +0.000 A 
ATOM     13  C   UNL     1      -1.020  10.692  19.703  0.00  0.00    +0.000 A 
ATOM     14  C   UNL     1      -0.857  10.436  18.344  0.00  0.00    +0.000 A 
ATOM     15 CL   UNL     1      -2.042  10.979  17.224  0.00  0.00    +0.000 Cl
ATOM     16  C   UNL     1       0.268   9.746  17.886  0.00  0.00    +0.000 A 
ENDBRANCH   9  10
ENDBRANCH   8   9
ENDBRANCH   2   8
BRANCH   6  17
ATOM     17  O   UNL     1       6.732   4.978  16.297  0.00  0.00    +0.000 OA
BRANCH  17  18
ATOM     18  C   UNL     1       6.887   4.824  14.934  0.00  0.00    +0.000 A 
ATOM     19  C   UNL     1       6.085   3.885  14.311  0.00  0.00    +0.000 A 
ATOM     20  C   UNL     1       6.253   3.680  12.947  0.00  0.00    +0.000 A 
ATOM     21  C   UNL     1       7.211   4.429  12.290  0.00  0.00    +0.000 A 
ATOM     22  N   UNL     1       7.970   5.348  12.919  0.00  0.00    +0.000 NA
ATOM     23  N   UNL     1       7.804   5.547  14.258  0.00  0.00    +0.000 NA
ENDBRANCH  17  18
ENDBRANCH   6  17
TORSDOF 5
ENDMDL
MODEL 5
REMARK VINA RESULT:      -7.3      2.101      2.871
REMARK  Name = 
REMARK  5 active torsions:
REMARK  status: ('A' for Active; 'I' for Inactive)
REMARK    1  A    between atoms: C_2  and  C_3
REMARK    2  A    between atoms: C_3  and  C_4
REMARK    3  A    between atoms: C_4  and  C_5
REMARK    4  A    between atoms: C_15  and  O_16
REMARK    5  A    between atoms: O_16  and  C_17
REMARK                            x       y       z     vdW  Elec       q    Type
REMARK                         _______ _______ _______ _____ _____    ______ ____
ROOT
ATOM      1  O   UNL     1       1.810   4.078  19.947  0.00  0.00    +0.000 OA
ATOM      2  C   UNL     1       2.580   4.852  19.377  0.00  0.00    +0.000 C 
ATOM      3  N   UNL     1       3.215   4.505  18.206  0.00  0.00    +0.000 N 
ATOM      4  C   UNL     1       2.970   3.229  17.557  0.00  0.00    +0.000 C 
ATOM      5  C   UNL     1       4.286   2.914  16.874  0.00  0.00    +0.000 C 
ATOM      6  C   UNL     1       4.768   4.290  16.407  0.00  0.00    +0.000 C 
ATOM      7  C   UNL     1       4.303   5.214  17.546  0.00  0.00    +0.000 C 
ENDROOT
BRANCH   2   8
ATOM      8  C   UNL     1       2.803   6.260  19.901  0.00  0.00    +0.000 C 
BRANCH   8   9
ATOM      9  C   UNL     1       2.326   7.302  18.888  0.00  0.00    +0.000 C 
BRANCH   9  10
ATOM     10  C   UNL     1       1.550   8.419  19.540  0.00  0.00    +0.000 A 
ATOM     11  C   UNL     1       1.065   9.486  18.770  0.00  0.00    +0.000 A 
ATOM     12  C   UNL     1       0.339  10.520  19.365  0.00  0.00    +0.000 A 
ATOM     13  C   UNL     1       0.098  10.501  20.740  0.00  0.00    +0.000 A 
ATOM     14  C   UNL     1       0.584   9.450  21.514  0.00  0.00    +0.000 A 
ATOM     15 CL   UNL     1       0.281   9.424  23.206  0.00  0.00    +0.000 Cl
ATOM     16  C   UNL     1       1.310   8.414  20.923  0.00  0.00    +0.000 A 
ENDBRANCH   9  10
ENDBRANCH   8   9
ENDBRANCH   2   8
BRANCH   6  17
ATOM     17  O   UNL     1       6.191   4.329  16.300  0.00  0.00    +0.000 OA
BRANCH  17  18
ATOM     18  C   UNL     1       6.657   4.575  15.025  0.00  0.00    +0.000 A 
ATOM     19  C   UNL     1       6.050   3.890  13.989  0.00  0.00    +0.000 A 
ATOM     20  C   UNL     1       6.530   4.088  12.700  0.00  0.00    +0.000 A 
ATOM     21  C   UNL     1       7.587   4.961  12.527  0.00  0.00    +0.000 A 
ATOM     22  N   UNL     1       8.153   5.628  13.554  0.00  0.00    +0.000 NA
ATOM     23  N   UNL     1       7.680   5.431  14.818  0.00  0.00    +0.000 NA
ENDBRANCH  17  18
ENDBRANCH   6  17
TORSDOF 5
ENDMDL
MODEL 6
REMARK VINA RESULT:      -7.1      2.255      3.026
REMARK  Name = 
REMARK  5 active torsions:
REMARK  status: ('A' for Active; 'I' for Inactive)
REMARK    1  A    between atoms: C_2  and  C_3
REMARK    2  A    between atoms: C_3  and  C_4
REMARK    3  A    between atoms: C_4  and  C_5
REMARK    4  A    between atoms: C_15  and  O_16
REMARK    5  A    between atoms: O_16  and  C_17
REMARK                            x       y       z     vdW  Elec       q    Type
REMARK                         _______ _______ _______ _____ _____    ______ ____
ROOT
ATOM      1  O   UNL     1       1.535   3.347  21.573  0.00  0.00    +0.000 OA
ATOM      2  C   UNL     1       1.854   4.122  20.669  0.00  0.00    +0.000 C 
ATOM      3  N   UNL     1       2.800   3.784  19.730  0.00  0.00    +0.000 N 
ATOM      4  C   UNL     1       3.436   2.478  19.726  0.00  0.00    +0.000 C 
ATOM      5  C   UNL     1       4.816   2.750  19.162  0.00  0.00    +0.000 C 
ATOM      6  C   UNL     1       4.549   3.827  18.107  0.00  0.00    +0.000 C 
ATOM      7  C   UNL     1       3.430   4.662  18.752  0.00  0.00    +0.000 C 
ENDROOT
BRANCH   2   8
ATOM      8  C   UNL     1       1.154   5.460  20.505  0.00  0.00    +0.000 C 
BRANCH   8   9
ATOM      9  C   UNL     1       2.161   6.609  20.526  0.00  0.00    +0.000 C 
BRANCH   9  10
ATOM     10  C   UNL     1       1.489   7.959  20.539  0.00  0.00    +0.000 A 
ATOM     11  C   UNL     1       1.543   8.788  19.409  0.00  0.00    +0.000 A 
ATOM     12  C   UNL     1       0.916  10.036  19.411  0.00  0.00    +0.000 A 
ATOM     13  C   UNL     1       0.233  10.471  20.548  0.00  0.00    +0.000 A 
ATOM     14  C   UNL     1       0.181   9.659  21.678  0.00  0.00    +0.000 A 
ATOM     15 CL   UNL     1      -0.665  10.192  23.076  0.00  0.00    +0.000 Cl
ATOM     16  C   UNL     1       0.807   8.410  21.680  0.00  0.00    +0.000 A 
ENDBRANCH   9  10
ENDBRANCH   8   9
ENDBRANCH   2   8
BRANCH   6  17
ATOM     17  O   UNL     1       5.703   4.640  17.897  0.00  0.00    +0.000 OA
BRANCH  17  18
ATOM     18  C   UNL     1       6.112   4.715  16.580  0.00  0.00    +0.000 A 
ATOM     19  C   UNL     1       5.297   4.124  15.633  0.00  0.00    +0.000 A 
ATOM     20  C   UNL     1       5.708   4.148  14.306  0.00  0.00    +0.000 A 
ATOM     21  C   UNL     1       6.909   4.764  14.009  0.00  0.00    +0.000 A 
ATOM     22  N   UNL     1       7.679   5.346  14.950  0.00  0.00    +0.000 NA
ATOM     23  N   UNL     1       7.273   5.321  16.252  0.00  0.00    +0.000 NA
ENDBRANCH  17  18
ENDBRANCH   6  17
TORSDOF 5
ENDMDL
MODEL 7
REMARK VINA RESULT:      -7.1      2.597      3.290
REMARK  Name = 
REMARK  5 active torsions:
REMARK  status: ('A' for Active; 'I' for Inactive)
REMARK    1  A    between atoms: C_2  and  C_3
REMARK    2  A    between atoms: C_3  and  C_4
REMARK    3  A    between atoms: C_4  and  C_5
REMARK    4  A    between atoms: C_15  and  O_16
REMARK    5  A    between atoms: O_16  and  C_17
REMARK                            x       y       z     vdW  Elec       q    Type
REMARK                         _______ _______ _______ _____ _____    ______ ____
ROOT
ATOM      1  O   UNL     1       0.997   4.484  20.758  0.00  0.00    +0.000 OA
ATOM      2  C   UNL     1       1.879   5.099  20.156  0.00  0.00    +0.000 C 
ATOM      3  N   UNL     1       2.916   4.445  19.532  0.00  0.00    +0.000 N 
ATOM      4  C   UNL     1       2.996   2.995  19.507  0.00  0.00    +0.000 C 
ATOM      5  C   UNL     1       4.485   2.716  19.479  0.00  0.00    +0.000 C 
ATOM      6  C   UNL     1       5.029   3.845  18.599  0.00  0.00    +0.000 C 
ATOM      7  C   UNL     1       4.130   5.034  18.981  0.00  0.00    +0.000 C 
ENDROOT
BRANCH   2   8
ATOM      8  C   UNL     1       1.817   6.610  20.010  0.00  0.00    +0.000 C 
BRANCH   8   9
ATOM      9  C   UNL     1       1.410   7.270  21.327  0.00  0.00    +0.000 C 
BRANCH   9  10
ATOM     10  C   UNL     1       0.796   8.632  21.118  0.00  0.00    +0.000 A 
ATOM     11  C   UNL     1       1.013   9.329  19.920  0.00  0.00    +0.000 A 
ATOM     12  C   UNL     1       0.440  10.587  19.716  0.00  0.00    +0.000 A 
ATOM     13  C   UNL     1      -0.350  11.163  20.713  0.00  0.00    +0.000 A 
ATOM     14  C   UNL     1      -0.563  10.482  21.908  0.00  0.00    +0.000 A 
ATOM     15 CL   UNL     1      -1.542  11.188  23.132  0.00  0.00    +0.000 Cl
ATOM     16  C   UNL     1       0.007   9.224  22.116  0.00  0.00    +0.000 A 
ENDBRANCH   9  10
ENDBRANCH   8   9
ENDBRANCH   2   8
BRANCH   6  17
ATOM     17  O   UNL     1       6.388   4.141  18.921  0.00  0.00    +0.000 OA
BRANCH  17  18
ATOM     18  C   UNL     1       6.864   5.306  18.353  0.00  0.00    +0.000 A 
ATOM     19  C   UNL     1       7.733   6.067  19.113  0.00  0.00    +0.000 A 
ATOM     20  C   UNL     1       8.193   7.265  18.581  0.00  0.00    +0.000 A 
ATOM     21  C   UNL     1       7.756   7.627  17.321  0.00  0.00    +0.000 A 
ATOM     22  N   UNL     1       6.919   6.860  16.595  0.00  0.00    +0.000 NA
ATOM     23  N   UNL     1       6.469   5.684  17.119  0.00  0.00    +0.000 NA
ENDBRANCH  17  18
ENDBRANCH   6  17
TORSDOF 5
ENDMDL
MODEL 8
REMARK VINA RESULT:      -7.1      4.815      9.798
REMARK  Name = 
REMARK  5 active torsions:
REMARK  status: ('A' for Active; 'I' for Inactive)
REMARK    1  A    between atoms: C_2  and  C_3
REMARK    2  A    between atoms: C_3  and  C_4
REMARK    3  A    between atoms: C_4  and  C_5
REMARK    4  A    between atoms: C_15  and  O_16
REMARK    5  A    between atoms: O_16  and  C_17
REMARK                            x       y       z     vdW  Elec       q    Type
REMARK                         _______ _______ _______ _____ _____    ______ ____
ROOT
ATOM      1  O   UNL     1       1.918   8.729  17.688  0.00  0.00    +0.000 OA
ATOM      2  C   UNL     1       1.621   8.705  18.884  0.00  0.00    +0.000 C 
ATOM      3  N   UNL     1       0.791   9.651  19.440  0.00  0.00    +0.000 N 
ATOM      4  C   UNL     1       0.183  10.696  18.636  0.00  0.00    +0.000 C 
ATOM      5  C   UNL     1       0.053  11.861  19.597  0.00  0.00    +0.000 C 
ATOM      6  C   UNL     1      -0.293  11.175  20.922  0.00  0.00    +0.000 C 
ATOM      7  C   UNL     1       0.531   9.878  20.856  0.00  0.00    +0.000 C 
ENDROOT
BRANCH   2   8
ATOM      8  C   UNL     1       2.096   7.577  19.784  0.00  0.00    +0.000 C 
BRANCH   8   9
ATOM      9  C   UNL     1       2.867   6.527  18.984  0.00  0.00    +0.000 C 
BRANCH   9  10
ATOM     10  C   UNL     1       2.495   5.120  19.381  0.00  0.00    +0.000 A 
ATOM     11  C   UNL     1       1.517   4.896  20.360  0.00  0.00    +0.000 A 
ATOM     12  C   UNL     1       1.161   3.596  20.727  0.00  0.00    +0.000 A 
ATOM     13  C   UNL     1       1.788   2.506  20.121  0.00  0.00    +0.000 A 
ATOM     14  C   UNL     1       2.767   2.718  19.154  0.00  0.00    +0.000 A 
ATOM     15 CL   UNL     1       3.533   1.375  18.403  0.00  0.00    +0.000 Cl
ATOM     16  C   UNL     1       3.125   4.017  18.785  0.00  0.00    +0.000 A 
ENDBRANCH   9  10
ENDBRANCH   8   9
ENDBRANCH   2   8
BRANCH   6  17
ATOM     17  O   UNL     1       0.128  11.962  22.036  0.00  0.00    +0.000 OA
BRANCH  17  18
ATOM     18  C   UNL     1      -0.906  12.544  22.742  0.00  0.00    +0.000 A 
ATOM     19  C   UNL     1      -2.075  11.816  22.860  0.00  0.00    +0.000 A 
ATOM     20  C   UNL     1      -3.146  12.397  23.529  0.00  0.00    +0.000 A 
ATOM     21  C   UNL     1      -2.978  13.670  24.042  0.00  0.00    +0.000 A 
ATOM     22  N   UNL     1      -1.821  14.352  23.925  0.00  0.00    +0.000 NA
ATOM     23  N   UNL     1      -0.773  13.780  23.267  0.00  0.00    +0.000 NA
ENDBRANCH  17  18
ENDBRANCH   6  17
TORSDOF 5
ENDMDL
MODEL 9
REMARK VINA RESULT:      -7.1      2.178      2.714
REMARK  Name = 
REMARK  5 active torsions:
REMARK  status: ('A' for Active; 'I' for Inactive)
REMARK    1  A    between atoms: C_2  and  C_3
REMARK    2  A    between atoms: C_3  and  C_4
REMARK    3  A    between atoms: C_4  and  C_5
REMARK    4  A    between atoms: C_15  and  O_16
REMARK    5  A    between atoms: O_16  and  C_17
REMARK                            x       y       z     vdW  Elec       q    Type
REMARK                         _______ _______ _______ _____ _____    ______ ____
ROOT
ATOM      1  O   UNL     1       1.435   4.766  21.126  0.00  0.00    +0.000 OA
ATOM      2  C   UNL     1       1.992   5.573  20.380  0.00  0.00    +0.000 C 
ATOM      3  N   UNL     1       2.724   5.161  19.290  0.00  0.00    +0.000 N 
ATOM      4  C   UNL     1       2.834   3.757  18.934  0.00  0.00    +0.000 C 
ATOM      5  C   UNL     1       4.202   3.654  18.291  0.00  0.00    +0.000 C 
ATOM      6  C   UNL     1       4.322   4.976  17.528  0.00  0.00    +0.000 C 
ATOM      7  C   UNL     1       3.607   5.969  18.459  0.00  0.00    +0.000 C 
ENDROOT
BRANCH   2   8
ATOM      8  C   UNL     1       1.830   7.069  20.586  0.00  0.00    +0.000 C 
BRANCH   8   9
ATOM      9  C   UNL     1       0.403   7.410  21.017  0.00  0.00    +0.000 C 
BRANCH   9  10
ATOM     10  C   UNL     1       0.228   8.880  21.302  0.00  0.00    +0.000 A 
ATOM     11  C   UNL     1      -0.413   9.302  22.477  0.00  0.00    +0.000 A 
ATOM     12  C   UNL     1      -0.572  10.662  22.752  0.00  0.00    +0.000 A 
ATOM     13  C   UNL     1      -0.097  11.615  21.850  0.00  0.00    +0.000 A 
ATOM     14  C   UNL     1       0.533  11.207  20.677  0.00  0.00    +0.000 A 
ATOM     15 CL   UNL     1       1.124  12.381  19.570  0.00  0.00    +0.000 Cl
ATOM     16  C   UNL     1       0.694   9.848  20.398  0.00  0.00    +0.000 A 
ENDBRANCH   9  10
ENDBRANCH   8   9
ENDBRANCH   2   8
BRANCH   6  17
ATOM     17  O   UNL     1       5.689   5.357  17.369  0.00  0.00    +0.000 OA
BRANCH  17  18
ATOM     18  C   UNL     1       6.194   5.142  16.102  0.00  0.00    +0.000 A 
ATOM     19  C   UNL     1       5.526   4.234  15.303  0.00  0.00    +0.000 A 
ATOM     20  C   UNL     1       6.039   3.968  14.040  0.00  0.00    +0.000 A 
ATOM     21  C   UNL     1       7.189   4.630  13.653  0.00  0.00    +0.000 A 
ATOM     22  N   UNL     1       7.814   5.522  14.447  0.00  0.00    +0.000 NA
ATOM     23  N   UNL     1       7.308   5.781  15.687  0.00  0.00    +0.000 NA
ENDBRANCH  17  18
ENDBRANCH   6  17
TORSDOF 5
ENDMDL
