MODEL 1
REMARK VINA RESULT:      -6.9      0.000      0.000
REMARK  Name = 
REMARK  12 active torsions:
REMARK  status: ('A' for Active; 'I' for Inactive)
REMARK    1  A    between atoms: C_1  and  N_2
REMARK    2  A    between atoms: N_2  and  C_3
REMARK    3  A    between atoms: C_3  and  C_4
REMARK    4  A    between atoms: C_6  and  N_7
REMARK    5  A    between atoms: C_8  and  N_9
REMARK    6  A    between atoms: N_9  and  C_10
REMARK    7  A    between atoms: C_13  and  C_14
REMARK    8  A    between atoms: C_19  and  O_20
REMARK    9  A    between atoms: O_20  and  C_21
REMARK   10  A    between atoms: C_22  and  C_23
REMARK   11  A    between atoms: C_25  and  C_26
REMARK   12  A    between atoms: C_29  and  C_30
REMARK                            x       y       z     vdW  Elec       q    Type
REMARK                         _______ _______ _______ _____ _____    ______ ____
ROOT
ATOM      1  C   UNL     1       4.229   4.593  17.388  0.00  0.00    +0.000 A 
ATOM      2  C   UNL     1       5.576   4.214  17.180  0.00  0.00    +0.000 A 
ATOM      3  C   UNL     1       6.600   5.145  17.063  0.00  0.00    +0.000 A 
ATOM      4  C   UNL     1       6.300   6.509  17.224  0.00  0.00    +0.000 A 
ATOM      5  C   UNL     1       4.991   6.884  17.585  0.00  0.00    +0.000 A 
ATOM      6  C   UNL     1       3.929   5.956  17.593  0.00  0.00    +0.000 A 
ENDROOT
BRANCH   3   7
ATOM      7  N   UNL     1       7.928   4.678  17.034  0.00  0.00    +0.000 N 
ATOM      8  H   UNL     1       8.017   3.675  17.138  0.00  0.00    +0.000 HD
ATOM      9  H   UNL     1       8.455   5.049  16.251  0.00  0.00    +0.000 HD
ENDBRANCH   3   7
BRANCH   4  10
ATOM     10  N   UNL     1       7.225   7.517  16.853  0.00  0.00    +0.000 N 
ATOM     11  H   UNL     1       7.660   7.385  15.950  0.00  0.00    +0.000 HD
BRANCH  10  12
ATOM     12  C   UNL     1       7.743   8.576  17.630  0.00  0.00    +0.000 A 
ATOM     13  C   UNL     1       7.609   9.927  17.257  0.00  0.00    +0.000 A 
ATOM     14  C   UNL     1       8.320  10.937  17.922  0.00  0.00    +0.000 A 
ATOM     15  C   UNL     1       9.167  10.616  18.982  0.00  0.00    +0.000 A 
ATOM     16  C   UNL     1       9.281   9.279  19.388  0.00  0.00    +0.000 A 
ATOM     17  C   UNL     1       8.575   8.275  18.713  0.00  0.00    +0.000 A 
BRANCH  15  18
ATOM     18  C   UNL     1       9.928  11.636  19.642  0.00  0.00    +0.000 C 
ATOM     19  N   UNL     1      10.544  12.465  20.176  0.00  0.00    +0.000 NA
ENDBRANCH  15  18
ENDBRANCH  10  12
ENDBRANCH   4  10
BRANCH   1  20
ATOM     20  C   UNL     1       3.221   3.466  17.288  0.00  0.00    +0.000 C 
BRANCH  20  22
ATOM     21  C   UNL     1       3.064   1.628  18.871  0.00  0.00    +0.000 C 
ATOM     22  N   UNL     1       3.753   2.154  17.701  0.00  0.00    +0.000 NA
ATOM     23  H   UNL     1       3.664   1.497  16.928  0.00  0.00    +0.000 HD
ENDBRANCH  20  22
ENDBRANCH   1  20
BRANCH   6  24
ATOM     24  O   UNL     1       2.604   6.349  17.755  0.00  0.00    +0.000 OA
BRANCH  24  25
ATOM     25  C   UNL     1       2.206   7.018  18.913  0.00  0.00    +0.000 A 
ATOM     26  C   UNL     1       2.134   6.397  20.182  0.00  0.00    +0.000 A 
ATOM     27  C   UNL     1       2.460   4.948  20.442  0.00  0.00    +0.000 C 
ATOM     28  C   UNL     1       1.651   7.123  21.288  0.00  0.00    +0.000 A 
ATOM     29  C   UNL     1       1.298   8.470  21.175  0.00  0.00    +0.000 A 
ATOM     30  C   UNL     1       1.469   9.112  19.950  0.00  0.00    +0.000 A 
ATOM     31  C   UNL     1       1.925   8.407  18.818  0.00  0.00    +0.000 A 
ATOM     32  C   UNL     1       2.080   9.185  17.537  0.00  0.00    +0.000 C 
BRANCH  29  33
ATOM     33  C   UNL     1       0.736   9.171  22.294  0.00  0.00    +0.000 C 
ATOM     34  N   UNL     1       0.256   9.736  23.186  0.00  0.00    +0.000 NA
ENDBRANCH  29  33
ENDBRANCH  24  25
ENDBRANCH   6  24
TORSDOF 9
ENDMDL
MODEL 2
REMARK VINA RESULT:      -6.7      4.973      8.844
REMARK  Name = 
REMARK  12 active torsions:
REMARK  status: ('A' for Active; 'I' for Inactive)
REMARK    1  A    between atoms: C_1  and  N_2
REMARK    2  A    between atoms: N_2  and  C_3
REMARK    3  A    between atoms: C_3  and  C_4
REMARK    4  A    between atoms: C_6  and  N_7
REMARK    5  A    between atoms: C_8  and  N_9
REMARK    6  A    between atoms: N_9  and  C_10
REMARK    7  A    between atoms: C_13  and  C_14
REMARK    8  A    between atoms: C_19  and  O_20
REMARK    9  A    between atoms: O_20  and  C_21
REMARK   10  A    between atoms: C_22  and  C_23
REMARK   11  A    between atoms: C_25  and  C_26
REMARK   12  A    between atoms: C_29  and  C_30
REMARK                            x       y       z     vdW  Elec       q    Type
REMARK                         _______ _______ _______ _____ _____    ______ ____
ROOT
ATOM      1  C   UNL     1       1.965  14.143  20.762  0.00  0.00    +0.000 A 
ATOM      2  C   UNL     1       2.490  13.913  19.468  0.00  0.00    +0.000 A 
ATOM      3  C   UNL     1       2.034  12.885  18.654  0.00  0.00    +0.000 A 
ATOM      4  C   UNL     1       0.968  12.086  19.101  0.00  0.00    +0.000 A 
ATOM      5  C   UNL     1       0.337  12.406  20.319  0.00  0.00    +0.000 A 
ATOM      6  C   UNL     1       0.867  13.373  21.198  0.00  0.00    +0.000 A 
ENDROOT
BRANCH   3   7
ATOM      7  N   UNL     1       2.487  12.837  17.321  0.00  0.00    +0.000 N 
ATOM      8  H   UNL     1       1.827  12.425  16.674  0.00  0.00    +0.000 HD
ATOM      9  H   UNL     1       2.860  13.725  17.004  0.00  0.00    +0.000 HD
ENDBRANCH   3   7
BRANCH   4  10
ATOM     10  N   UNL     1       0.636  10.868  18.455  0.00  0.00    +0.000 N 
ATOM     11  H   UNL     1      -0.137  10.928  17.805  0.00  0.00    +0.000 HD
BRANCH  10  12
ATOM     12  C   UNL     1       1.114   9.566  18.715  0.00  0.00    +0.000 A 
ATOM     13  C   UNL     1       1.082   8.987  19.997  0.00  0.00    +0.000 A 
ATOM     14  C   UNL     1       1.761   7.791  20.271  0.00  0.00    +0.000 A 
ATOM     15  C   UNL     1       2.473   7.143  19.261  0.00  0.00    +0.000 A 
ATOM     16  C   UNL     1       2.482   7.689  17.970  0.00  0.00    +0.000 A 
ATOM     17  C   UNL     1       1.808   8.889  17.708  0.00  0.00    +0.000 A 
BRANCH  15  18
ATOM     18  C   UNL     1       3.203   5.941  19.541  0.00  0.00    +0.000 C 
ATOM     19  N   UNL     1       3.794   4.966  19.769  0.00  0.00    +0.000 NA
ENDBRANCH  15  18
ENDBRANCH  10  12
ENDBRANCH   4  10
BRANCH   1  20
ATOM     20  C   UNL     1       2.714  15.171  21.586  0.00  0.00    +0.000 C 
BRANCH  20  22
ATOM     21  C   UNL     1       4.922  14.740  22.505  0.00  0.00    +0.000 C 
ATOM     22  N   UNL     1       3.487  14.592  22.701  0.00  0.00    +0.000 NA
ATOM     23  H   UNL     1       3.212  15.045  23.571  0.00  0.00    +0.000 HD
ENDBRANCH  20  22
ENDBRANCH   1  20
BRANCH   6  24
ATOM     24  O   UNL     1       0.367  13.558  22.484  0.00  0.00    +0.000 OA
BRANCH  24  25
ATOM     25  C   UNL     1      -1.001  13.442  22.730  0.00  0.00    +0.000 A 
ATOM     26  C   UNL     1      -1.632  12.214  23.039  0.00  0.00    +0.000 A 
ATOM     27  C   UNL     1      -0.921  10.888  23.126  0.00  0.00    +0.000 C 
ATOM     28  C   UNL     1      -3.031  12.170  23.201  0.00  0.00    +0.000 A 
ATOM     29  C   UNL     1      -3.808  13.328  23.126  0.00  0.00    +0.000 A 
ATOM     30  C   UNL     1      -3.175  14.554  22.928  0.00  0.00    +0.000 A 
ATOM     31  C   UNL     1      -1.781  14.629  22.736  0.00  0.00    +0.000 A 
ATOM     32  C   UNL     1      -1.185  15.997  22.530  0.00  0.00    +0.000 C 
BRANCH  29  33
ATOM     33  C   UNL     1      -5.238  13.251  23.218  0.00  0.00    +0.000 C 
ATOM     34  N   UNL     1      -6.393  13.166  23.273  0.00  0.00    +0.000 NA
ENDBRANCH  29  33
ENDBRANCH  24  25
ENDBRANCH   6  24
TORSDOF 9
ENDMDL
MODEL 3
REMARK VINA RESULT:      -6.6      3.379      7.353
REMARK  Name = 
REMARK  12 active torsions:
REMARK  status: ('A' for Active; 'I' for Inactive)
REMARK    1  A    between atoms: C_1  and  N_2
REMARK    2  A    between atoms: N_2  and  C_3
REMARK    3  A    between atoms: C_3  and  C_4
REMARK    4  A    between atoms: C_6  and  N_7
REMARK    5  A    between atoms: C_8  and  N_9
REMARK    6  A    between atoms: N_9  and  C_10
REMARK    7  A    between atoms: C_13  and  C_14
REMARK    8  A    between atoms: C_19  and  O_20
REMARK    9  A    between atoms: O_20  and  C_21
REMARK   10  A    between atoms: C_22  and  C_23
REMARK   11  A    between atoms: C_25  and  C_26
REMARK   12  A    between atoms: C_29  and  C_30
REMARK                            x       y       z     vdW  Elec       q    Type
REMARK                         _______ _______ _______ _____ _____    ______ ____
ROOT
ATOM      1  C   UNL     1       3.307   3.339  19.727  0.00  0.00    +0.000 A 
ATOM      2  C   UNL     1       2.009   3.661  20.189  0.00  0.00    +0.000 A 
ATOM      3  C   UNL     1       1.613   4.968  20.441  0.00  0.00    +0.000 A 
ATOM      4  C   UNL     1       2.508   6.015  20.162  0.00  0.00    +0.000 A 
ATOM      5  C   UNL     1       3.745   5.716  19.556  0.00  0.00    +0.000 A 
ATOM      6  C   UNL     1       4.194   4.388  19.405  0.00  0.00    +0.000 A 
ENDROOT
BRANCH   3   7
ATOM      7  N   UNL     1       0.256   5.212  20.729  0.00  0.00    +0.000 N 
ATOM      8  H   UNL     1      -0.308   5.427  19.916  0.00  0.00    +0.000 HD
ATOM      9  H   UNL     1      -0.151   4.498  21.323  0.00  0.00    +0.000 HD
ENDBRANCH   3   7
BRANCH   4  10
ATOM     10  N   UNL     1       2.280   7.330  20.641  0.00  0.00    +0.000 N 
ATOM     11  H   UNL     1       2.612   7.504  21.580  0.00  0.00    +0.000 HD
BRANCH  10  12
ATOM     12  C   UNL     1       1.514   8.365  20.064  0.00  0.00    +0.000 A 
ATOM     13  C   UNL     1       0.468   9.009  20.751  0.00  0.00    +0.000 A 
ATOM     14  C   UNL     1      -0.416   9.870  20.085  0.00  0.00    +0.000 A 
ATOM     15  C   UNL     1      -0.260  10.116  18.721  0.00  0.00    +0.000 A 
ATOM     16  C   UNL     1       0.800   9.511  18.032  0.00  0.00    +0.000 A 
ATOM     17  C   UNL     1       1.673   8.645  18.703  0.00  0.00    +0.000 A 
BRANCH  15  18
ATOM     18  C   UNL     1      -1.182  10.965  18.024  0.00  0.00    +0.000 C 
ATOM     19  N   UNL     1      -1.929  11.654  17.459  0.00  0.00    +0.000 NA
ENDBRANCH  15  18
ENDBRANCH  10  12
ENDBRANCH   4  10
BRANCH   1  20
ATOM     20  C   UNL     1       3.632   1.860  19.701  0.00  0.00    +0.000 C 
BRANCH  20  22
ATOM     21  C   UNL     1       5.319   1.049  21.251  0.00  0.00    +0.000 C 
ATOM     22  N   UNL     1       5.060   1.560  19.913  0.00  0.00    +0.000 NA
ATOM     23  H   UNL     1       5.367   0.878  19.221  0.00  0.00    +0.000 HD
ENDBRANCH  20  22
ENDBRANCH   1  20
BRANCH   6  24
ATOM     24  O   UNL     1       5.489   4.088  18.990  0.00  0.00    +0.000 OA
BRANCH  24  25
ATOM     25  C   UNL     1       5.905   4.409  17.698  0.00  0.00    +0.000 A 
ATOM     26  C   UNL     1       5.226   3.977  16.534  0.00  0.00    +0.000 A 
ATOM     27  C   UNL     1       3.991   3.114  16.538  0.00  0.00    +0.000 C 
ATOM     28  C   UNL     1       5.755   4.284  15.264  0.00  0.00    +0.000 A 
ATOM     29  C   UNL     1       6.906   5.062  15.125  0.00  0.00    +0.000 A 
ATOM     30  C   UNL     1       7.515   5.577  16.268  0.00  0.00    +0.000 A 
ATOM     31  C   UNL     1       7.027   5.268  17.553  0.00  0.00    +0.000 A 
ATOM     32  C   UNL     1       7.750   5.871  18.730  0.00  0.00    +0.000 C 
BRANCH  29  33
ATOM     33  C   UNL     1       7.471   5.299  13.827  0.00  0.00    +0.000 C 
ATOM     34  N   UNL     1       7.921   5.462  12.770  0.00  0.00    +0.000 NA
ENDBRANCH  29  33
ENDBRANCH  24  25
ENDBRANCH   6  24
TORSDOF 9
ENDMDL
MODEL 4
REMARK VINA RESULT:      -6.6      2.261      6.502
REMARK  Name = 
REMARK  12 active torsions:
REMARK  status: ('A' for Active; 'I' for Inactive)
REMARK    1  A    between atoms: C_1  and  N_2
REMARK    2  A    between atoms: N_2  and  C_3
REMARK    3  A    between atoms: C_3  and  C_4
REMARK    4  A    between atoms: C_6  and  N_7
REMARK    5  A    between atoms: C_8  and  N_9
REMARK    6  A    between atoms: N_9  and  C_10
REMARK    7  A    between atoms: C_13  and  C_14
REMARK    8  A    between atoms: C_19  and  O_20
REMARK    9  A    between atoms: O_20  and  C_21
REMARK   10  A    between atoms: C_22  and  C_23
REMARK   11  A    between atoms: C_25  and  C_26
REMARK   12  A    between atoms: C_29  and  C_30
REMARK                            x       y       z     vdW  Elec       q    Type
REMARK                         _______ _______ _______ _____ _____    ______ ____
ROOT
ATOM      1  C   UNL     1       3.743   3.312  18.446  0.00  0.00    +0.000 A 
ATOM      2  C   UNL     1       2.477   3.267  19.077  0.00  0.00    +0.000 A 
ATOM      3  C   UNL     1       1.944   4.357  19.752  0.00  0.00    +0.000 A 
ATOM      4  C   UNL     1       2.654   5.570  19.752  0.00  0.00    +0.000 A 
ATOM      5  C   UNL     1       3.839   5.669  18.996  0.00  0.00    +0.000 A 
ATOM      6  C   UNL     1       4.439   4.538  18.406  0.00  0.00    +0.000 A 
ENDROOT
BRANCH   3   7
ATOM      7  N   UNL     1       0.610   4.281  20.197  0.00  0.00    +0.000 N 
ATOM      8  H   UNL     1       0.028   3.654  19.656  0.00  0.00    +0.000 HD
ATOM      9  H   UNL     1       0.541   4.132  21.198  0.00  0.00    +0.000 HD
ENDBRANCH   3   7
BRANCH   4  10
ATOM     10  N   UNL     1       2.312   6.627  20.633  0.00  0.00    +0.000 N 
ATOM     11  H   UNL     1       2.365   6.395  21.616  0.00  0.00    +0.000 HD
BRANCH  10  12
ATOM     12  C   UNL     1       1.753   7.888  20.333  0.00  0.00    +0.000 A 
ATOM     13  C   UNL     1       0.940   8.592  21.240  0.00  0.00    +0.000 A 
ATOM     14  C   UNL     1       0.220   9.727  20.839  0.00  0.00    +0.000 A 
ATOM     15  C   UNL     1       0.312  10.188  19.526  0.00  0.00    +0.000 A 
ATOM     16  C   UNL     1       1.148   9.517  18.622  0.00  0.00    +0.000 A 
ATOM     17  C   UNL     1       1.856   8.379  19.028  0.00  0.00    +0.000 A 
BRANCH  15  18
ATOM     18  C   UNL     1      -0.451  11.324  19.097  0.00  0.00    +0.000 C 
ATOM     19  N   UNL     1      -1.069  12.244  18.747  0.00  0.00    +0.000 NA
ENDBRANCH  15  18
ENDBRANCH  10  12
ENDBRANCH   4  10
BRANCH   1  20
ATOM     20  C   UNL     1       4.255   1.981  17.936  0.00  0.00    +0.000 C 
BRANCH  20  22
ATOM     21  C   UNL     1       4.902   1.293  20.175  0.00  0.00    +0.000 C 
ATOM     22  N   UNL     1       4.228   0.906  18.944  0.00  0.00    +0.000 NA
ATOM     23  H   UNL     1       3.260   0.660  19.148  0.00  0.00    +0.000 HD
ENDBRANCH  20  22
ENDBRANCH   1  20
BRANCH   6  24
ATOM     24  O   UNL     1       5.704   4.589  17.827  0.00  0.00    +0.000 OA
BRANCH  24  25
ATOM     25  C   UNL     1       6.449   5.768  17.865  0.00  0.00    +0.000 A 
ATOM     26  C   UNL     1       7.518   5.981  18.768  0.00  0.00    +0.000 A 
ATOM     27  C   UNL     1       7.975   4.983  19.799  0.00  0.00    +0.000 C 
ATOM     28  C   UNL     1       8.171   7.229  18.792  0.00  0.00    +0.000 A 
ATOM     29  C   UNL     1       7.829   8.246  17.898  0.00  0.00    +0.000 A 
ATOM     30  C   UNL     1       6.848   8.000  16.939  0.00  0.00    +0.000 A 
ATOM     31  C   UNL     1       6.158   6.772  16.904  0.00  0.00    +0.000 A 
ATOM     32  C   UNL     1       5.115   6.596  15.830  0.00  0.00    +0.000 C 
BRANCH  29  33
ATOM     33  C   UNL     1       8.453   9.535  17.990  0.00  0.00    +0.000 C 
ATOM     34  N   UNL     1       8.949  10.583  18.036  0.00  0.00    +0.000 NA
ENDBRANCH  29  33
ENDBRANCH  24  25
ENDBRANCH   6  24
TORSDOF 9
ENDMDL
MODEL 5
REMARK VINA RESULT:      -6.6      4.937      8.943
REMARK  Name = 
REMARK  12 active torsions:
REMARK  status: ('A' for Active; 'I' for Inactive)
REMARK    1  A    between atoms: C_1  and  N_2
REMARK    2  A    between atoms: N_2  and  C_3
REMARK    3  A    between atoms: C_3  and  C_4
REMARK    4  A    between atoms: C_6  and  N_7
REMARK    5  A    between atoms: C_8  and  N_9
REMARK    6  A    between atoms: N_9  and  C_10
REMARK    7  A    between atoms: C_13  and  C_14
REMARK    8  A    between atoms: C_19  and  O_20
REMARK    9  A    between atoms: O_20  and  C_21
REMARK   10  A    between atoms: C_22  and  C_23
REMARK   11  A    between atoms: C_25  and  C_26
REMARK   12  A    between atoms: C_29  and  C_30
REMARK                            x       y       z     vdW  Elec       q    Type
REMARK                         _______ _______ _______ _____ _____    ______ ____
ROOT
ATOM      1  C   UNL     1       1.757  14.030  20.646  0.00  0.00    +0.000 A 
ATOM      2  C   UNL     1       2.293  13.824  19.353  0.00  0.00    +0.000 A 
ATOM      3  C   UNL     1       1.978  12.709  18.587  0.00  0.00    +0.000 A 
ATOM      4  C   UNL     1       1.041  11.786  19.083  0.00  0.00    +0.000 A 
ATOM      5  C   UNL     1       0.386  12.062  20.299  0.00  0.00    +0.000 A 
ATOM      6  C   UNL     1       0.784  13.130  21.130  0.00  0.00    +0.000 A 
ENDROOT
BRANCH   3   7
ATOM      7  N   UNL     1       2.416  12.672  17.249  0.00  0.00    +0.000 N 
ATOM      8  H   UNL     1       3.246  12.111  17.100  0.00  0.00    +0.000 HD
ATOM      9  H   UNL     1       1.667  12.462  16.598  0.00  0.00    +0.000 HD
ENDBRANCH   3   7
BRANCH   4  10
ATOM     10  N   UNL     1       0.878  10.508  18.491  0.00  0.00    +0.000 N 
ATOM     11  H   UNL     1       0.076  10.422  17.881  0.00  0.00    +0.000 HD
BRANCH  10  12
ATOM     12  C   UNL     1       1.569   9.308  18.762  0.00  0.00    +0.000 A 
ATOM     13  C   UNL     1       2.296   8.612  17.778  0.00  0.00    +0.000 A 
ATOM     14  C   UNL     1       2.783   7.319  18.014  0.00  0.00    +0.000 A 
ATOM     15  C   UNL     1       2.566   6.703  19.247  0.00  0.00    +0.000 A 
ATOM     16  C   UNL     1       1.876   7.400  20.249  0.00  0.00    +0.000 A 
ATOM     17  C   UNL     1       1.385   8.688  20.001  0.00  0.00    +0.000 A 
BRANCH  15  18
ATOM     18  C   UNL     1       3.026   5.366  19.485  0.00  0.00    +0.000 C 
ATOM     19  N   UNL     1       3.399   4.282  19.676  0.00  0.00    +0.000 NA
ENDBRANCH  15  18
ENDBRANCH  10  12
ENDBRANCH   4  10
BRANCH   1  20
ATOM     20  C   UNL     1       2.362  15.185  21.416  0.00  0.00    +0.000 C 
BRANCH  20  22
ATOM     21  C   UNL     1       4.580  15.214  22.408  0.00  0.00    +0.000 C 
ATOM     22  N   UNL     1       3.203  14.768  22.554  0.00  0.00    +0.000 NA
ATOM     23  H   UNL     1       2.812  15.142  23.416  0.00  0.00    +0.000 HD
ENDBRANCH  20  22
ENDBRANCH   1  20
BRANCH   6  24
ATOM     24  O   UNL     1       0.279  13.294  22.417  0.00  0.00    +0.000 OA
BRANCH  24  25
ATOM     25  C   UNL     1      -1.098  13.352  22.630  0.00  0.00    +0.000 A 
ATOM     26  C   UNL     1      -1.867  14.522  22.421  0.00  0.00    +0.000 A 
ATOM     27  C   UNL     1      -1.303  15.842  21.963  0.00  0.00    +0.000 C 
ATOM     28  C   UNL     1      -3.241  14.517  22.731  0.00  0.00    +0.000 A 
ATOM     29  C   UNL     1      -3.881  13.361  23.181  0.00  0.00    +0.000 A 
ATOM     30  C   UNL     1      -3.147  12.180  23.285  0.00  0.00    +0.000 A 
ATOM     31  C   UNL     1      -1.766  12.157  23.009  0.00  0.00    +0.000 A 
ATOM     32  C   UNL     1      -1.056  10.835  23.147  0.00  0.00    +0.000 C 
BRANCH  29  33
ATOM     33  C   UNL     1      -5.264  13.397  23.563  0.00  0.00    +0.000 C 
ATOM     34  N   UNL     1      -6.378  13.400  23.887  0.00  0.00    +0.000 NA
ENDBRANCH  29  33
ENDBRANCH  24  25
ENDBRANCH   6  24
TORSDOF 9
ENDMDL
MODEL 6
REMARK VINA RESULT:      -6.5      0.361      1.634
REMARK  Name = 
REMARK  12 active torsions:
REMARK  status: ('A' for Active; 'I' for Inactive)
REMARK    1  A    between atoms: C_1  and  N_2
REMARK    2  A    between atoms: N_2  and  C_3
REMARK    3  A    between atoms: C_3  and  C_4
REMARK    4  A    between atoms: C_6  and  N_7
REMARK    5  A    between atoms: C_8  and  N_9
REMARK    6  A    between atoms: N_9  and  C_10
REMARK    7  A    between atoms: C_13  and  C_14
REMARK    8  A    between atoms: C_19  and  O_20
REMARK    9  A    between atoms: O_20  and  C_21
REMARK   10  A    between atoms: C_22  and  C_23
REMARK   11  A    between atoms: C_25  and  C_26
REMARK   12  A    between atoms: C_29  and  C_30
REMARK                            x       y       z     vdW  Elec       q    Type
REMARK                         _______ _______ _______ _____ _____    ______ ____
ROOT
ATOM      1  C   UNL     1       4.446   4.736  17.728  0.00  0.00    +0.000 A 
ATOM      2  C   UNL     1       5.828   4.450  17.622  0.00  0.00    +0.000 A 
ATOM      3  C   UNL     1       6.781   5.443  17.440  0.00  0.00    +0.000 A 
ATOM      4  C   UNL     1       6.368   6.787  17.430  0.00  0.00    +0.000 A 
ATOM      5  C   UNL     1       5.017   7.090  17.691  0.00  0.00    +0.000 A 
ATOM      6  C   UNL     1       4.032   6.085  17.762  0.00  0.00    +0.000 A 
ENDROOT
BRANCH   3   7
ATOM      7  N   UNL     1       8.141   5.087  17.520  0.00  0.00    +0.000 N 
ATOM      8  H   UNL     1       8.780   5.838  17.289  0.00  0.00    +0.000 HD
ATOM      9  H   UNL     1       8.371   4.616  18.389  0.00  0.00    +0.000 HD
ENDBRANCH   3   7
BRANCH   4  10
ATOM     10  N   UNL     1       7.230   7.821  16.984  0.00  0.00    +0.000 N 
ATOM     11  H   UNL     1       7.578   7.708  16.041  0.00  0.00    +0.000 HD
BRANCH  10  12
ATOM     12  C   UNL     1       7.797   8.884  17.720  0.00  0.00    +0.000 A 
ATOM     13  C   UNL     1       7.703  10.226  17.309  0.00  0.00    +0.000 A 
ATOM     14  C   UNL     1       8.460  11.230  17.931  0.00  0.00    +0.000 A 
ATOM     15  C   UNL     1       9.313  10.911  18.988  0.00  0.00    +0.000 A 
ATOM     16  C   UNL     1       9.388   9.584  19.432  0.00  0.00    +0.000 A 
ATOM     17  C   UNL     1       8.636   8.586  18.798  0.00  0.00    +0.000 A 
BRANCH  15  18
ATOM     18  C   UNL     1      10.119  11.924  19.604  0.00  0.00    +0.000 C 
ATOM     19  N   UNL     1      10.772  12.746  20.105  0.00  0.00    +0.000 NA
ENDBRANCH  15  18
ENDBRANCH  10  12
ENDBRANCH   4  10
BRANCH   1  20
ATOM     20  C   UNL     1       3.536   3.526  17.718  0.00  0.00    +0.000 C 
BRANCH  20  22
ATOM     21  C   UNL     1       3.148   1.336  18.698  0.00  0.00    +0.000 C 
ATOM     22  N   UNL     1       4.147   2.315  18.297  0.00  0.00    +0.000 NA
ATOM     23  H   UNL     1       4.779   1.899  17.615  0.00  0.00    +0.000 HD
ENDBRANCH  20  22
ENDBRANCH   1  20
BRANCH   6  24
ATOM     24  O   UNL     1       2.673   6.382  17.823  0.00  0.00    +0.000 OA
BRANCH  24  25
ATOM     25  C   UNL     1       2.159   7.105  18.900  0.00  0.00    +0.000 A 
ATOM     26  C   UNL     1       1.842   8.482  18.829  0.00  0.00    +0.000 A 
ATOM     27  C   UNL     1       2.029   9.339  17.603  0.00  0.00    +0.000 C 
ATOM     28  C   UNL     1       1.397   9.155  19.984  0.00  0.00    +0.000 A 
ATOM     29  C   UNL     1       1.200   8.478  21.190  0.00  0.00    +0.000 A 
ATOM     30  C   UNL     1       1.410   7.101  21.232  0.00  0.00    +0.000 A 
ATOM     31  C   UNL     1       1.881   6.402  20.103  0.00  0.00    +0.000 A 
ATOM     32  C   UNL     1       2.077   4.915  20.242  0.00  0.00    +0.000 C 
BRANCH  29  33
ATOM     33  C   UNL     1       0.821   9.196  22.373  0.00  0.00    +0.000 C 
ATOM     34  N   UNL     1       0.535   9.761  23.345  0.00  0.00    +0.000 NA
ENDBRANCH  29  33
ENDBRANCH  24  25
ENDBRANCH   6  24
TORSDOF 9
ENDMDL
MODEL 7
REMARK VINA RESULT:      -6.5      5.065      9.158
REMARK  Name = 
REMARK  12 active torsions:
REMARK  status: ('A' for Active; 'I' for Inactive)
REMARK    1  A    between atoms: C_1  and  N_2
REMARK    2  A    between atoms: N_2  and  C_3
REMARK    3  A    between atoms: C_3  and  C_4
REMARK    4  A    between atoms: C_6  and  N_7
REMARK    5  A    between atoms: C_8  and  N_9
REMARK    6  A    between atoms: N_9  and  C_10
REMARK    7  A    between atoms: C_13  and  C_14
REMARK    8  A    between atoms: C_19  and  O_20
REMARK    9  A    between atoms: O_20  and  C_21
REMARK   10  A    between atoms: C_22  and  C_23
REMARK   11  A    between atoms: C_25  and  C_26
REMARK   12  A    between atoms: C_29  and  C_30
REMARK                            x       y       z     vdW  Elec       q    Type
REMARK                         _______ _______ _______ _____ _____    ______ ____
ROOT
ATOM      1  C   UNL     1       1.958  14.088  20.922  0.00  0.00    +0.000 A 
ATOM      2  C   UNL     1       2.568  13.880  19.662  0.00  0.00    +0.000 A 
ATOM      3  C   UNL     1       2.151  12.882  18.791  0.00  0.00    +0.000 A 
ATOM      4  C   UNL     1       1.040  12.095  19.141  0.00  0.00    +0.000 A 
ATOM      5  C   UNL     1       0.331  12.397  20.320  0.00  0.00    +0.000 A 
ATOM      6  C   UNL     1       0.816  13.330  21.259  0.00  0.00    +0.000 A 
ENDROOT
BRANCH   3   7
ATOM      7  N   UNL     1       2.695  12.858  17.493  0.00  0.00    +0.000 N 
ATOM      8  H   UNL     1       2.146  13.359  16.804  0.00  0.00    +0.000 HD
ATOM      9  H   UNL     1       3.679  13.102  17.477  0.00  0.00    +0.000 HD
ENDBRANCH   3   7
BRANCH   4  10
ATOM     10  N   UNL     1       0.730  10.901  18.442  0.00  0.00    +0.000 N 
ATOM     11  H   UNL     1      -0.001  10.992  17.748  0.00  0.00    +0.000 HD
BRANCH  10  12
ATOM     12  C   UNL     1       1.174   9.585  18.691  0.00  0.00    +0.000 A 
ATOM     13  C   UNL     1       1.083   8.981  19.959  0.00  0.00    +0.000 A 
ATOM     14  C   UNL     1       1.729   7.767  20.233  0.00  0.00    +0.000 A 
ATOM     15  C   UNL     1       2.466   7.125  19.237  0.00  0.00    +0.000 A 
ATOM     16  C   UNL     1       2.534   7.697  17.959  0.00  0.00    +0.000 A 
ATOM     17  C   UNL     1       1.893   8.915  17.697  0.00  0.00    +0.000 A 
BRANCH  15  18
ATOM     18  C   UNL     1       3.162   5.904  19.519  0.00  0.00    +0.000 C 
ATOM     19  N   UNL     1       3.726   4.913  19.745  0.00  0.00    +0.000 NA
ENDBRANCH  15  18
ENDBRANCH  10  12
ENDBRANCH   4  10
BRANCH   1  20
ATOM     20  C   UNL     1       2.666  15.078  21.823  0.00  0.00    +0.000 C 
BRANCH  20  22
ATOM     21  C   UNL     1       1.856  17.267  22.504  0.00  0.00    +0.000 C 
ATOM     22  N   UNL     1       1.760  15.829  22.712  0.00  0.00    +0.000 NA
ATOM     23  H   UNL     1       0.802  15.524  22.551  0.00  0.00    +0.000 HD
ENDBRANCH  20  22
ENDBRANCH   1  20
BRANCH   6  24
ATOM     24  O   UNL     1       0.231  13.494  22.512  0.00  0.00    +0.000 OA
BRANCH  24  25
ATOM     25  C   UNL     1      -1.155  13.428  22.654  0.00  0.00    +0.000 A 
ATOM     26  C   UNL     1      -2.015  14.521  22.390  0.00  0.00    +0.000 A 
ATOM     27  C   UNL     1      -1.550  15.882  21.940  0.00  0.00    +0.000 C 
ATOM     28  C   UNL     1      -3.397  14.394  22.629  0.00  0.00    +0.000 A 
ATOM     29  C   UNL     1      -3.952  13.189  23.065  0.00  0.00    +0.000 A 
ATOM     30  C   UNL     1      -3.121  12.081  23.223  0.00  0.00    +0.000 A 
ATOM     31  C   UNL     1      -1.730  12.181  23.017  0.00  0.00    +0.000 A 
ATOM     32  C   UNL     1      -0.912  10.931  23.211  0.00  0.00    +0.000 C 
BRANCH  29  33
ATOM     33  C   UNL     1      -5.350  13.102  23.377  0.00  0.00    +0.000 C 
ATOM     34  N   UNL     1      -6.485  13.020  23.602  0.00  0.00    +0.000 NA
ENDBRANCH  29  33
ENDBRANCH  24  25
ENDBRANCH   6  24
TORSDOF 9
ENDMDL
MODEL 8
REMARK VINA RESULT:      -6.4      0.814      1.198
REMARK  Name = 
REMARK  12 active torsions:
REMARK  status: ('A' for Active; 'I' for Inactive)
REMARK    1  A    between atoms: C_1  and  N_2
REMARK    2  A    between atoms: N_2  and  C_3
REMARK    3  A    between atoms: C_3  and  C_4
REMARK    4  A    between atoms: C_6  and  N_7
REMARK    5  A    between atoms: C_8  and  N_9
REMARK    6  A    between atoms: N_9  and  C_10
REMARK    7  A    between atoms: C_13  and  C_14
REMARK    8  A    between atoms: C_19  and  O_20
REMARK    9  A    between atoms: O_20  and  C_21
REMARK   10  A    between atoms: C_22  and  C_23
REMARK   11  A    between atoms: C_25  and  C_26
REMARK   12  A    between atoms: C_29  and  C_30
REMARK                            x       y       z     vdW  Elec       q    Type
REMARK                         _______ _______ _______ _____ _____    ______ ____
ROOT
ATOM      1  C   UNL     1       4.131   4.328  18.136  0.00  0.00    +0.000 A 
ATOM      2  C   UNL     1       5.490   3.964  17.983  0.00  0.00    +0.000 A 
ATOM      3  C   UNL     1       6.474   4.889  17.656  0.00  0.00    +0.000 A 
ATOM      4  C   UNL     1       6.121   6.244  17.541  0.00  0.00    +0.000 A 
ATOM      5  C   UNL     1       4.802   6.637  17.844  0.00  0.00    +0.000 A 
ATOM      6  C   UNL     1       3.779   5.692  18.063  0.00  0.00    +0.000 A 
ENDROOT
BRANCH   3   7
ATOM      7  N   UNL     1       7.819   4.475  17.696  0.00  0.00    +0.000 N 
ATOM      8  H   UNL     1       8.451   5.066  17.170  0.00  0.00    +0.000 HD
ATOM      9  H   UNL     1       8.140   4.281  18.638  0.00  0.00    +0.000 HD
ENDBRANCH   3   7
BRANCH   4  10
ATOM     10  N   UNL     1       7.000   7.189  16.953  0.00  0.00    +0.000 N 
ATOM     11  H   UNL     1       7.185   7.043  15.969  0.00  0.00    +0.000 HD
BRANCH  10  12
ATOM     12  C   UNL     1       7.775   8.189  17.577  0.00  0.00    +0.000 A 
ATOM     13  C   UNL     1       8.547   7.944  18.728  0.00  0.00    +0.000 A 
ATOM     14  C   UNL     1       9.124   8.997  19.452  0.00  0.00    +0.000 A 
ATOM     15  C   UNL     1       8.954  10.315  19.029  0.00  0.00    +0.000 A 
ATOM     16  C   UNL     1       8.220  10.571  17.862  0.00  0.00    +0.000 A 
ATOM     17  C   UNL     1       7.639   9.514  17.150  0.00  0.00    +0.000 A 
BRANCH  15  18
ATOM     18  C   UNL     1       9.508  11.401  19.784  0.00  0.00    +0.000 C 
ATOM     19  N   UNL     1       9.958  12.282  20.395  0.00  0.00    +0.000 NA
ENDBRANCH  15  18
ENDBRANCH  10  12
ENDBRANCH   4  10
BRANCH   1  20
ATOM     20  C   UNL     1       3.169   3.168  18.290  0.00  0.00    +0.000 C 
BRANCH  20  22
ATOM     21  C   UNL     1       0.779   2.767  18.475  0.00  0.00    +0.000 C 
ATOM     22  N   UNL     1       1.834   3.420  17.715  0.00  0.00    +0.000 NA
ATOM     23  H   UNL     1       1.665   4.424  17.687  0.00  0.00    +0.000 HD
ENDBRANCH  20  22
ENDBRANCH   1  20
BRANCH   6  24
ATOM     24  O   UNL     1       2.441   6.061  18.169  0.00  0.00    +0.000 OA
BRANCH  24  25
ATOM     25  C   UNL     1       2.023   6.902  19.201  0.00  0.00    +0.000 A 
ATOM     26  C   UNL     1       1.833   6.463  20.532  0.00  0.00    +0.000 A 
ATOM     27  C   UNL     1       2.041   5.045  21.000  0.00  0.00    +0.000 C 
ATOM     28  C   UNL     1       1.338   7.360  21.499  0.00  0.00    +0.000 A 
ATOM     29  C   UNL     1       1.088   8.698  21.188  0.00  0.00    +0.000 A 
ATOM     30  C   UNL     1       1.375   9.158  19.904  0.00  0.00    +0.000 A 
ATOM     31  C   UNL     1       1.847   8.281  18.907  0.00  0.00    +0.000 A 
ATOM     32  C   UNL     1       2.132   8.868  17.549  0.00  0.00    +0.000 C 
BRANCH  29  33
ATOM     33  C   UNL     1       0.511   9.576  22.166  0.00  0.00    +0.000 C 
ATOM     34  N   UNL     1       0.024  10.266  22.961  0.00  0.00    +0.000 NA
ENDBRANCH  29  33
ENDBRANCH  24  25
ENDBRANCH   6  24
TORSDOF 9
ENDMDL
MODEL 9
REMARK VINA RESULT:      -6.4      5.952     10.666
REMARK  Name = 
REMARK  12 active torsions:
REMARK  status: ('A' for Active; 'I' for Inactive)
REMARK    1  A    between atoms: C_1  and  N_2
REMARK    2  A    between atoms: N_2  and  C_3
REMARK    3  A    between atoms: C_3  and  C_4
REMARK    4  A    between atoms: C_6  and  N_7
REMARK    5  A    between atoms: C_8  and  N_9
REMARK    6  A    between atoms: N_9  and  C_10
REMARK    7  A    between atoms: C_13  and  C_14
REMARK    8  A    between atoms: C_19  and  O_20
REMARK    9  A    between atoms: O_20  and  C_21
REMARK   10  A    between atoms: C_22  and  C_23
REMARK   11  A    between atoms: C_25  and  C_26
REMARK   12  A    between atoms: C_29  and  C_30
REMARK                            x       y       z     vdW  Elec       q    Type
REMARK                         _______ _______ _______ _____ _____    ______ ____
ROOT
ATOM      1  C   UNL     1      -0.075  10.463  18.764  0.00  0.00    +0.000 A 
ATOM      2  C   UNL     1      -0.917  10.033  17.711  0.00  0.00    +0.000 A 
ATOM      3  C   UNL     1      -2.171  10.588  17.490  0.00  0.00    +0.000 A 
ATOM      4  C   UNL     1      -2.592  11.660  18.296  0.00  0.00    +0.000 A 
ATOM      5  C   UNL     1      -1.698  12.195  19.244  0.00  0.00    +0.000 A 
ATOM      6  C   UNL     1      -0.474  11.566  19.548  0.00  0.00    +0.000 A 
ENDROOT
BRANCH   3   7
ATOM      7  N   UNL     1      -2.865  10.224  16.320  0.00  0.00    +0.000 N 
ATOM      8  H   UNL     1      -3.860  10.089  16.453  0.00  0.00    +0.000 HD
ATOM      9  H   UNL     1      -2.642  10.823  15.532  0.00  0.00    +0.000 HD
ENDBRANCH   3   7
BRANCH   4  10
ATOM     10  N   UNL     1      -3.943  12.089  18.308  0.00  0.00    +0.000 N 
ATOM     11  H   UNL     1      -4.306  12.378  17.410  0.00  0.00    +0.000 HD
BRANCH  10  12
ATOM     12  C   UNL     1      -4.790  12.326  19.412  0.00  0.00    +0.000 A 
ATOM     13  C   UNL     1      -4.322  12.863  20.626  0.00  0.00    +0.000 A 
ATOM     14  C   UNL     1      -5.131  12.880  21.772  0.00  0.00    +0.000 A 
ATOM     15  C   UNL     1      -6.429  12.373  21.720  0.00  0.00    +0.000 A 
ATOM     16  C   UNL     1      -6.921  11.869  20.508  0.00  0.00    +0.000 A 
ATOM     17  C   UNL     1      -6.103  11.848  19.371  0.00  0.00    +0.000 A 
BRANCH  15  18
ATOM     18  C   UNL     1      -7.250  12.350  22.896  0.00  0.00    +0.000 C 
ATOM     19  N   UNL     1      -7.917  12.330  23.848  0.00  0.00    +0.000 NA
ENDBRANCH  15  18
ENDBRANCH  10  12
ENDBRANCH   4  10
BRANCH   1  20
ATOM     20  C   UNL     1       1.162   9.616  18.984  0.00  0.00    +0.000 C 
BRANCH  20  22
ATOM     21  C   UNL     1       2.552   8.051  17.750  0.00  0.00    +0.000 C 
ATOM     22  N   UNL     1       1.944   9.373  17.758  0.00  0.00    +0.000 NA
ATOM     23  H   UNL     1       1.337   9.476  16.946  0.00  0.00    +0.000 HD
ENDBRANCH  20  22
ENDBRANCH   1  20
BRANCH   6  24
ATOM     24  O   UNL     1       0.324  11.973  20.614  0.00  0.00    +0.000 OA
BRANCH  24  25
ATOM     25  C   UNL     1      -0.168  12.880  21.554  0.00  0.00    +0.000 A 
ATOM     26  C   UNL     1      -0.943  12.494  22.673  0.00  0.00    +0.000 A 
ATOM     27  C   UNL     1      -1.345  11.075  22.984  0.00  0.00    +0.000 C 
ATOM     28  C   UNL     1      -1.463  13.480  23.534  0.00  0.00    +0.000 A 
ATOM     29  C   UNL     1      -1.178  14.834  23.344  0.00  0.00    +0.000 A 
ATOM     30  C   UNL     1      -0.328  15.206  22.304  0.00  0.00    +0.000 A 
ATOM     31  C   UNL     1       0.188  14.247  21.410  0.00  0.00    +0.000 A 
ATOM     32  C   UNL     1       1.100  14.742  20.317  0.00  0.00    +0.000 C 
BRANCH  29  33
ATOM     33  C   UNL     1      -1.780  15.829  24.186  0.00  0.00    +0.000 C 
ATOM     34  N   UNL     1      -2.258  16.617  24.890  0.00  0.00    +0.000 NA
ENDBRANCH  29  33
ENDBRANCH  24  25
ENDBRANCH   6  24
TORSDOF 9
ENDMDL
