MODEL 1
REMARK VINA RESULT:      -7.9      0.000      0.000
REMARK  Name = 
REMARK  8 active torsions:
REMARK  status: ('A' for Active; 'I' for Inactive)
REMARK    1  A    between atoms: N_2  and  C_4
REMARK    2  A    between atoms: C_6  and  O_7
REMARK    3  A    between atoms: C_8  and  O_9
REMARK    4  A    between atoms: C_11  and  C_12
REMARK    5  A    between atoms: C_12  and  C_13
REMARK    6  A    between atoms: C_15  and  O_16
REMARK    7  A    between atoms: C_17  and  O_18
REMARK    8  A    between atoms: C_20  and  N_21
REMARK                            x       y       z     vdW  Elec       q    Type
REMARK                         _______ _______ _______ _____ _____    ______ ____
ROOT
ATOM      1  C   UNL     1       4.576   3.826  17.634  0.00  0.00    +0.000 C 
ENDROOT
BRANCH   1   7
ATOM      2  C   UNL     1       2.332   4.006  18.929  0.00  0.00    +0.000 A 
ATOM      3  C   UNL     1       1.524   3.738  20.048  0.00  0.00    +0.000 A 
ATOM      4  C   UNL     1       2.033   2.929  21.050  0.00  0.00    +0.000 A 
ATOM      5  C   UNL     1       3.313   2.390  20.933  0.00  0.00    +0.000 A 
ATOM      6  C   UNL     1       4.122   2.678  19.837  0.00  0.00    +0.000 A 
ATOM      7  C   UNL     1       3.649   3.511  18.805  0.00  0.00    +0.000 A 
BRANCH   2   9
ATOM      8  O   UNL     1       1.987   5.975  17.797  0.00  0.00    +0.000 OA
ATOM      9  N   UNL     1       1.716   4.770  17.857  0.00  0.00    +0.000 N 
ATOM     10  O   UNL     1       0.924   4.166  17.124  0.00  0.00    +0.000 OA
ENDBRANCH   2   9
BRANCH   4  11
ATOM     11  O   UNL     1       1.313   2.615  22.168  0.00  0.00    +0.000 OA
ATOM     12  H   UNL     1       0.460   2.227  21.901  0.00  0.00    +0.000 HD
ENDBRANCH   4  11
BRANCH   5  13
ATOM     13  O   UNL     1       3.792   1.561  21.906  0.00  0.00    +0.000 OA
ATOM     14  H   UNL     1       3.618   2.027  22.748  0.00  0.00    +0.000 HD
ENDBRANCH   5  13
ENDBRANCH   1   7
BRANCH   1  15
ATOM     15  C   UNL     1       5.727   4.796  17.882  0.00  0.00    +0.000 A 
ATOM     16  C   UNL     1       6.433   4.731  19.107  0.00  0.00    +0.000 A 
ATOM     17  C   UNL     1       7.415   5.663  19.417  0.00  0.00    +0.000 A 
ATOM     18  C   UNL     1       7.772   6.643  18.504  0.00  0.00    +0.000 A 
ATOM     19  C   UNL     1       7.156   6.713  17.269  0.00  0.00    +0.000 A 
ATOM     20  C   UNL     1       6.128   5.798  16.948  0.00  0.00    +0.000 A 
BRANCH  20  21
ATOM     21  N   UNL     1       5.505   5.968  15.614  0.00  0.00    +0.000 N 
ATOM     22  O   UNL     1       4.910   7.025  15.372  0.00  0.00    +0.000 OA
ATOM     23  O   UNL     1       5.612   5.037  14.805  0.00  0.00    +0.000 OA
ENDBRANCH  20  21
BRANCH  17  24
ATOM     24  O   UNL     1       8.035   5.671  20.635  0.00  0.00    +0.000 OA
ATOM     25  H   UNL     1       7.622   6.363  21.183  0.00  0.00    +0.000 HD
ENDBRANCH  17  24
BRANCH  18  26
ATOM     26  O   UNL     1       8.722   7.564  18.832  0.00  0.00    +0.000 OA
ATOM     27  H   UNL     1       8.241   8.254  19.333  0.00  0.00    +0.000 HD
ENDBRANCH  18  26
ENDBRANCH   1  15
TORSDOF 8
ENDMDL
MODEL 2
REMARK VINA RESULT:      -7.3      2.400      6.115
REMARK  Name = 
REMARK  8 active torsions:
REMARK  status: ('A' for Active; 'I' for Inactive)
REMARK    1  A    between atoms: N_2  and  C_4
REMARK    2  A    between atoms: C_6  and  O_7
REMARK    3  A    between atoms: C_8  and  O_9
REMARK    4  A    between atoms: C_11  and  C_12
REMARK    5  A    between atoms: C_12  and  C_13
REMARK    6  A    between atoms: C_15  and  O_16
REMARK    7  A    between atoms: C_17  and  O_18
REMARK    8  A    between atoms: C_20  and  N_21
REMARK                            x       y       z     vdW  Elec       q    Type
REMARK                         _______ _______ _______ _____ _____    ______ ____
ROOT
ATOM      1  C   UNL     1       3.099   3.890  17.596  0.00  0.00    +0.000 C 
ENDROOT
BRANCH   1   7
ATOM      2  C   UNL     1       5.611   4.549  17.550  0.00  0.00    +0.000 A 
ATOM      3  C   UNL     1       6.794   4.869  16.860  0.00  0.00    +0.000 A 
ATOM      4  C   UNL     1       6.791   4.795  15.476  0.00  0.00    +0.000 A 
ATOM      5  C   UNL     1       5.640   4.399  14.799  0.00  0.00    +0.000 A 
ATOM      6  C   UNL     1       4.461   4.108  15.480  0.00  0.00    +0.000 A 
ATOM      7  C   UNL     1       4.416   4.189  16.886  0.00  0.00    +0.000 A 
BRANCH   2   9
ATOM      8  O   UNL     1       5.973   5.605  19.557  0.00  0.00    +0.000 OA
ATOM      9  N   UNL     1       5.693   4.537  19.000  0.00  0.00    +0.000 N 
ATOM     10  O   UNL     1       5.532   3.446  19.560  0.00  0.00    +0.000 OA
ENDBRANCH   2   9
BRANCH   4  11
ATOM     11  O   UNL     1       7.899   5.084  14.731  0.00  0.00    +0.000 OA
ATOM     12  H   UNL     1       8.686   4.716  15.171  0.00  0.00    +0.000 HD
ENDBRANCH   4  11
BRANCH   5  13
ATOM     13  O   UNL     1       5.658   4.289  13.438  0.00  0.00    +0.000 OA
ATOM     14  H   UNL     1       4.898   4.821  13.128  0.00  0.00    +0.000 HD
ENDBRANCH   5  13
ENDBRANCH   1   7
BRANCH   1  15
ATOM     15  C   UNL     1       2.576   4.927  18.585  0.00  0.00    +0.000 A 
ATOM     16  C   UNL     1       2.580   6.293  18.220  0.00  0.00    +0.000 A 
ATOM     17  C   UNL     1       2.215   7.279  19.129  0.00  0.00    +0.000 A 
ATOM     18  C   UNL     1       1.774   6.940  20.398  0.00  0.00    +0.000 A 
ATOM     19  C   UNL     1       1.693   5.615  20.786  0.00  0.00    +0.000 A 
ATOM     20  C   UNL     1       2.096   4.599  19.889  0.00  0.00    +0.000 A 
BRANCH  20  21
ATOM     21  N   UNL     1       2.003   3.212  20.401  0.00  0.00    +0.000 N 
ATOM     22  O   UNL     1       2.828   2.838  21.244  0.00  0.00    +0.000 OA
ATOM     23  O   UNL     1       1.098   2.493  19.957  0.00  0.00    +0.000 OA
ENDBRANCH  20  21
BRANCH  17  24
ATOM     24  O   UNL     1       2.308   8.607  18.820  0.00  0.00    +0.000 OA
ATOM     25  H   UNL     1       2.689   8.686  17.927  0.00  0.00    +0.000 HD
ENDBRANCH  17  24
BRANCH  18  26
ATOM     26  O   UNL     1       1.440   7.918  21.286  0.00  0.00    +0.000 OA
ATOM     27  H   UNL     1       0.480   8.058  21.157  0.00  0.00    +0.000 HD
ENDBRANCH  18  26
ENDBRANCH   1  15
TORSDOF 8
ENDMDL
MODEL 3
REMARK VINA RESULT:      -7.2      1.381      1.468
REMARK  Name = 
REMARK  8 active torsions:
REMARK  status: ('A' for Active; 'I' for Inactive)
REMARK    1  A    between atoms: N_2  and  C_4
REMARK    2  A    between atoms: C_6  and  O_7
REMARK    3  A    between atoms: C_8  and  O_9
REMARK    4  A    between atoms: C_11  and  C_12
REMARK    5  A    between atoms: C_12  and  C_13
REMARK    6  A    between atoms: C_15  and  O_16
REMARK    7  A    between atoms: C_17  and  O_18
REMARK    8  A    between atoms: C_20  and  N_21
REMARK                            x       y       z     vdW  Elec       q    Type
REMARK                         _______ _______ _______ _____ _____    ______ ____
ROOT
ATOM      1  C   UNL     1       4.724   3.935  17.100  0.00  0.00    +0.000 C 
ENDROOT
BRANCH   1   7
ATOM      2  C   UNL     1       2.865   4.786  18.701  0.00  0.00    +0.000 A 
ATOM      3  C   UNL     1       1.814   4.561  19.609  0.00  0.00    +0.000 A 
ATOM      4  C   UNL     1       1.412   3.255  19.841  0.00  0.00    +0.000 A 
ATOM      5  C   UNL     1       2.035   2.202  19.175  0.00  0.00    +0.000 A 
ATOM      6  C   UNL     1       3.093   2.423  18.297  0.00  0.00    +0.000 A 
ATOM      7  C   UNL     1       3.545   3.734  18.047  0.00  0.00    +0.000 A 
BRANCH   2   9
ATOM      8  O   UNL     1       3.820   6.798  19.264  0.00  0.00    +0.000 OA
ATOM      9  N   UNL     1       3.178   6.174  18.410  0.00  0.00    +0.000 N 
ATOM     10  O   UNL     1       2.729   6.639  17.356  0.00  0.00    +0.000 OA
ENDBRANCH   2   9
BRANCH   4  11
ATOM     11  O   UNL     1       0.397   2.949  20.702  0.00  0.00    +0.000 OA
ATOM     12  H   UNL     1       0.507   2.033  21.015  0.00  0.00    +0.000 HD
ENDBRANCH   4  11
BRANCH   5  13
ATOM     13  O   UNL     1       1.606   0.922  19.378  0.00  0.00    +0.000 OA
ATOM     14  H   UNL     1       0.649   0.937  19.175  0.00  0.00    +0.000 HD
ENDBRANCH   5  13
ENDBRANCH   1   7
BRANCH   1  15
ATOM     15  C   UNL     1       5.844   4.869  17.552  0.00  0.00    +0.000 A 
ATOM     16  C   UNL     1       6.407   4.700  18.838  0.00  0.00    +0.000 A 
ATOM     17  C   UNL     1       7.351   5.593  19.329  0.00  0.00    +0.000 A 
ATOM     18  C   UNL     1       7.811   6.638  18.543  0.00  0.00    +0.000 A 
ATOM     19  C   UNL     1       7.338   6.812  17.256  0.00  0.00    +0.000 A 
ATOM     20  C   UNL     1       6.349   5.937  16.751  0.00  0.00    +0.000 A 
BRANCH  20  21
ATOM     21  N   UNL     1       5.880   6.219  15.374  0.00  0.00    +0.000 N 
ATOM     22  O   UNL     1       5.021   7.095  15.212  0.00  0.00    +0.000 OA
ATOM     23  O   UNL     1       6.374   5.559  14.449  0.00  0.00    +0.000 OA
ENDBRANCH  20  21
BRANCH  17  24
ATOM     24  O   UNL     1       7.831   5.497  20.605  0.00  0.00    +0.000 OA
ATOM     25  H   UNL     1       8.017   6.398  20.929  0.00  0.00    +0.000 HD
ENDBRANCH  17  24
BRANCH  18  26
ATOM     26  O   UNL     1       8.721   7.519  19.046  0.00  0.00    +0.000 OA
ATOM     27  H   UNL     1       8.186   8.196  19.508  0.00  0.00    +0.000 HD
ENDBRANCH  18  26
ENDBRANCH   1  15
TORSDOF 8
ENDMDL
MODEL 4
REMARK VINA RESULT:      -7.2      0.395      5.641
REMARK  Name = 
REMARK  8 active torsions:
REMARK  status: ('A' for Active; 'I' for Inactive)
REMARK    1  A    between atoms: N_2  and  C_4
REMARK    2  A    between atoms: C_6  and  O_7
REMARK    3  A    between atoms: C_8  and  O_9
REMARK    4  A    between atoms: C_11  and  C_12
REMARK    5  A    between atoms: C_12  and  C_13
REMARK    6  A    between atoms: C_15  and  O_16
REMARK    7  A    between atoms: C_17  and  O_18
REMARK    8  A    between atoms: C_20  and  N_21
REMARK                            x       y       z     vdW  Elec       q    Type
REMARK                         _______ _______ _______ _____ _____    ______ ____
ROOT
ATOM      1  C   UNL     1       4.511   3.977  17.796  0.00  0.00    +0.000 C 
ENDROOT
BRANCH   1   7
ATOM      2  C   UNL     1       5.984   6.037  17.217  0.00  0.00    +0.000 A 
ATOM      3  C   UNL     1       7.062   6.901  17.479  0.00  0.00    +0.000 A 
ATOM      4  C   UNL     1       7.789   6.712  18.644  0.00  0.00    +0.000 A 
ATOM      5  C   UNL     1       7.442   5.695  19.529  0.00  0.00    +0.000 A 
ATOM      6  C   UNL     1       6.391   4.823  19.256  0.00  0.00    +0.000 A 
ATOM      7  C   UNL     1       5.638   4.968  18.075  0.00  0.00    +0.000 A 
BRANCH   2   9
ATOM      8  O   UNL     1       5.533   5.817  14.976  0.00  0.00    +0.000 OA
ATOM      9  N   UNL     1       5.186   6.341  16.041  0.00  0.00    +0.000 N 
ATOM     10  O   UNL     1       4.257   7.144  16.188  0.00  0.00    +0.000 OA
ENDBRANCH   2   9
BRANCH   4  11
ATOM     11  O   UNL     1       8.848   7.510  18.976  0.00  0.00    +0.000 OA
ATOM     12  H   UNL     1       8.537   8.231  19.553  0.00  0.00    +0.000 HD
ENDBRANCH   4  11
BRANCH   5  13
ATOM     13  O   UNL     1       8.139   5.542  20.693  0.00  0.00    +0.000 OA
ATOM     14  H   UNL     1       9.080   5.511  20.427  0.00  0.00    +0.000 HD
ENDBRANCH   5  13
ENDBRANCH   1   7
BRANCH   1  15
ATOM     15  C   UNL     1       3.536   3.677  18.931  0.00  0.00    +0.000 A 
ATOM     16  C   UNL     1       3.983   2.931  20.046  0.00  0.00    +0.000 A 
ATOM     17  C   UNL     1       3.102   2.543  21.048  0.00  0.00    +0.000 A 
ATOM     18  C   UNL     1       1.772   2.934  21.009  0.00  0.00    +0.000 A 
ATOM     19  C   UNL     1       1.298   3.715  19.972  0.00  0.00    +0.000 A 
ATOM     20  C   UNL     1       2.169   4.088  18.923  0.00  0.00    +0.000 A 
BRANCH  20  21
ATOM     21  N   UNL     1       1.566   4.899  17.839  0.00  0.00    +0.000 N 
ATOM     22  O   UNL     1       1.793   6.115  17.817  0.00  0.00    +0.000 OA
ATOM     23  O   UNL     1       0.862   4.315  17.005  0.00  0.00    +0.000 OA
ENDBRANCH  20  21
BRANCH  17  24
ATOM     24  O   UNL     1       3.499   1.742  22.081  0.00  0.00    +0.000 OA
ATOM     25  H   UNL     1       3.340   0.815  21.825  0.00  0.00    +0.000 HD
ENDBRANCH  17  24
BRANCH  18  26
ATOM     26  O   UNL     1       0.915   2.528  21.987  0.00  0.00    +0.000 OA
ATOM     27  H   UNL     1       1.456   1.970  22.581  0.00  0.00    +0.000 HD
ENDBRANCH  18  26
ENDBRANCH   1  15
TORSDOF 8
ENDMDL
MODEL 5
REMARK VINA RESULT:      -7.2      2.459      6.310
REMARK  Name = 
REMARK  8 active torsions:
REMARK  status: ('A' for Active; 'I' for Inactive)
REMARK    1  A    between atoms: N_2  and  C_4
REMARK    2  A    between atoms: C_6  and  O_7
REMARK    3  A    between atoms: C_8  and  O_9
REMARK    4  A    between atoms: C_11  and  C_12
REMARK    5  A    between atoms: C_12  and  C_13
REMARK    6  A    between atoms: C_15  and  O_16
REMARK    7  A    between atoms: C_17  and  O_18
REMARK    8  A    between atoms: C_20  and  N_21
REMARK                            x       y       z     vdW  Elec       q    Type
REMARK                         _______ _______ _______ _____ _____    ______ ____
ROOT
ATOM      1  C   UNL     1       4.544   3.482  17.188  0.00  0.00    +0.000 C 
ENDROOT
BRANCH   1   7
ATOM      2  C   UNL     1       6.607   4.865  16.428  0.00  0.00    +0.000 A 
ATOM      3  C   UNL     1       7.451   5.381  15.428  0.00  0.00    +0.000 A 
ATOM      4  C   UNL     1       7.216   5.013  14.113  0.00  0.00    +0.000 A 
ATOM      5  C   UNL     1       6.174   4.142  13.804  0.00  0.00    +0.000 A 
ATOM      6  C   UNL     1       5.322   3.652  14.791  0.00  0.00    +0.000 A 
ATOM      7  C   UNL     1       5.514   4.016  16.139  0.00  0.00    +0.000 A 
BRANCH   2   9
ATOM      8  O   UNL     1       6.774   6.361  18.163  0.00  0.00    +0.000 OA
ATOM      9  N   UNL     1       6.956   5.193  17.799  0.00  0.00    +0.000 N 
ATOM     10  O   UNL     1       7.462   4.291  18.478  0.00  0.00    +0.000 OA
ENDBRANCH   2   9
BRANCH   4  11
ATOM     11  O   UNL     1       7.992   5.464  13.083  0.00  0.00    +0.000 OA
ATOM     12  H   UNL     1       7.541   6.208  12.645  0.00  0.00    +0.000 HD
ENDBRANCH   4  11
BRANCH   5  13
ATOM     13  O   UNL     1       5.976   3.752  12.511  0.00  0.00    +0.000 OA
ATOM     14  H   UNL     1       5.062   4.028  12.298  0.00  0.00    +0.000 HD
ENDBRANCH   5  13
ENDBRANCH   1   7
BRANCH   1  15
ATOM     15  C   UNL     1       3.812   4.499  18.059  0.00  0.00    +0.000 A 
ATOM     16  C   UNL     1       3.466   5.756  17.511  0.00  0.00    +0.000 A 
ATOM     17  C   UNL     1       2.897   6.749  18.299  0.00  0.00    +0.000 A 
ATOM     18  C   UNL     1       2.597   6.508  19.630  0.00  0.00    +0.000 A 
ATOM     19  C   UNL     1       2.859   5.276  20.200  0.00  0.00    +0.000 A 
ATOM     20  C   UNL     1       3.473   4.265  19.426  0.00  0.00    +0.000 A 
BRANCH  20  21
ATOM     21  N   UNL     1       3.743   2.989  20.128  0.00  0.00    +0.000 N 
ATOM     22  O   UNL     1       2.800   2.409  20.682  0.00  0.00    +0.000 OA
ATOM     23  O   UNL     1       4.906   2.563  20.125  0.00  0.00    +0.000 OA
ENDBRANCH  20  21
BRANCH  17  24
ATOM     24  O   UNL     1       2.647   7.999  17.806  0.00  0.00    +0.000 OA
ATOM     25  H   UNL     1       3.446   8.309  17.342  0.00  0.00    +0.000 HD
ENDBRANCH  17  24
BRANCH  18  26
ATOM     26  O   UNL     1       2.060   7.499  20.397  0.00  0.00    +0.000 OA
ATOM     27  H   UNL     1       1.129   7.232  20.536  0.00  0.00    +0.000 HD
ENDBRANCH  18  26
ENDBRANCH   1  15
TORSDOF 8
ENDMDL
MODEL 6
REMARK VINA RESULT:      -7.1      2.555      4.531
REMARK  Name = 
REMARK  8 active torsions:
REMARK  status: ('A' for Active; 'I' for Inactive)
REMARK    1  A    between atoms: N_2  and  C_4
REMARK    2  A    between atoms: C_6  and  O_7
REMARK    3  A    between atoms: C_8  and  O_9
REMARK    4  A    between atoms: C_11  and  C_12
REMARK    5  A    between atoms: C_12  and  C_13
REMARK    6  A    between atoms: C_15  and  O_16
REMARK    7  A    between atoms: C_17  and  O_18
REMARK    8  A    between atoms: C_20  and  N_21
REMARK                            x       y       z     vdW  Elec       q    Type
REMARK                         _______ _______ _______ _____ _____    ______ ____
ROOT
ATOM      1  C   UNL     1       4.774   3.486  17.062  0.00  0.00    +0.000 C 
ENDROOT
BRANCH   1   7
ATOM      2  C   UNL     1       3.617   4.234  19.263  0.00  0.00    +0.000 A 
ATOM      3  C   UNL     1       2.933   5.186  20.040  0.00  0.00    +0.000 A 
ATOM      4  C   UNL     1       2.735   6.451  19.510  0.00  0.00    +0.000 A 
ATOM      5  C   UNL     1       3.218   6.762  18.241  0.00  0.00    +0.000 A 
ATOM      6  C   UNL     1       3.872   5.812  17.462  0.00  0.00    +0.000 A 
ATOM      7  C   UNL     1       4.078   4.508  17.956  0.00  0.00    +0.000 A 
BRANCH   2   9
ATOM      8  O   UNL     1       5.080   2.694  20.137  0.00  0.00    +0.000 OA
ATOM      9  N   UNL     1       3.895   2.959  19.902  0.00  0.00    +0.000 N 
ATOM     10  O   UNL     1       2.929   2.215  20.108  0.00  0.00    +0.000 OA
ENDBRANCH   2   9
BRANCH   4  11
ATOM     11  O   UNL     1       2.085   7.434  20.200  0.00  0.00    +0.000 OA
ATOM     12  H   UNL     1       2.722   8.130  20.443  0.00  0.00    +0.000 HD
ENDBRANCH   4  11
BRANCH   5  13
ATOM     13  O   UNL     1       3.055   8.022  17.743  0.00  0.00    +0.000 OA
ATOM     14  H   UNL     1       2.657   7.898  16.858  0.00  0.00    +0.000 HD
ENDBRANCH   5  13
ENDBRANCH   1   7
BRANCH   1  15
ATOM     15  C   UNL     1       5.610   4.015  15.899  0.00  0.00    +0.000 A 
ATOM     16  C   UNL     1       5.210   3.727  14.574  0.00  0.00    +0.000 A 
ATOM     17  C   UNL     1       5.998   4.096  13.491  0.00  0.00    +0.000 A 
ATOM     18  C   UNL     1       7.169   4.814  13.683  0.00  0.00    +0.000 A 
ATOM     19  C   UNL     1       7.575   5.174  14.954  0.00  0.00    +0.000 A 
ATOM     20  C   UNL     1       6.807   4.775  16.072  0.00  0.00    +0.000 A 
BRANCH  20  21
ATOM     21  N   UNL     1       7.334   5.179  17.396  0.00  0.00    +0.000 N 
ATOM     22  O   UNL     1       7.177   6.351  17.760  0.00  0.00    +0.000 OA
ATOM     23  O   UNL     1       7.908   4.318  18.076  0.00  0.00    +0.000 OA
ENDBRANCH  20  21
BRANCH  17  24
ATOM     24  O   UNL     1       5.672   3.740  12.213  0.00  0.00    +0.000 OA
ATOM     25  H   UNL     1       4.725   3.509  12.194  0.00  0.00    +0.000 HD
ENDBRANCH  17  24
BRANCH  18  26
ATOM     26  O   UNL     1       7.943   5.150  12.613  0.00  0.00    +0.000 OA
ATOM     27  H   UNL     1       7.399   4.932  11.830  0.00  0.00    +0.000 HD
ENDBRANCH  18  26
ENDBRANCH   1  15
TORSDOF 8
ENDMDL
MODEL 7
REMARK VINA RESULT:      -7.1      1.545      2.429
REMARK  Name = 
REMARK  8 active torsions:
REMARK  status: ('A' for Active; 'I' for Inactive)
REMARK    1  A    between atoms: N_2  and  C_4
REMARK    2  A    between atoms: C_6  and  O_7
REMARK    3  A    between atoms: C_8  and  O_9
REMARK    4  A    between atoms: C_11  and  C_12
REMARK    5  A    between atoms: C_12  and  C_13
REMARK    6  A    between atoms: C_15  and  O_16
REMARK    7  A    between atoms: C_17  and  O_18
REMARK    8  A    between atoms: C_20  and  N_21
REMARK                            x       y       z     vdW  Elec       q    Type
REMARK                         _______ _______ _______ _____ _____    ______ ____
ROOT
ATOM      1  C   UNL     1       4.345   4.011  17.565  0.00  0.00    +0.000 C 
ENDROOT
BRANCH   1   7
ATOM      2  C   UNL     1       3.358   2.477  19.414  0.00  0.00    +0.000 A 
ATOM      3  C   UNL     1       2.443   2.218  20.449  0.00  0.00    +0.000 A 
ATOM      4  C   UNL     1       1.577   3.230  20.832  0.00  0.00    +0.000 A 
ATOM      5  C   UNL     1       1.631   4.472  20.205  0.00  0.00    +0.000 A 
ATOM      6  C   UNL     1       2.520   4.720  19.162  0.00  0.00    +0.000 A 
ATOM      7  C   UNL     1       3.405   3.712  18.730  0.00  0.00    +0.000 A 
BRANCH   2   9
ATOM      8  O   UNL     1       4.118   0.749  18.105  0.00  0.00    +0.000 OA
ATOM      9  N   UNL     1       4.316   1.424  19.122  0.00  0.00    +0.000 N 
ATOM     10  O   UNL     1       5.222   1.248  19.946  0.00  0.00    +0.000 OA
ENDBRANCH   2   9
BRANCH   4  11
ATOM     11  O   UNL     1       0.660   3.063  21.832  0.00  0.00    +0.000 OA
ATOM     12  H   UNL     1       0.313   3.934  22.096  0.00  0.00    +0.000 HD
ENDBRANCH   4  11
BRANCH   5  13
ATOM     13  O   UNL     1       0.802   5.476  20.615  0.00  0.00    +0.000 OA
ATOM     14  H   UNL     1       0.259   5.696  19.832  0.00  0.00    +0.000 HD
ENDBRANCH   5  13
ENDBRANCH   1   7
BRANCH   1  15
ATOM     15  C   UNL     1       5.556   4.897  17.843  0.00  0.00    +0.000 A 
ATOM     16  C   UNL     1       6.223   4.786  19.085  0.00  0.00    +0.000 A 
ATOM     17  C   UNL     1       7.261   5.646  19.420  0.00  0.00    +0.000 A 
ATOM     18  C   UNL     1       7.711   6.596  18.516  0.00  0.00    +0.000 A 
ATOM     19  C   UNL     1       7.134   6.706  17.265  0.00  0.00    +0.000 A 
ATOM     20  C   UNL     1       6.051   5.866  16.918  0.00  0.00    +0.000 A 
BRANCH  20  21
ATOM     21  N   UNL     1       5.476   6.076  15.569  0.00  0.00    +0.000 N 
ATOM     22  O   UNL     1       4.859   7.125  15.348  0.00  0.00    +0.000 OA
ATOM     23  O   UNL     1       5.645   5.186  14.725  0.00  0.00    +0.000 OA
ENDBRANCH  20  21
BRANCH  17  24
ATOM     24  O   UNL     1       7.849   5.613  20.653  0.00  0.00    +0.000 OA
ATOM     25  H   UNL     1       8.750   5.255  20.552  0.00  0.00    +0.000 HD
ENDBRANCH  17  24
BRANCH  18  26
ATOM     26  O   UNL     1       8.715   7.448  18.867  0.00  0.00    +0.000 OA
ATOM     27  H   UNL     1       9.525   6.898  18.861  0.00  0.00    +0.000 HD
ENDBRANCH  18  26
ENDBRANCH   1  15
TORSDOF 8
ENDMDL
MODEL 8
REMARK VINA RESULT:      -7.0      1.960      3.362
REMARK  Name = 
REMARK  8 active torsions:
REMARK  status: ('A' for Active; 'I' for Inactive)
REMARK    1  A    between atoms: N_2  and  C_4
REMARK    2  A    between atoms: C_6  and  O_7
REMARK    3  A    between atoms: C_8  and  O_9
REMARK    4  A    between atoms: C_11  and  C_12
REMARK    5  A    between atoms: C_12  and  C_13
REMARK    6  A    between atoms: C_15  and  O_16
REMARK    7  A    between atoms: C_17  and  O_18
REMARK    8  A    between atoms: C_20  and  N_21
REMARK                            x       y       z     vdW  Elec       q    Type
REMARK                         _______ _______ _______ _____ _____    ______ ____
ROOT
ATOM      1  C   UNL     1       4.990   5.096  19.130  0.00  0.00    +0.000 C 
ENDROOT
BRANCH   1   7
ATOM      2  C   UNL     1       2.402   5.146  19.340  0.00  0.00    +0.000 A 
ATOM      3  C   UNL     1       1.156   4.503  19.439  0.00  0.00    +0.000 A 
ATOM      4  C   UNL     1       1.118   3.121  19.347  0.00  0.00    +0.000 A 
ATOM      5  C   UNL     1       2.294   2.400  19.150  0.00  0.00    +0.000 A 
ATOM      6  C   UNL     1       3.531   3.035  19.078  0.00  0.00    +0.000 A 
ATOM      7  C   UNL     1       3.615   4.438  19.185  0.00  0.00    +0.000 A 
BRANCH   2   9
ATOM      8  O   UNL     1       2.156   7.163  20.412  0.00  0.00    +0.000 OA
ATOM      9  N   UNL     1       2.379   6.599  19.334  0.00  0.00    +0.000 N 
ATOM     10  O   UNL     1       2.527   7.156  18.239  0.00  0.00    +0.000 OA
ENDBRANCH   2   9
BRANCH   4  11
ATOM     11  O   UNL     1      -0.051   2.418  19.428  0.00  0.00    +0.000 OA
ATOM     12  H   UNL     1      -0.391   2.467  20.339  0.00  0.00    +0.000 HD
ENDBRANCH   4  11
BRANCH   5  13
ATOM     13  O   UNL     1       2.243   1.042  19.019  0.00  0.00    +0.000 OA
ATOM     14  H   UNL     1       1.766   0.726  19.813  0.00  0.00    +0.000 HD
ENDBRANCH   5  13
ENDBRANCH   1   7
BRANCH   1  15
ATOM     15  C   UNL     1       5.666   5.213  17.767  0.00  0.00    +0.000 A 
ATOM     16  C   UNL     1       4.952   4.830  16.608  0.00  0.00    +0.000 A 
ATOM     17  C   UNL     1       5.565   4.818  15.361  0.00  0.00    +0.000 A 
ATOM     18  C   UNL     1       6.876   5.243  15.215  0.00  0.00    +0.000 A 
ATOM     19  C   UNL     1       7.600   5.685  16.307  0.00  0.00    +0.000 A 
ATOM     20  C   UNL     1       7.007   5.669  17.590  0.00  0.00    +0.000 A 
BRANCH  20  21
ATOM     21  N   UNL     1       7.867   6.131  18.704  0.00  0.00    +0.000 N 
ATOM     22  O   UNL     1       8.261   7.304  18.697  0.00  0.00    +0.000 OA
ATOM     23  O   UNL     1       8.149   5.316  19.592  0.00  0.00    +0.000 OA
ENDBRANCH  20  21
BRANCH  17  24
ATOM     24  O   UNL     1       4.917   4.358  14.249  0.00  0.00    +0.000 OA
ATOM     25  H   UNL     1       4.177   4.963  14.056  0.00  0.00    +0.000 HD
ENDBRANCH  17  24
BRANCH  18  26
ATOM     26  O   UNL     1       7.471   5.205  13.989  0.00  0.00    +0.000 OA
ATOM     27  H   UNL     1       6.736   5.301  13.350  0.00  0.00    +0.000 HD
ENDBRANCH  18  26
ENDBRANCH   1  15
TORSDOF 8
ENDMDL
MODEL 9
REMARK VINA RESULT:      -7.0      1.984      6.459
REMARK  Name = 
REMARK  8 active torsions:
REMARK  status: ('A' for Active; 'I' for Inactive)
REMARK    1  A    between atoms: N_2  and  C_4
REMARK    2  A    between atoms: C_6  and  O_7
REMARK    3  A    between atoms: C_8  and  O_9
REMARK    4  A    between atoms: C_11  and  C_12
REMARK    5  A    between atoms: C_12  and  C_13
REMARK    6  A    between atoms: C_15  and  O_16
REMARK    7  A    between atoms: C_17  and  O_18
REMARK    8  A    between atoms: C_20  and  N_21
REMARK                            x       y       z     vdW  Elec       q    Type
REMARK                         _______ _______ _______ _____ _____    ______ ____
ROOT
ATOM      1  C   UNL     1       4.978   5.268  19.172  0.00  0.00    +0.000 C 
ENDROOT
BRANCH   1   7
ATOM      2  C   UNL     1       7.006   5.688  17.604  0.00  0.00    +0.000 A 
ATOM      3  C   UNL     1       7.603   5.705  16.331  0.00  0.00    +0.000 A 
ATOM      4  C   UNL     1       6.869   5.240  15.252  0.00  0.00    +0.000 A 
ATOM      5  C   UNL     1       5.575   4.759  15.440  0.00  0.00    +0.000 A 
ATOM      6  C   UNL     1       4.974   4.767  16.696  0.00  0.00    +0.000 A 
ATOM      7  C   UNL     1       5.679   5.249  17.816  0.00  0.00    +0.000 A 
BRANCH   2   9
ATOM      8  O   UNL     1       8.254   7.252  18.731  0.00  0.00    +0.000 OA
ATOM      9  N   UNL     1       7.850   6.083  18.718  0.00  0.00    +0.000 N 
ATOM     10  O   UNL     1       8.145   5.203  19.535  0.00  0.00    +0.000 OA
ENDBRANCH   2   9
BRANCH   4  11
ATOM     11  O   UNL     1       7.376   5.217  13.983  0.00  0.00    +0.000 OA
ATOM     12  H   UNL     1       6.728   4.803  13.386  0.00  0.00    +0.000 HD
ENDBRANCH   4  11
BRANCH   5  13
ATOM     13  O   UNL     1       4.874   4.265  14.378  0.00  0.00    +0.000 OA
ATOM     14  H   UNL     1       4.702   3.327  14.598  0.00  0.00    +0.000 HD
ENDBRANCH   5  13
ENDBRANCH   1   7
BRANCH   1  15
ATOM     15  C   UNL     1       3.643   4.537  19.289  0.00  0.00    +0.000 A 
ATOM     16  C   UNL     1       3.615   3.128  19.175  0.00  0.00    +0.000 A 
ATOM     17  C   UNL     1       2.411   2.434  19.167  0.00  0.00    +0.000 A 
ATOM     18  C   UNL     1       1.210   3.104  19.336  0.00  0.00    +0.000 A 
ATOM     19  C   UNL     1       1.185   4.475  19.513  0.00  0.00    +0.000 A 
ATOM     20  C   UNL     1       2.396   5.204  19.485  0.00  0.00    +0.000 A 
BRANCH  20  21
ATOM     21  N   UNL     1       2.271   6.671  19.652  0.00  0.00    +0.000 N 
ATOM     22  O   UNL     1       2.575   7.400  18.700  0.00  0.00    +0.000 OA
ATOM     23  O   UNL     1       1.865   7.095  20.742  0.00  0.00    +0.000 OA
ENDBRANCH  20  21
BRANCH  17  24
ATOM     24  O   UNL     1       2.364   1.084  18.961  0.00  0.00    +0.000 OA
ATOM     25  H   UNL     1       1.550   0.742  19.371  0.00  0.00    +0.000 HD
ENDBRANCH  17  24
BRANCH  18  26
ATOM     26  O   UNL     1       0.036   2.413  19.305  0.00  0.00    +0.000 OA
ATOM     27  H   UNL     1       0.280   1.490  19.522  0.00  0.00    +0.000 HD
ENDBRANCH  18  26
ENDBRANCH   1  15
TORSDOF 8
ENDMDL
