MODEL 1
REMARK VINA RESULT:      -8.4      0.000      0.000
REMARK  Name = 
REMARK  14 active torsions:
REMARK  status: ('A' for Active; 'I' for Inactive)
REMARK    1  A    between atoms: C_1  and  C_2
REMARK    2  A    between atoms: N_4  and  C_5
REMARK    3  A    between atoms: C_5  and  C_6
REMARK    4  A    between atoms: C_5  and  C_15
REMARK    5  A    between atoms: C_6  and  C_7
REMARK    6  A    between atoms: C_15  and  O_16
REMARK    7  A    between atoms: C_15  and  C_17
REMARK    8  A    between atoms: C_17  and  N_18
REMARK    9  A    between atoms: N_18  and  C_19
REMARK   10  A    between atoms: C_19  and  C_20
REMARK   11  A    between atoms: C_23  and  C_24
REMARK   12  A    between atoms: C_24  and  C_25
REMARK   13  A    between atoms: C_24  and  C_26
REMARK   14  A    between atoms: C_24  and  C_27
REMARK                            x       y       z     vdW  Elec       q    Type
REMARK                         _______ _______ _______ _____ _____    ______ ____
ROOT
ATOM      1  C   UNL     1       5.765   4.936  18.354  0.00  0.00    +0.000 C 
ENDROOT
BRANCH   1   2
ATOM      2  O   UNL     1       6.831   4.199  18.998  0.00  0.00    +0.000 OA
ATOM      3  H   UNL     1       6.458   3.371  19.344  0.00  0.00    +0.000 HD
ENDBRANCH   1   2
BRANCH   1   4
ATOM      4  C   UNL     1       6.270   5.445  16.953  0.00  0.00    +0.000 C 
BRANCH   4   8
ATOM      5  C   UNL     1       7.843   8.881  17.722  0.00  0.00    +0.000 C 
ATOM      6  C   UNL     1       7.633   7.391  17.828  0.00  0.00    +0.000 C 
ATOM      7  O   UNL     1       8.281   6.699  18.621  0.00  0.00    +0.000 OA
ATOM      8  N   UNL     1       6.673   6.872  16.989  0.00  0.00    +0.000 N 
ATOM      9  H   UNL     1       6.198   7.512  16.360  0.00  0.00    +0.000 HD
ENDBRANCH   4   8
BRANCH   4  10
ATOM     10  C   UNL     1       5.289   5.156  15.787  0.00  0.00    +0.000 C 
BRANCH  10  11
ATOM     11  C   UNL     1       5.981   4.703  14.519  0.00  0.00    +0.000 A 
ATOM     12  C   UNL     1       7.189   5.304  14.131  0.00  0.00    +0.000 A 
ATOM     13  C   UNL     1       7.742   5.027  12.883  0.00  0.00    +0.000 A 
ATOM     14  F   UNL     1       8.847   5.677  12.499  0.00  0.00    +0.000 F 
ATOM     15  C   UNL     1       7.152   4.113  12.023  0.00  0.00    +0.000 A 
ATOM     16  C   UNL     1       6.016   3.437  12.451  0.00  0.00    +0.000 A 
ATOM     17  F   UNL     1       5.472   2.508  11.659  0.00  0.00    +0.000 F 
ATOM     18  C   UNL     1       5.424   3.725  13.684  0.00  0.00    +0.000 A 
ENDBRANCH  10  11
ENDBRANCH   4  10
ENDBRANCH   1   4
BRANCH   1  19
ATOM     19  C   UNL     1       4.514   4.006  18.318  0.00  0.00    +0.000 C 
BRANCH  19  20
ATOM     20  N   UNL     1       3.744   3.917  19.578  0.00  0.00    +0.000 NA
ATOM     21  H   UNL     1       4.279   4.375  20.316  0.00  0.00    +0.000 HD
BRANCH  20  22
ATOM     22  C   UNL     1       2.390   4.551  19.514  0.00  0.00    +0.000 C 
ATOM     23  C   UNL     1       1.314   3.836  18.695  0.00  0.00    +0.000 C 
ATOM     24  C   UNL     1       1.247   3.782  20.177  0.00  0.00    +0.000 C 
BRANCH  22  25
ATOM     25  C   UNL     1       2.269   6.113  19.620  0.00  0.00    +0.000 A 
ATOM     26  N   UNL     1       2.569   6.926  18.622  0.00  0.00    +0.000 NA
ATOM     27  C   UNL     1       2.084   8.145  19.020  0.00  0.00    +0.000 A 
ATOM     28  C   UNL     1       1.540   8.057  20.282  0.00  0.00    +0.000 A 
ATOM     29  O   UNL     1       1.707   6.759  20.696  0.00  0.00    +0.000 OA
BRANCH  28  30
ATOM     30  C   UNL     1       0.779   8.982  21.191  0.00  0.00    +0.000 C 
ATOM     31  C   UNL     1      -0.576   8.374  21.596  0.00  0.00    +0.000 C 
ATOM     32  C   UNL     1       1.603   9.230  22.466  0.00  0.00    +0.000 C 
ATOM     33  C   UNL     1       0.520  10.331  20.502  0.00  0.00    +0.000 C 
ENDBRANCH  28  30
ENDBRANCH  22  25
ENDBRANCH  20  22
ENDBRANCH  19  20
ENDBRANCH   1  19
TORSDOF 10
ENDMDL
MODEL 2
REMARK VINA RESULT:      -8.3      4.236      8.286
REMARK  Name = 
REMARK  14 active torsions:
REMARK  status: ('A' for Active; 'I' for Inactive)
REMARK    1  A    between atoms: C_1  and  C_2
REMARK    2  A    between atoms: N_4  and  C_5
REMARK    3  A    between atoms: C_5  and  C_6
REMARK    4  A    between atoms: C_5  and  C_15
REMARK    5  A    between atoms: C_6  and  C_7
REMARK    6  A    between atoms: C_15  and  O_16
REMARK    7  A    between atoms: C_15  and  C_17
REMARK    8  A    between atoms: C_17  and  N_18
REMARK    9  A    between atoms: N_18  and  C_19
REMARK   10  A    between atoms: C_19  and  C_20
REMARK   11  A    between atoms: C_23  and  C_24
REMARK   12  A    between atoms: C_24  and  C_25
REMARK   13  A    between atoms: C_24  and  C_26
REMARK   14  A    between atoms: C_24  and  C_27
REMARK                            x       y       z     vdW  Elec       q    Type
REMARK                         _______ _______ _______ _____ _____    ______ ____
ROOT
ATOM      1  C   UNL     1       2.339   7.211  19.774  0.00  0.00    +0.000 C 
ENDROOT
BRANCH   1   2
ATOM      2  O   UNL     1       2.467   6.794  18.393  0.00  0.00    +0.000 OA
ATOM      3  H   UNL     1       2.977   5.968  18.376  0.00  0.00    +0.000 HD
ENDBRANCH   1   2
BRANCH   1   4
ATOM      4  C   UNL     1       1.650   8.625  19.818  0.00  0.00    +0.000 C 
BRANCH   4   8
ATOM      5  C   UNL     1      -0.608   9.472  22.828  0.00  0.00    +0.000 C 
ATOM      6  C   UNL     1       0.545   9.622  21.867  0.00  0.00    +0.000 C 
ATOM      7  O   UNL     1       1.389  10.515  22.001  0.00  0.00    +0.000 OA
ATOM      8  N   UNL     1       0.586   8.696  20.850  0.00  0.00    +0.000 N 
ATOM      9  H   UNL     1      -0.156   8.004  20.809  0.00  0.00    +0.000 HD
ENDBRANCH   4   8
BRANCH   4  10
ATOM     10  C   UNL     1       1.146   9.124  18.440  0.00  0.00    +0.000 C 
BRANCH  10  11
ATOM     11  C   UNL     1       0.488  10.487  18.499  0.00  0.00    +0.000 A 
ATOM     12  C   UNL     1      -0.892  10.605  18.274  0.00  0.00    +0.000 A 
ATOM     13  C   UNL     1      -1.479  11.861  18.146  0.00  0.00    +0.000 A 
ATOM     14  F   UNL     1      -2.779  11.949  17.846  0.00  0.00    +0.000 F 
ATOM     15  C   UNL     1      -0.732  13.020  18.297  0.00  0.00    +0.000 A 
ATOM     16  C   UNL     1       0.613  12.905  18.627  0.00  0.00    +0.000 A 
ATOM     17  F   UNL     1       1.331  14.013  18.837  0.00  0.00    +0.000 F 
ATOM     18  C   UNL     1       1.229  11.655  18.724  0.00  0.00    +0.000 A 
ENDBRANCH  10  11
ENDBRANCH   4  10
ENDBRANCH   1   4
BRANCH   1  19
ATOM     19  C   UNL     1       1.588   6.077  20.535  0.00  0.00    +0.000 C 
BRANCH  19  20
ATOM     20  N   UNL     1       2.447   5.104  21.248  0.00  0.00    +0.000 NA
ATOM     21  H   UNL     1       2.099   5.006  22.202  0.00  0.00    +0.000 HD
BRANCH  20  22
ATOM     22  C   UNL     1       2.487   3.748  20.619  0.00  0.00    +0.000 C 
ATOM     23  C   UNL     1       2.619   2.541  21.549  0.00  0.00    +0.000 C 
ATOM     24  C   UNL     1       1.306   2.823  20.917  0.00  0.00    +0.000 C 
BRANCH  22  25
ATOM     25  C   UNL     1       3.086   3.590  19.176  0.00  0.00    +0.000 A 
ATOM     26  N   UNL     1       2.397   3.101  18.160  0.00  0.00    +0.000 NA
ATOM     27  C   UNL     1       3.168   3.377  17.061  0.00  0.00    +0.000 A 
ATOM     28  C   UNL     1       4.342   3.987  17.440  0.00  0.00    +0.000 A 
ATOM     29  O   UNL     1       4.319   4.078  18.809  0.00  0.00    +0.000 OA
BRANCH  28  30
ATOM     30  C   UNL     1       5.508   4.613  16.723  0.00  0.00    +0.000 C 
ATOM     31  C   UNL     1       5.926   3.775  15.503  0.00  0.00    +0.000 C 
ATOM     32  C   UNL     1       5.109   6.017  16.238  0.00  0.00    +0.000 C 
ATOM     33  C   UNL     1       6.718   4.741  17.662  0.00  0.00    +0.000 C 
ENDBRANCH  28  30
ENDBRANCH  22  25
ENDBRANCH  20  22
ENDBRANCH  19  20
ENDBRANCH   1  19
TORSDOF 10
ENDMDL
MODEL 3
REMARK VINA RESULT:      -8.2      4.297      8.186
REMARK  Name = 
REMARK  14 active torsions:
REMARK  status: ('A' for Active; 'I' for Inactive)
REMARK    1  A    between atoms: C_1  and  C_2
REMARK    2  A    between atoms: N_4  and  C_5
REMARK    3  A    between atoms: C_5  and  C_6
REMARK    4  A    between atoms: C_5  and  C_15
REMARK    5  A    between atoms: C_6  and  C_7
REMARK    6  A    between atoms: C_15  and  O_16
REMARK    7  A    between atoms: C_15  and  C_17
REMARK    8  A    between atoms: C_17  and  N_18
REMARK    9  A    between atoms: N_18  and  C_19
REMARK   10  A    between atoms: C_19  and  C_20
REMARK   11  A    between atoms: C_23  and  C_24
REMARK   12  A    between atoms: C_24  and  C_25
REMARK   13  A    between atoms: C_24  and  C_26
REMARK   14  A    between atoms: C_24  and  C_27
REMARK                            x       y       z     vdW  Elec       q    Type
REMARK                         _______ _______ _______ _____ _____    ______ ____
ROOT
ATOM      1  C   UNL     1       2.337   7.267  19.792  0.00  0.00    +0.000 C 
ENDROOT
BRANCH   1   2
ATOM      2  O   UNL     1       2.489   6.824  18.422  0.00  0.00    +0.000 OA
ATOM      3  H   UNL     1       3.193   6.155  18.399  0.00  0.00    +0.000 HD
ENDBRANCH   1   2
BRANCH   1   4
ATOM      4  C   UNL     1       1.660   8.688  19.797  0.00  0.00    +0.000 C 
BRANCH   4   8
ATOM      5  C   UNL     1      -0.509   9.250  22.936  0.00  0.00    +0.000 C 
ATOM      6  C   UNL     1       0.725   9.296  22.070  0.00  0.00    +0.000 C 
ATOM      7  O   UNL     1       1.793   9.757  22.487  0.00  0.00    +0.000 OA
ATOM      8  N   UNL     1       0.573   8.785  20.801  0.00  0.00    +0.000 N 
ATOM      9  H   UNL     1      -0.344   8.438  20.538  0.00  0.00    +0.000 HD
ENDBRANCH   4   8
BRANCH   4  10
ATOM     10  C   UNL     1       1.193   9.168  18.399  0.00  0.00    +0.000 C 
BRANCH  10  11
ATOM     11  C   UNL     1       0.458  10.492  18.434  0.00  0.00    +0.000 A 
ATOM     12  C   UNL     1       1.146  11.661  18.796  0.00  0.00    +0.000 A 
ATOM     13  C   UNL     1       0.450  12.848  19.006  0.00  0.00    +0.000 A 
ATOM     14  F   UNL     1       1.113  13.928  19.436  0.00  0.00    +0.000 F 
ATOM     15  C   UNL     1      -0.920  12.922  18.806  0.00  0.00    +0.000 A 
ATOM     16  C   UNL     1      -1.585  11.794  18.342  0.00  0.00    +0.000 A 
ATOM     17  F   UNL     1      -2.895  11.867  18.085  0.00  0.00    +0.000 F 
ATOM     18  C   UNL     1      -0.913  10.582  18.160  0.00  0.00    +0.000 A 
ENDBRANCH  10  11
ENDBRANCH   4  10
ENDBRANCH   1   4
BRANCH   1  19
ATOM     19  C   UNL     1       1.561   6.153  20.557  0.00  0.00    +0.000 C 
BRANCH  19  20
ATOM     20  N   UNL     1       2.397   5.163  21.272  0.00  0.00    +0.000 NA
ATOM     21  H   UNL     1       2.044   5.072  22.225  0.00  0.00    +0.000 HD
BRANCH  20  22
ATOM     22  C   UNL     1       2.411   3.806  20.643  0.00  0.00    +0.000 C 
ATOM     23  C   UNL     1       2.505   2.596  21.575  0.00  0.00    +0.000 C 
ATOM     24  C   UNL     1       1.206   2.910  20.930  0.00  0.00    +0.000 C 
BRANCH  22  25
ATOM     25  C   UNL     1       3.020   3.634  19.206  0.00  0.00    +0.000 A 
ATOM     26  N   UNL     1       2.334   3.143  18.188  0.00  0.00    +0.000 NA
ATOM     27  C   UNL     1       3.115   3.406  17.093  0.00  0.00    +0.000 A 
ATOM     28  C   UNL     1       4.291   4.011  17.477  0.00  0.00    +0.000 A 
ATOM     29  O   UNL     1       4.258   4.112  18.845  0.00  0.00    +0.000 OA
BRANCH  28  30
ATOM     30  C   UNL     1       5.467   4.624  16.765  0.00  0.00    +0.000 C 
ATOM     31  C   UNL     1       5.894   3.770  15.558  0.00  0.00    +0.000 C 
ATOM     32  C   UNL     1       5.078   6.024  16.259  0.00  0.00    +0.000 C 
ATOM     33  C   UNL     1       6.668   4.759  17.714  0.00  0.00    +0.000 C 
ENDBRANCH  28  30
ENDBRANCH  22  25
ENDBRANCH  20  22
ENDBRANCH  19  20
ENDBRANCH   1  19
TORSDOF 10
ENDMDL
MODEL 4
REMARK VINA RESULT:      -8.1      4.363      8.208
REMARK  Name = 
REMARK  14 active torsions:
REMARK  status: ('A' for Active; 'I' for Inactive)
REMARK    1  A    between atoms: C_1  and  C_2
REMARK    2  A    between atoms: N_4  and  C_5
REMARK    3  A    between atoms: C_5  and  C_6
REMARK    4  A    between atoms: C_5  and  C_15
REMARK    5  A    between atoms: C_6  and  C_7
REMARK    6  A    between atoms: C_15  and  O_16
REMARK    7  A    between atoms: C_15  and  C_17
REMARK    8  A    between atoms: C_17  and  N_18
REMARK    9  A    between atoms: N_18  and  C_19
REMARK   10  A    between atoms: C_19  and  C_20
REMARK   11  A    between atoms: C_23  and  C_24
REMARK   12  A    between atoms: C_24  and  C_25
REMARK   13  A    between atoms: C_24  and  C_26
REMARK   14  A    between atoms: C_24  and  C_27
REMARK                            x       y       z     vdW  Elec       q    Type
REMARK                         _______ _______ _______ _____ _____    ______ ____
ROOT
ATOM      1  C   UNL     1       2.292   7.504  19.774  0.00  0.00    +0.000 C 
ENDROOT
BRANCH   1   2
ATOM      2  O   UNL     1       2.629   7.097  18.427  0.00  0.00    +0.000 OA
ATOM      3  H   UNL     1       3.596   7.017  18.370  0.00  0.00    +0.000 HD
ENDBRANCH   1   2
BRANCH   1   4
ATOM      4  C   UNL     1       1.579   8.906  19.721  0.00  0.00    +0.000 C 
BRANCH   4   8
ATOM      5  C   UNL     1      -0.599   9.386  22.868  0.00  0.00    +0.000 C 
ATOM      6  C   UNL     1       0.653   9.394  22.027  0.00  0.00    +0.000 C 
ATOM      7  O   UNL     1       1.749   9.716  22.499  0.00  0.00    +0.000 OA
ATOM      8  N   UNL     1       0.483   9.013  20.715  0.00  0.00    +0.000 N 
ATOM      9  H   UNL     1      -0.455   8.777  20.409  0.00  0.00    +0.000 HD
ENDBRANCH   4   8
BRANCH   4  10
ATOM     10  C   UNL     1       1.109   9.320  18.304  0.00  0.00    +0.000 C 
BRANCH  10  11
ATOM     11  C   UNL     1      -0.099  10.234  18.315  0.00  0.00    +0.000 A 
ATOM     12  C   UNL     1       0.028  11.551  18.783  0.00  0.00    +0.000 A 
ATOM     13  C   UNL     1      -1.102  12.343  18.967  0.00  0.00    +0.000 A 
ATOM     14  F   UNL     1      -0.966  13.564  19.496  0.00  0.00    +0.000 F 
ATOM     15  C   UNL     1      -2.366  11.876  18.640  0.00  0.00    +0.000 A 
ATOM     16  C   UNL     1      -2.481  10.612  18.075  0.00  0.00    +0.000 A 
ATOM     17  F   UNL     1      -3.687  10.172  17.697  0.00  0.00    +0.000 F 
ATOM     18  C   UNL     1      -1.365   9.787  17.915  0.00  0.00    +0.000 A 
ENDBRANCH  10  11
ENDBRANCH   4  10
ENDBRANCH   1   4
BRANCH   1  19
ATOM     19  C   UNL     1       1.456   6.352  20.412  0.00  0.00    +0.000 C 
BRANCH  19  20
ATOM     20  N   UNL     1       2.210   5.409  21.268  0.00  0.00    +0.000 NA
ATOM     21  H   UNL     1       1.669   5.240  22.115  0.00  0.00    +0.000 HD
BRANCH  20  22
ATOM     22  C   UNL     1       2.498   4.092  20.620  0.00  0.00    +0.000 C 
ATOM     23  C   UNL     1       2.376   2.837  21.487  0.00  0.00    +0.000 C 
ATOM     24  C   UNL     1       1.319   3.127  20.487  0.00  0.00    +0.000 C 
BRANCH  22  25
ATOM     25  C   UNL     1       3.525   4.028  19.435  0.00  0.00    +0.000 A 
ATOM     26  N   UNL     1       3.255   3.447  18.279  0.00  0.00    +0.000 NA
ATOM     27  C   UNL     1       4.279   3.837  17.455  0.00  0.00    +0.000 A 
ATOM     28  C   UNL     1       5.183   4.612  18.146  0.00  0.00    +0.000 A 
ATOM     29  O   UNL     1       4.730   4.694  19.438  0.00  0.00    +0.000 OA
BRANCH  28  30
ATOM     30  C   UNL     1       6.412   5.404  17.791  0.00  0.00    +0.000 C 
ATOM     31  C   UNL     1       7.285   5.662  19.031  0.00  0.00    +0.000 C 
ATOM     32  C   UNL     1       7.243   4.616  16.764  0.00  0.00    +0.000 C 
ATOM     33  C   UNL     1       6.027   6.760  17.177  0.00  0.00    +0.000 C 
ENDBRANCH  28  30
ENDBRANCH  22  25
ENDBRANCH  20  22
ENDBRANCH  19  20
ENDBRANCH   1  19
TORSDOF 10
ENDMDL
MODEL 5
REMARK VINA RESULT:      -8.1      0.988      1.296
REMARK  Name = 
REMARK  14 active torsions:
REMARK  status: ('A' for Active; 'I' for Inactive)
REMARK    1  A    between atoms: C_1  and  C_2
REMARK    2  A    between atoms: N_4  and  C_5
REMARK    3  A    between atoms: C_5  and  C_6
REMARK    4  A    between atoms: C_5  and  C_15
REMARK    5  A    between atoms: C_6  and  C_7
REMARK    6  A    between atoms: C_15  and  O_16
REMARK    7  A    between atoms: C_15  and  C_17
REMARK    8  A    between atoms: C_17  and  N_18
REMARK    9  A    between atoms: N_18  and  C_19
REMARK   10  A    between atoms: C_19  and  C_20
REMARK   11  A    between atoms: C_23  and  C_24
REMARK   12  A    between atoms: C_24  and  C_25
REMARK   13  A    between atoms: C_24  and  C_26
REMARK   14  A    between atoms: C_24  and  C_27
REMARK                            x       y       z     vdW  Elec       q    Type
REMARK                         _______ _______ _______ _____ _____    ______ ____
ROOT
ATOM      1  C   UNL     1       5.341   4.835  18.210  0.00  0.00    +0.000 C 
ENDROOT
BRANCH   1   2
ATOM      2  O   UNL     1       6.329   4.138  19.006  0.00  0.00    +0.000 OA
ATOM      3  H   UNL     1       6.660   4.753  19.681  0.00  0.00    +0.000 HD
ENDBRANCH   1   2
BRANCH   1   4
ATOM      4  C   UNL     1       6.010   5.311  16.868  0.00  0.00    +0.000 C 
BRANCH   4   8
ATOM      5  C   UNL     1       7.796   8.614  17.747  0.00  0.00    +0.000 C 
ATOM      6  C   UNL     1       7.497   7.137  17.799  0.00  0.00    +0.000 C 
ATOM      7  O   UNL     1       8.108   6.378  18.560  0.00  0.00    +0.000 OA
ATOM      8  N   UNL     1       6.500   6.709  16.952  0.00  0.00    +0.000 N 
ATOM      9  H   UNL     1       6.059   7.400  16.353  0.00  0.00    +0.000 HD
ENDBRANCH   4   8
BRANCH   4  10
ATOM     10  C   UNL     1       5.130   5.088  15.612  0.00  0.00    +0.000 C 
BRANCH  10  11
ATOM     11  C   UNL     1       5.918   4.649  14.396  0.00  0.00    +0.000 A 
ATOM     12  C   UNL     1       7.135   5.278  14.090  0.00  0.00    +0.000 A 
ATOM     13  C   UNL     1       7.780   5.012  12.885  0.00  0.00    +0.000 A 
ATOM     14  F   UNL     1       8.893   5.687  12.576  0.00  0.00    +0.000 F 
ATOM     15  C   UNL     1       7.273   4.083  11.989  0.00  0.00    +0.000 A 
ATOM     16  C   UNL     1       6.126   3.381  12.340  0.00  0.00    +0.000 A 
ATOM     17  F   UNL     1       5.660   2.437  11.515  0.00  0.00    +0.000 F 
ATOM     18  C   UNL     1       5.443   3.657  13.527  0.00  0.00    +0.000 A 
ENDBRANCH  10  11
ENDBRANCH   4  10
ENDBRANCH   1   4
BRANCH   1  19
ATOM     19  C   UNL     1       4.118   3.882  18.048  0.00  0.00    +0.000 C 
BRANCH  19  20
ATOM     20  N   UNL     1       2.803   4.545  17.903  0.00  0.00    +0.000 NA
ATOM     21  H   UNL     1       2.088   3.824  17.805  0.00  0.00    +0.000 HD
BRANCH  20  22
ATOM     22  C   UNL     1       2.431   5.425  19.054  0.00  0.00    +0.000 C 
ATOM     23  C   UNL     1       1.514   4.835  20.127  0.00  0.00    +0.000 C 
ATOM     24  C   UNL     1       2.957   5.008  20.427  0.00  0.00    +0.000 C 
BRANCH  22  25
ATOM     25  C   UNL     1       2.346   6.978  18.835  0.00  0.00    +0.000 A 
ATOM     26  N   UNL     1       2.942   7.596  17.830  0.00  0.00    +0.000 NA
ATOM     27  C   UNL     1       2.413   8.860  17.847  0.00  0.00    +0.000 A 
ATOM     28  C   UNL     1       1.538   9.000  18.900  0.00  0.00    +0.000 A 
ATOM     29  O   UNL     1       1.532   7.805  19.574  0.00  0.00    +0.000 OA
BRANCH  28  30
ATOM     30  C   UNL     1       0.590  10.068  19.376  0.00  0.00    +0.000 C 
ATOM     31  C   UNL     1      -0.590  10.238  18.403  0.00  0.00    +0.000 C 
ATOM     32  C   UNL     1       0.032   9.672  20.754  0.00  0.00    +0.000 C 
ATOM     33  C   UNL     1       1.312  11.418  19.506  0.00  0.00    +0.000 C 
ENDBRANCH  28  30
ENDBRANCH  22  25
ENDBRANCH  20  22
ENDBRANCH  19  20
ENDBRANCH   1  19
TORSDOF 10
ENDMDL
MODEL 6
REMARK VINA RESULT:      -8.0      1.083      1.329
REMARK  Name = 
REMARK  14 active torsions:
REMARK  status: ('A' for Active; 'I' for Inactive)
REMARK    1  A    between atoms: C_1  and  C_2
REMARK    2  A    between atoms: N_4  and  C_5
REMARK    3  A    between atoms: C_5  and  C_6
REMARK    4  A    between atoms: C_5  and  C_15
REMARK    5  A    between atoms: C_6  and  C_7
REMARK    6  A    between atoms: C_15  and  O_16
REMARK    7  A    between atoms: C_15  and  C_17
REMARK    8  A    between atoms: C_17  and  N_18
REMARK    9  A    between atoms: N_18  and  C_19
REMARK   10  A    between atoms: C_19  and  C_20
REMARK   11  A    between atoms: C_23  and  C_24
REMARK   12  A    between atoms: C_24  and  C_25
REMARK   13  A    between atoms: C_24  and  C_26
REMARK   14  A    between atoms: C_24  and  C_27
REMARK                            x       y       z     vdW  Elec       q    Type
REMARK                         _______ _______ _______ _____ _____    ______ ____
ROOT
ATOM      1  C   UNL     1       4.387   3.790  17.939  0.00  0.00    +0.000 C 
ENDROOT
BRANCH   1   2
ATOM      2  O   UNL     1       4.572   2.355  17.968  0.00  0.00    +0.000 OA
ATOM      3  H   UNL     1       4.217   1.989  17.141  0.00  0.00    +0.000 HD
ENDBRANCH   1   2
BRANCH   1   4
ATOM      4  C   UNL     1       5.432   4.420  16.945  0.00  0.00    +0.000 C 
BRANCH   4   8
ATOM      5  C   UNL     1       8.023   6.633  18.752  0.00  0.00    +0.000 C 
ATOM      6  C   UNL     1       7.451   5.382  18.131  0.00  0.00    +0.000 C 
ATOM      7  O   UNL     1       8.069   4.312  18.141  0.00  0.00    +0.000 OA
ATOM      8  N   UNL     1       6.202   5.523  17.570  0.00  0.00    +0.000 N 
ATOM      9  H   UNL     1       5.772   6.442  17.596  0.00  0.00    +0.000 HD
ENDBRANCH   4   8
BRANCH   4  10
ATOM     10  C   UNL     1       4.828   4.844  15.582  0.00  0.00    +0.000 C 
BRANCH  10  11
ATOM     11  C   UNL     1       5.702   4.483  14.399  0.00  0.00    +0.000 A 
ATOM     12  C   UNL     1       6.922   5.149  14.206  0.00  0.00    +0.000 A 
ATOM     13  C   UNL     1       7.649   4.958  13.034  0.00  0.00    +0.000 A 
ATOM     14  F   UNL     1       8.765   5.668  12.832  0.00  0.00    +0.000 F 
ATOM     15  C   UNL     1       7.220   4.068  12.061  0.00  0.00    +0.000 A 
ATOM     16  C   UNL     1       6.068   3.328  12.300  0.00  0.00    +0.000 A 
ATOM     17  F   UNL     1       5.676   2.420  11.399  0.00  0.00    +0.000 F 
ATOM     18  C   UNL     1       5.305   3.529  13.452  0.00  0.00    +0.000 A 
ENDBRANCH  10  11
ENDBRANCH   4  10
ENDBRANCH   1   4
BRANCH   1  19
ATOM     19  C   UNL     1       2.890   4.058  17.595  0.00  0.00    +0.000 C 
BRANCH  19  20
ATOM     20  N   UNL     1       1.906   3.568  18.586  0.00  0.00    +0.000 NA
ATOM     21  H   UNL     1       2.045   2.566  18.710  0.00  0.00    +0.000 HD
BRANCH  20  22
ATOM     22  C   UNL     1       2.007   4.227  19.925  0.00  0.00    +0.000 C 
ATOM     23  C   UNL     1       1.357   3.516  21.113  0.00  0.00    +0.000 C 
ATOM     24  C   UNL     1       2.835   3.497  20.983  0.00  0.00    +0.000 C 
BRANCH  22  25
ATOM     25  C   UNL     1       2.089   5.793  20.004  0.00  0.00    +0.000 A 
ATOM     26  N   UNL     1       2.692   6.529  19.087  0.00  0.00    +0.000 NA
ATOM     27  C   UNL     1       2.314   7.814  19.379  0.00  0.00    +0.000 A 
ATOM     28  C   UNL     1       1.525   7.837  20.506  0.00  0.00    +0.000 A 
ATOM     29  O   UNL     1       1.421   6.542  20.946  0.00  0.00    +0.000 OA
BRANCH  28  30
ATOM     30  C   UNL     1       0.736   8.885  21.245  0.00  0.00    +0.000 C 
ATOM     31  C   UNL     1      -0.663   8.366  21.622  0.00  0.00    +0.000 C 
ATOM     32  C   UNL     1       1.481   9.262  22.537  0.00  0.00    +0.000 C 
ATOM     33  C   UNL     1       0.569  10.148  20.385  0.00  0.00    +0.000 C 
ENDBRANCH  28  30
ENDBRANCH  22  25
ENDBRANCH  20  22
ENDBRANCH  19  20
ENDBRANCH   1  19
TORSDOF 10
ENDMDL
MODEL 7
REMARK VINA RESULT:      -7.9      1.331      1.758
REMARK  Name = 
REMARK  14 active torsions:
REMARK  status: ('A' for Active; 'I' for Inactive)
REMARK    1  A    between atoms: C_1  and  C_2
REMARK    2  A    between atoms: N_4  and  C_5
REMARK    3  A    between atoms: C_5  and  C_6
REMARK    4  A    between atoms: C_5  and  C_15
REMARK    5  A    between atoms: C_6  and  C_7
REMARK    6  A    between atoms: C_15  and  O_16
REMARK    7  A    between atoms: C_15  and  C_17
REMARK    8  A    between atoms: C_17  and  N_18
REMARK    9  A    between atoms: N_18  and  C_19
REMARK   10  A    between atoms: C_19  and  C_20
REMARK   11  A    between atoms: C_23  and  C_24
REMARK   12  A    between atoms: C_24  and  C_25
REMARK   13  A    between atoms: C_24  and  C_26
REMARK   14  A    between atoms: C_24  and  C_27
REMARK                            x       y       z     vdW  Elec       q    Type
REMARK                         _______ _______ _______ _____ _____    ______ ____
ROOT
ATOM      1  C   UNL     1       4.348   3.456  18.006  0.00  0.00    +0.000 C 
ENDROOT
BRANCH   1   2
ATOM      2  O   UNL     1       4.260   2.013  18.083  0.00  0.00    +0.000 OA
ATOM      3  H   UNL     1       4.881   1.639  17.436  0.00  0.00    +0.000 HD
ENDBRANCH   1   2
BRANCH   1   4
ATOM      4  C   UNL     1       5.567   3.845  17.089  0.00  0.00    +0.000 C 
BRANCH   4   8
ATOM      5  C   UNL     1       7.963   5.623  19.533  0.00  0.00    +0.000 C 
ATOM      6  C   UNL     1       6.646   5.243  18.904  0.00  0.00    +0.000 C 
ATOM      7  O   UNL     1       5.578   5.732  19.290  0.00  0.00    +0.000 OA
ATOM      8  N   UNL     1       6.727   4.329  17.878  0.00  0.00    +0.000 N 
ATOM      9  H   UNL     1       7.644   3.970  17.636  0.00  0.00    +0.000 HD
ENDBRANCH   4   8
BRANCH   4  10
ATOM     10  C   UNL     1       5.206   4.824  15.944  0.00  0.00    +0.000 C 
BRANCH  10  11
ATOM     11  C   UNL     1       5.920   4.518  14.644  0.00  0.00    +0.000 A 
ATOM     12  C   UNL     1       7.110   5.191  14.327  0.00  0.00    +0.000 A 
ATOM     13  C   UNL     1       7.681   5.054  13.065  0.00  0.00    +0.000 A 
ATOM     14  F   UNL     1       8.766   5.773  12.755  0.00  0.00    +0.000 F 
ATOM     15  C   UNL     1       7.126   4.210  12.115  0.00  0.00    +0.000 A 
ATOM     16  C   UNL     1       6.010   3.460  12.465  0.00  0.00    +0.000 A 
ATOM     17  F   UNL     1       5.502   2.594  11.581  0.00  0.00    +0.000 F 
ATOM     18  C   UNL     1       5.401   3.608  13.713  0.00  0.00    +0.000 A 
ENDBRANCH  10  11
ENDBRANCH   4  10
ENDBRANCH   1   4
BRANCH   1  19
ATOM     19  C   UNL     1       2.960   3.982  17.532  0.00  0.00    +0.000 C 
BRANCH  19  20
ATOM     20  N   UNL     1       1.814   3.652  18.409  0.00  0.00    +0.000 NA
ATOM     21  H   UNL     1       1.785   2.640  18.534  0.00  0.00    +0.000 HD
BRANCH  20  22
ATOM     22  C   UNL     1       1.875   4.292  19.760  0.00  0.00    +0.000 C 
ATOM     23  C   UNL     1       1.157   3.583  20.911  0.00  0.00    +0.000 C 
ATOM     24  C   UNL     1       2.639   3.527  20.842  0.00  0.00    +0.000 C 
BRANCH  22  25
ATOM     25  C   UNL     1       1.994   5.854  19.863  0.00  0.00    +0.000 A 
ATOM     26  N   UNL     1       2.523   6.600  18.909  0.00  0.00    +0.000 NA
ATOM     27  C   UNL     1       2.198   7.884  19.262  0.00  0.00    +0.000 A 
ATOM     28  C   UNL     1       1.517   7.896  20.457  0.00  0.00    +0.000 A 
ATOM     29  O   UNL     1       1.429   6.593  20.878  0.00  0.00    +0.000 OA
BRANCH  28  30
ATOM     30  C   UNL     1       0.819   8.940  21.287  0.00  0.00    +0.000 C 
ATOM     31  C   UNL     1       0.696  10.269  20.522  0.00  0.00    +0.000 C 
ATOM     32  C   UNL     1      -0.595   8.446  21.637  0.00  0.00    +0.000 C 
ATOM     33  C   UNL     1       1.587   9.200  22.592  0.00  0.00    +0.000 C 
ENDBRANCH  28  30
ENDBRANCH  22  25
ENDBRANCH  20  22
ENDBRANCH  19  20
ENDBRANCH   1  19
TORSDOF 10
ENDMDL
MODEL 8
REMARK VINA RESULT:      -7.9      2.707      5.113
REMARK  Name = 
REMARK  14 active torsions:
REMARK  status: ('A' for Active; 'I' for Inactive)
REMARK    1  A    between atoms: C_1  and  C_2
REMARK    2  A    between atoms: N_4  and  C_5
REMARK    3  A    between atoms: C_5  and  C_6
REMARK    4  A    between atoms: C_5  and  C_15
REMARK    5  A    between atoms: C_6  and  C_7
REMARK    6  A    between atoms: C_15  and  O_16
REMARK    7  A    between atoms: C_15  and  C_17
REMARK    8  A    between atoms: C_17  and  N_18
REMARK    9  A    between atoms: N_18  and  C_19
REMARK   10  A    between atoms: C_19  and  C_20
REMARK   11  A    between atoms: C_23  and  C_24
REMARK   12  A    between atoms: C_24  and  C_25
REMARK   13  A    between atoms: C_24  and  C_26
REMARK   14  A    between atoms: C_24  and  C_27
REMARK                            x       y       z     vdW  Elec       q    Type
REMARK                         _______ _______ _______ _____ _____    ______ ____
ROOT
ATOM      1  C   UNL     1       2.575   6.216  19.720  0.00  0.00    +0.000 C 
ENDROOT
BRANCH   1   2
ATOM      2  O   UNL     1       1.558   5.301  20.193  0.00  0.00    +0.000 OA
ATOM      3  H   UNL     1       1.865   4.920  21.033  0.00  0.00    +0.000 HD
ENDBRANCH   1   2
BRANCH   1   4
ATOM      4  C   UNL     1       2.924   5.865  18.226  0.00  0.00    +0.000 C 
BRANCH   4   8
ATOM      5  C   UNL     1       2.907   2.046  17.683  0.00  0.00    +0.000 C 
ATOM      6  C   UNL     1       2.344   3.443  17.766  0.00  0.00    +0.000 C 
ATOM      7  O   UNL     1       1.141   3.669  17.591  0.00  0.00    +0.000 OA
ATOM      8  N   UNL     1       3.259   4.430  18.055  0.00  0.00    +0.000 N 
ATOM      9  H   UNL     1       4.229   4.155  18.171  0.00  0.00    +0.000 HD
ENDBRANCH   4   8
BRANCH   4  10
ATOM     10  C   UNL     1       4.002   6.784  17.598  0.00  0.00    +0.000 C 
BRANCH  10  11
ATOM     11  C   UNL     1       5.163   6.021  16.994  0.00  0.00    +0.000 A 
ATOM     12  C   UNL     1       5.158   5.714  15.625  0.00  0.00    +0.000 A 
ATOM     13  C   UNL     1       6.123   4.864  15.092  0.00  0.00    +0.000 A 
ATOM     14  F   UNL     1       6.048   4.516  13.802  0.00  0.00    +0.000 F 
ATOM     15  C   UNL     1       7.142   4.351  15.880  0.00  0.00    +0.000 A 
ATOM     16  C   UNL     1       7.210   4.741  17.212  0.00  0.00    +0.000 A 
ATOM     17  F   UNL     1       8.222   4.305  17.969  0.00  0.00    +0.000 F 
ATOM     18  C   UNL     1       6.232   5.564  17.776  0.00  0.00    +0.000 A 
ENDBRANCH  10  11
ENDBRANCH   4  10
ENDBRANCH   1   4
BRANCH   1  19
ATOM     19  C   UNL     1       2.045   7.663  19.961  0.00  0.00    +0.000 C 
BRANCH  19  20
ATOM     20  N   UNL     1       1.709   7.998  21.362  0.00  0.00    +0.000 NA
ATOM     21  H   UNL     1       2.559   8.310  21.832  0.00  0.00    +0.000 HD
BRANCH  20  22
ATOM     22  C   UNL     1       0.672   9.068  21.503  0.00  0.00    +0.000 C 
ATOM     23  C   UNL     1      -0.613   8.712  22.253  0.00  0.00    +0.000 C 
ATOM     24  C   UNL     1       0.399   9.568  22.922  0.00  0.00    +0.000 C 
BRANCH  22  25
ATOM     25  C   UNL     1       0.553  10.171  20.392  0.00  0.00    +0.000 A 
ATOM     26  N   UNL     1      -0.290  10.082  19.377  0.00  0.00    +0.000 NA
ATOM     27  C   UNL     1      -0.272  11.329  18.811  0.00  0.00    +0.000 A 
ATOM     28  C   UNL     1       0.625  12.142  19.466  0.00  0.00    +0.000 A 
ATOM     29  O   UNL     1       1.201  11.383  20.453  0.00  0.00    +0.000 OA
BRANCH  28  30
ATOM     30  C   UNL     1       1.008  13.596  19.398  0.00  0.00    +0.000 C 
ATOM     31  C   UNL     1       2.130  13.828  18.371  0.00  0.00    +0.000 C 
ATOM     32  C   UNL     1      -0.219  14.423  18.976  0.00  0.00    +0.000 C 
ATOM     33  C   UNL     1       1.492  14.096  20.768  0.00  0.00    +0.000 C 
ENDBRANCH  28  30
ENDBRANCH  22  25
ENDBRANCH  20  22
ENDBRANCH  19  20
ENDBRANCH   1  19
TORSDOF 10
ENDMDL
MODEL 9
REMARK VINA RESULT:      -7.8      4.781      8.821
REMARK  Name = 
REMARK  14 active torsions:
REMARK  status: ('A' for Active; 'I' for Inactive)
REMARK    1  A    between atoms: C_1  and  C_2
REMARK    2  A    between atoms: N_4  and  C_5
REMARK    3  A    between atoms: C_5  and  C_6
REMARK    4  A    between atoms: C_5  and  C_15
REMARK    5  A    between atoms: C_6  and  C_7
REMARK    6  A    between atoms: C_15  and  O_16
REMARK    7  A    between atoms: C_15  and  C_17
REMARK    8  A    between atoms: C_17  and  N_18
REMARK    9  A    between atoms: N_18  and  C_19
REMARK   10  A    between atoms: C_19  and  C_20
REMARK   11  A    between atoms: C_23  and  C_24
REMARK   12  A    between atoms: C_24  and  C_25
REMARK   13  A    between atoms: C_24  and  C_26
REMARK   14  A    between atoms: C_24  and  C_27
REMARK                            x       y       z     vdW  Elec       q    Type
REMARK                         _______ _______ _______ _____ _____    ______ ____
ROOT
ATOM      1  C   UNL     1       1.822   9.672  18.686  0.00  0.00    +0.000 C 
ENDROOT
BRANCH   1   2
ATOM      2  O   UNL     1       2.255  10.269  17.441  0.00  0.00    +0.000 OA
ATOM      3  H   UNL     1       2.289  11.232  17.565  0.00  0.00    +0.000 HD
ENDBRANCH   1   2
BRANCH   1   4
ATOM      4  C   UNL     1       0.286   9.955  18.882  0.00  0.00    +0.000 C 
BRANCH   4   8
ATOM      5  C   UNL     1      -0.394   9.806  22.676  0.00  0.00    +0.000 C 
ATOM      6  C   UNL     1       0.145  10.356  21.379  0.00  0.00    +0.000 C 
ATOM      7  O   UNL     1       0.827  11.386  21.344  0.00  0.00    +0.000 OA
ATOM      8  N   UNL     1      -0.172   9.626  20.255  0.00  0.00    +0.000 N 
ATOM      9  H   UNL     1      -0.747   8.799  20.374  0.00  0.00    +0.000 HD
ENDBRANCH   4   8
BRANCH   4  10
ATOM     10  C   UNL     1      -0.617   9.302  17.806  0.00  0.00    +0.000 C 
BRANCH  10  11
ATOM     11  C   UNL     1      -1.925  10.036  17.592  0.00  0.00    +0.000 A 
ATOM     12  C   UNL     1      -2.625   9.875  16.387  0.00  0.00    +0.000 A 
ATOM     13  C   UNL     1      -3.728  10.676  16.104  0.00  0.00    +0.000 A 
ATOM     14  F   UNL     1      -4.328  10.566  14.913  0.00  0.00    +0.000 F 
ATOM     15  C   UNL     1      -4.197  11.603  17.022  0.00  0.00    +0.000 A 
ATOM     16  C   UNL     1      -3.570  11.687  18.259  0.00  0.00    +0.000 A 
ATOM     17  F   UNL     1      -4.049  12.532  19.178  0.00  0.00    +0.000 F 
ATOM     18  C   UNL     1      -2.439  10.919  18.551  0.00  0.00    +0.000 A 
ENDBRANCH  10  11
ENDBRANCH   4  10
ENDBRANCH   1   4
BRANCH   1  19
ATOM     19  C   UNL     1       2.224   8.166  18.644  0.00  0.00    +0.000 C 
BRANCH  19  20
ATOM     20  N   UNL     1       1.921   7.386  19.865  0.00  0.00    +0.000 NA
ATOM     21  H   UNL     1       0.915   7.423  20.029  0.00  0.00    +0.000 HD
BRANCH  20  22
ATOM     22  C   UNL     1       2.335   5.950  19.791  0.00  0.00    +0.000 C 
ATOM     23  C   UNL     1       2.134   5.092  21.041  0.00  0.00    +0.000 C 
ATOM     24  C   UNL     1       1.216   4.913  19.888  0.00  0.00    +0.000 C 
BRANCH  22  25
ATOM     25  C   UNL     1       3.518   5.541  18.842  0.00  0.00    +0.000 A 
ATOM     26  N   UNL     1       3.341   5.205  17.576  0.00  0.00    +0.000 NA
ATOM     27  C   UNL     1       4.606   5.184  17.050  0.00  0.00    +0.000 A 
ATOM     28  C   UNL     1       5.536   5.462  18.025  0.00  0.00    +0.000 A 
ATOM     29  O   UNL     1       4.843   5.639  19.196  0.00  0.00    +0.000 OA
BRANCH  28  30
ATOM     30  C   UNL     1       7.024   5.688  18.059  0.00  0.00    +0.000 C 
ATOM     31  C   UNL     1       7.397   7.033  17.411  0.00  0.00    +0.000 C 
ATOM     32  C   UNL     1       7.500   5.704  19.522  0.00  0.00    +0.000 C 
ATOM     33  C   UNL     1       7.762   4.566  17.313  0.00  0.00    +0.000 C 
ENDBRANCH  28  30
ENDBRANCH  22  25
ENDBRANCH  20  22
ENDBRANCH  19  20
ENDBRANCH   1  19
TORSDOF 10
ENDMDL
