MODEL 1
REMARK VINA RESULT:      -8.1      0.000      0.000
REMARK  Name = 
REMARK  8 active torsions:
REMARK  status: ('A' for Active; 'I' for Inactive)
REMARK    1  A    between atoms: C_1  and  C_2
REMARK    2  A    between atoms: C_2  and  C_3
REMARK    3  A    between atoms: C_3  and  N_4
REMARK    4  A    between atoms: C_3  and  C_15
REMARK    5  A    between atoms: N_4  and  S_5
REMARK    6  A    between atoms: S_5  and  C_8
REMARK    7  A    between atoms: C_11  and  C_12
REMARK    8  A    between atoms: C_20  and  O_21
REMARK                            x       y       z     vdW  Elec       q    Type
REMARK                         _______ _______ _______ _____ _____    ______ ____
ROOT
ATOM      1  C   UNL     1       6.502   6.756  17.371  0.00  0.00    +0.000 C 
ENDROOT
BRANCH   1   2
ATOM      2  C   UNL     1       6.206   5.548  18.328  0.00  0.00    +0.000 C 
ATOM      3  O   UNL     1       7.086   5.194  19.122  0.00  0.00    +0.000 OA
ATOM      4  N   UNL     1       4.973   4.890  18.280  0.00  0.00    +0.000 N 
ATOM      5  C   UNL     1       3.806   5.304  17.502  0.00  0.00    +0.000 C 
ATOM      6  C   UNL     1       2.587   5.460  18.405  0.00  0.00    +0.000 C 
ATOM      7  C   UNL     1       2.296   4.158  19.156  0.00  0.00    +0.000 C 
ATOM      8  C   UNL     1       1.119   4.331  20.132  0.00  0.00    +0.000 C 
ATOM      9  C   UNL     1       0.835   3.045  20.909  0.00  0.00    +0.000 C 
ATOM     10  C   UNL     1       2.081   2.515  21.614  0.00  0.00    +0.000 C 
ATOM     11  C   UNL     1       3.279   2.377  20.666  0.00  0.00    +0.000 C 
ATOM     12  C   UNL     1       3.553   3.702  19.936  0.00  0.00    +0.000 C 
ATOM     13  C   UNL     1       4.781   3.625  19.014  0.00  0.00    +0.000 C 
BRANCH   7  14
ATOM     14  O   UNL     1       1.941   3.163  18.198  0.00  0.00    +0.000 OA
ATOM     15  H   UNL     1       0.996   2.974  18.286  0.00  0.00    +0.000 HD
ENDBRANCH   7  14
ENDBRANCH   1   2
BRANCH   1  17
ATOM     16  C   UNL     1       7.954   8.881  17.799  0.00  0.00    +0.000 C 
ATOM     17  C   UNL     1       7.845   7.367  17.793  0.00  0.00    +0.000 C 
ENDBRANCH   1  17
BRANCH   1  18
ATOM     18  N   UNL     1       6.371   6.254  15.978  0.00  0.00    +0.000 NA
ATOM     19  H   UNL     1       6.118   6.989  15.315  0.00  0.00    +0.000 HD
BRANCH  18  20
ATOM     20  S   UNL     1       7.457   5.216  15.219  0.00  0.00    +0.000 S 
ATOM     21  O   UNL     1       8.536   5.969  14.631  0.00  0.00    +0.000 OA
ATOM     22  O   UNL     1       7.722   4.172  16.189  0.00  0.00    +0.000 OA
BRANCH  20  23
ATOM     23  C   UNL     1       6.510   4.471  13.914  0.00  0.00    +0.000 A 
ATOM     24  C   UNL     1       7.112   4.065  12.719  0.00  0.00    +0.000 A 
ATOM     25  C   UNL     1       6.330   3.460  11.732  0.00  0.00    +0.000 A 
ATOM     26  C   UNL     1       4.960   3.247  11.940  0.00  0.00    +0.000 A 
ATOM     27  C   UNL     1       4.091   2.628  10.883  0.00  0.00    +0.000 C 
ATOM     28  C   UNL     1       4.382   3.629  13.157  0.00  0.00    +0.000 A 
ATOM     29  C   UNL     1       5.155   4.230  14.147  0.00  0.00    +0.000 A 
ENDBRANCH  20  23
ENDBRANCH  18  20
ENDBRANCH   1  18
TORSDOF 6
ENDMDL
MODEL 2
REMARK VINA RESULT:      -8.0      4.184      6.062
REMARK  Name = 
REMARK  8 active torsions:
REMARK  status: ('A' for Active; 'I' for Inactive)
REMARK    1  A    between atoms: C_1  and  C_2
REMARK    2  A    between atoms: C_2  and  C_3
REMARK    3  A    between atoms: C_3  and  N_4
REMARK    4  A    between atoms: C_3  and  C_15
REMARK    5  A    between atoms: N_4  and  S_5
REMARK    6  A    between atoms: S_5  and  C_8
REMARK    7  A    between atoms: C_11  and  C_12
REMARK    8  A    between atoms: C_20  and  O_21
REMARK                            x       y       z     vdW  Elec       q    Type
REMARK                         _______ _______ _______ _____ _____    ______ ____
ROOT
ATOM      1  C   UNL     1       2.600   5.462  19.901  0.00  0.00    +0.000 C 
ENDROOT
BRANCH   1   2
ATOM      2  C   UNL     1       2.230   6.769  19.117  0.00  0.00    +0.000 C 
ATOM      3  O   UNL     1       2.207   6.730  17.881  0.00  0.00    +0.000 OA
ATOM      4  N   UNL     1       1.934   7.950  19.805  0.00  0.00    +0.000 N 
ATOM      5  C   UNL     1       1.779   8.086  21.253  0.00  0.00    +0.000 C 
ATOM      6  C   UNL     1       0.424   8.698  21.592  0.00  0.00    +0.000 C 
ATOM      7  C   UNL     1       0.252  10.055  20.905  0.00  0.00    +0.000 C 
ATOM      8  C   UNL     1      -1.145  10.642  21.173  0.00  0.00    +0.000 C 
ATOM      9  C   UNL     1      -1.340  11.985  20.470  0.00  0.00    +0.000 C 
ATOM     10  C   UNL     1      -1.042  11.896  18.975  0.00  0.00    +0.000 C 
ATOM     11  C   UNL     1       0.330  11.274  18.685  0.00  0.00    +0.000 C 
ATOM     12  C   UNL     1       0.468   9.909  19.378  0.00  0.00    +0.000 C 
ATOM     13  C   UNL     1       1.809   9.223  19.071  0.00  0.00    +0.000 C 
BRANCH   7  14
ATOM     14  O   UNL     1       1.224  10.951  21.441  0.00  0.00    +0.000 OA
ATOM     15  H   UNL     1       0.810  11.817  21.563  0.00  0.00    +0.000 HD
ENDBRANCH   7  14
ENDBRANCH   1   2
BRANCH   1  17
ATOM     16  C   UNL     1       1.344   3.427  20.945  0.00  0.00    +0.000 C 
ATOM     17  C   UNL     1       1.299   4.860  20.447  0.00  0.00    +0.000 C 
ENDBRANCH   1  17
BRANCH   1  18
ATOM     18  N   UNL     1       3.428   4.626  18.992  0.00  0.00    +0.000 NA
ATOM     19  H   UNL     1       3.178   4.744  18.008  0.00  0.00    +0.000 HD
BRANCH  18  20
ATOM     20  S   UNL     1       5.099   4.454  19.091  0.00  0.00    +0.000 S 
ATOM     21  O   UNL     1       5.677   5.592  19.761  0.00  0.00    +0.000 OA
ATOM     22  O   UNL     1       5.312   3.110  19.591  0.00  0.00    +0.000 OA
BRANCH  20  23
ATOM     23  C   UNL     1       5.640   4.459  17.399  0.00  0.00    +0.000 A 
ATOM     24  C   UNL     1       6.988   4.630  17.067  0.00  0.00    +0.000 A 
ATOM     25  C   UNL     1       7.368   4.601  15.723  0.00  0.00    +0.000 A 
ATOM     26  C   UNL     1       6.415   4.389  14.717  0.00  0.00    +0.000 A 
ATOM     27  C   UNL     1       6.792   4.385  13.264  0.00  0.00    +0.000 C 
ATOM     28  C   UNL     1       5.075   4.185  15.072  0.00  0.00    +0.000 A 
ATOM     29  C   UNL     1       4.688   4.210  16.409  0.00  0.00    +0.000 A 
ENDBRANCH  20  23
ENDBRANCH  18  20
ENDBRANCH   1  18
TORSDOF 6
ENDMDL
MODEL 3
REMARK VINA RESULT:      -7.8      4.177      6.746
REMARK  Name = 
REMARK  8 active torsions:
REMARK  status: ('A' for Active; 'I' for Inactive)
REMARK    1  A    between atoms: C_1  and  C_2
REMARK    2  A    between atoms: C_2  and  C_3
REMARK    3  A    between atoms: C_3  and  N_4
REMARK    4  A    between atoms: C_3  and  C_15
REMARK    5  A    between atoms: N_4  and  S_5
REMARK    6  A    between atoms: S_5  and  C_8
REMARK    7  A    between atoms: C_11  and  C_12
REMARK    8  A    between atoms: C_20  and  O_21
REMARK                            x       y       z     vdW  Elec       q    Type
REMARK                         _______ _______ _______ _____ _____    ______ ____
ROOT
ATOM      1  C   UNL     1       2.605   5.464  19.655  0.00  0.00    +0.000 C 
ENDROOT
BRANCH   1   2
ATOM      2  C   UNL     1       2.171   6.793  18.946  0.00  0.00    +0.000 C 
ATOM      3  O   UNL     1       2.057   6.796  17.715  0.00  0.00    +0.000 OA
ATOM      4  N   UNL     1       1.919   7.948  19.695  0.00  0.00    +0.000 N 
ATOM      5  C   UNL     1       1.870   8.034  21.153  0.00  0.00    +0.000 C 
ATOM      6  C   UNL     1       0.540   8.622  21.611  0.00  0.00    +0.000 C 
ATOM      7  C   UNL     1       0.310  10.000  20.986  0.00  0.00    +0.000 C 
ATOM      8  C   UNL     1      -1.068  10.566  21.376  0.00  0.00    +0.000 C 
ATOM      9  C   UNL     1      -1.321  11.930  20.735  0.00  0.00    +0.000 C 
ATOM     10  C   UNL     1      -1.133  11.894  19.220  0.00  0.00    +0.000 C 
ATOM     11  C   UNL     1       0.217  11.294  18.810  0.00  0.00    +0.000 C 
ATOM     12  C   UNL     1       0.413   9.907  19.444  0.00  0.00    +0.000 C 
ATOM     13  C   UNL     1       1.733   9.244  19.015  0.00  0.00    +0.000 C 
BRANCH   7  14
ATOM     14  O   UNL     1       1.313  10.886  21.480  0.00  0.00    +0.000 OA
ATOM     15  H   UNL     1       0.946  11.382  22.225  0.00  0.00    +0.000 HD
ENDBRANCH   7  14
ENDBRANCH   1   2
BRANCH   1  17
ATOM     16  C   UNL     1       1.198   3.548  20.732  0.00  0.00    +0.000 C 
ATOM     17  C   UNL     1       1.463   5.035  20.586  0.00  0.00    +0.000 C 
ENDBRANCH   1  17
BRANCH   1  18
ATOM     18  N   UNL     1       3.030   4.517  18.591  0.00  0.00    +0.000 NA
ATOM     19  H   UNL     1       2.756   4.825  17.656  0.00  0.00    +0.000 HD
BRANCH  18  20
ATOM     20  S   UNL     1       4.550   3.803  18.483  0.00  0.00    +0.000 S 
ATOM     21  O   UNL     1       4.868   3.122  19.713  0.00  0.00    +0.000 OA
ATOM     22  O   UNL     1       4.543   3.091  17.220  0.00  0.00    +0.000 OA
BRANCH  20  23
ATOM     23  C   UNL     1       5.664   5.173  18.289  0.00  0.00    +0.000 A 
ATOM     24  C   UNL     1       6.848   5.257  19.028  0.00  0.00    +0.000 A 
ATOM     25  C   UNL     1       7.705   6.341  18.822  0.00  0.00    +0.000 A 
ATOM     26  C   UNL     1       7.392   7.328  17.877  0.00  0.00    +0.000 A 
ATOM     27  C   UNL     1       8.279   8.519  17.659  0.00  0.00    +0.000 C 
ATOM     28  C   UNL     1       6.218   7.208  17.122  0.00  0.00    +0.000 A 
ATOM     29  C   UNL     1       5.360   6.129  17.318  0.00  0.00    +0.000 A 
ENDBRANCH  20  23
ENDBRANCH  18  20
ENDBRANCH   1  18
TORSDOF 6
ENDMDL
MODEL 4
REMARK VINA RESULT:      -7.3      6.796      9.903
REMARK  Name = 
REMARK  8 active torsions:
REMARK  status: ('A' for Active; 'I' for Inactive)
REMARK    1  A    between atoms: C_1  and  C_2
REMARK    2  A    between atoms: C_2  and  C_3
REMARK    3  A    between atoms: C_3  and  N_4
REMARK    4  A    between atoms: C_3  and  C_15
REMARK    5  A    between atoms: N_4  and  S_5
REMARK    6  A    between atoms: S_5  and  C_8
REMARK    7  A    between atoms: C_11  and  C_12
REMARK    8  A    between atoms: C_20  and  O_21
REMARK                            x       y       z     vdW  Elec       q    Type
REMARK                         _______ _______ _______ _____ _____    ______ ____
ROOT
ATOM      1  C   UNL     1       0.636  10.046  19.848  0.00  0.00    +0.000 C 
ENDROOT
BRANCH   1   2
ATOM      2  C   UNL     1       0.676   8.675  20.608  0.00  0.00    +0.000 C 
ATOM      3  O   UNL     1      -0.090   8.507  21.564  0.00  0.00    +0.000 OA
ATOM      4  N   UNL     1       1.560   7.668  20.209  0.00  0.00    +0.000 N 
ATOM      5  C   UNL     1       2.399   7.684  19.011  0.00  0.00    +0.000 C 
ATOM      6  C   UNL     1       2.139   6.447  18.157  0.00  0.00    +0.000 C 
ATOM      7  C   UNL     1       2.381   5.168  18.962  0.00  0.00    +0.000 C 
ATOM      8  C   UNL     1       2.040   3.916  18.135  0.00  0.00    +0.000 C 
ATOM      9  C   UNL     1       2.252   2.632  18.938  0.00  0.00    +0.000 C 
ATOM     10  C   UNL     1       1.495   2.657  20.264  0.00  0.00    +0.000 C 
ATOM     11  C   UNL     1       1.788   3.918  21.085  0.00  0.00    +0.000 C 
ATOM     12  C   UNL     1       1.525   5.184  20.253  0.00  0.00    +0.000 C 
ATOM     13  C   UNL     1       1.755   6.475  21.056  0.00  0.00    +0.000 C 
BRANCH   7  14
ATOM     14  O   UNL     1       3.764   5.115  19.307  0.00  0.00    +0.000 OA
ATOM     15  H   UNL     1       3.978   5.893  19.841  0.00  0.00    +0.000 HD
ENDBRANCH   7  14
ENDBRANCH   1   2
BRANCH   1  17
ATOM     16  C   UNL     1      -1.006  10.036  17.819  0.00  0.00    +0.000 C 
ATOM     17  C   UNL     1      -0.788  10.239  19.307  0.00  0.00    +0.000 C 
ENDBRANCH   1  17
BRANCH   1  18
ATOM     18  N   UNL     1       1.175  11.077  20.773  0.00  0.00    +0.000 NA
ATOM     19  H   UNL     1       2.193  11.034  20.863  0.00  0.00    +0.000 HD
BRANCH  18  20
ATOM     20  S   UNL     1       0.717  12.696  20.790  0.00  0.00    +0.000 S 
ATOM     21  O   UNL     1       1.639  13.466  21.586  0.00  0.00    +0.000 OA
ATOM     22  O   UNL     1       0.472  13.033  19.402  0.00  0.00    +0.000 OA
BRANCH  20  23
ATOM     23  C   UNL     1      -0.865  12.693  21.599  0.00  0.00    +0.000 A 
ATOM     24  C   UNL     1      -1.118  11.867  22.699  0.00  0.00    +0.000 A 
ATOM     25  C   UNL     1      -2.369  11.919  23.318  0.00  0.00    +0.000 A 
ATOM     26  C   UNL     1      -3.357  12.799  22.855  0.00  0.00    +0.000 A 
ATOM     27  C   UNL     1      -4.720  12.852  23.482  0.00  0.00    +0.000 C 
ATOM     28  C   UNL     1      -3.073  13.644  21.774  0.00  0.00    +0.000 A 
ATOM     29  C   UNL     1      -1.828  13.600  21.153  0.00  0.00    +0.000 A 
ENDBRANCH  20  23
ENDBRANCH  18  20
ENDBRANCH   1  18
TORSDOF 6
ENDMDL
MODEL 5
REMARK VINA RESULT:      -7.3      6.251      8.899
REMARK  Name = 
REMARK  8 active torsions:
REMARK  status: ('A' for Active; 'I' for Inactive)
REMARK    1  A    between atoms: C_1  and  C_2
REMARK    2  A    between atoms: C_2  and  C_3
REMARK    3  A    between atoms: C_3  and  N_4
REMARK    4  A    between atoms: C_3  and  C_15
REMARK    5  A    between atoms: N_4  and  S_5
REMARK    6  A    between atoms: S_5  and  C_8
REMARK    7  A    between atoms: C_11  and  C_12
REMARK    8  A    between atoms: C_20  and  O_21
REMARK                            x       y       z     vdW  Elec       q    Type
REMARK                         _______ _______ _______ _____ _____    ______ ____
ROOT
ATOM      1  C   UNL     1       1.366   9.583  20.453  0.00  0.00    +0.000 C 
ENDROOT
BRANCH   1   2
ATOM      2  C   UNL     1       1.000   8.109  20.843  0.00  0.00    +0.000 C 
ATOM      3  O   UNL     1       0.015   7.916  21.565  0.00  0.00    +0.000 OA
ATOM      4  N   UNL     1       1.775   7.040  20.383  0.00  0.00    +0.000 N 
ATOM      5  C   UNL     1       2.863   7.121  19.409  0.00  0.00    +0.000 C 
ATOM      6  C   UNL     1       2.611   6.172  18.243  0.00  0.00    +0.000 C 
ATOM      7  C   UNL     1       2.443   4.733  18.738  0.00  0.00    +0.000 C 
ATOM      8  C   UNL     1       2.105   3.781  17.577  0.00  0.00    +0.000 C 
ATOM      9  C   UNL     1       1.908   2.345  18.062  0.00  0.00    +0.000 C 
ATOM     10  C   UNL     1       0.875   2.257  19.184  0.00  0.00    +0.000 C 
ATOM     11  C   UNL     1       1.171   3.231  20.332  0.00  0.00    +0.000 C 
ATOM     12  C   UNL     1       1.323   4.667  19.805  0.00  0.00    +0.000 C 
ATOM     13  C   UNL     1       1.567   5.685  20.930  0.00  0.00    +0.000 C 
BRANCH   7  14
ATOM     14  O   UNL     1       3.678   4.315  19.315  0.00  0.00    +0.000 OA
ATOM     15  H   UNL     1       3.793   4.772  20.160  0.00  0.00    +0.000 HD
ENDBRANCH   7  14
ENDBRANCH   1   2
BRANCH   1  17
ATOM     16  C   UNL     1       1.742  10.334  17.982  0.00  0.00    +0.000 C 
ATOM     17  C   UNL     1       0.785   9.854  19.059  0.00  0.00    +0.000 C 
ENDBRANCH   1  17
BRANCH   1  18
ATOM     18  N   UNL     1       0.926  10.456  21.573  0.00  0.00    +0.000 NA
ATOM     19  H   UNL     1       1.703  10.772  22.156  0.00  0.00    +0.000 HD
BRANCH  18  20
ATOM     20  S   UNL     1      -0.175  11.721  21.437  0.00  0.00    +0.000 S 
ATOM     21  O   UNL     1      -1.327  11.299  20.680  0.00  0.00    +0.000 OA
ATOM     22  O   UNL     1      -0.320  12.242  22.782  0.00  0.00    +0.000 OA
BRANCH  20  23
ATOM     23  C   UNL     1       0.693  12.958  20.503  0.00  0.00    +0.000 A 
ATOM     24  C   UNL     1       2.068  13.159  20.665  0.00  0.00    +0.000 A 
ATOM     25  C   UNL     1       2.712  14.126  19.889  0.00  0.00    +0.000 A 
ATOM     26  C   UNL     1       1.995  14.879  18.948  0.00  0.00    +0.000 A 
ATOM     27  C   UNL     1       2.656  15.946  18.125  0.00  0.00    +0.000 C 
ATOM     28  C   UNL     1       0.625  14.639  18.776  0.00  0.00    +0.000 A 
ATOM     29  C   UNL     1      -0.024  13.675  19.543  0.00  0.00    +0.000 A 
ENDBRANCH  20  23
ENDBRANCH  18  20
ENDBRANCH   1  18
TORSDOF 6
ENDMDL
MODEL 6
REMARK VINA RESULT:      -7.3      6.019      7.956
REMARK  Name = 
REMARK  8 active torsions:
REMARK  status: ('A' for Active; 'I' for Inactive)
REMARK    1  A    between atoms: C_1  and  C_2
REMARK    2  A    between atoms: C_2  and  C_3
REMARK    3  A    between atoms: C_3  and  N_4
REMARK    4  A    between atoms: C_3  and  C_15
REMARK    5  A    between atoms: N_4  and  S_5
REMARK    6  A    between atoms: S_5  and  C_8
REMARK    7  A    between atoms: C_11  and  C_12
REMARK    8  A    between atoms: C_20  and  O_21
REMARK                            x       y       z     vdW  Elec       q    Type
REMARK                         _______ _______ _______ _____ _____    ______ ____
ROOT
ATOM      1  C   UNL     1       1.454   7.584  20.240  0.00  0.00    +0.000 C 
ENDROOT
BRANCH   1   2
ATOM      2  C   UNL     1       1.082   8.740  21.233  0.00  0.00    +0.000 C 
ATOM      3  O   UNL     1       1.659   8.788  22.325  0.00  0.00    +0.000 OA
ATOM      4  N   UNL     1       0.118   9.691  20.885  0.00  0.00    +0.000 N 
ATOM      5  C   UNL     1      -0.519   9.833  19.577  0.00  0.00    +0.000 C 
ATOM      6  C   UNL     1      -0.336  11.249  19.041  0.00  0.00    +0.000 C 
ATOM      7  C   UNL     1      -0.896  12.280  20.023  0.00  0.00    +0.000 C 
ATOM      8  C   UNL     1      -0.641  13.715  19.530  0.00  0.00    +0.000 C 
ATOM      9  C   UNL     1      -1.172  14.756  20.517  0.00  0.00    +0.000 C 
ATOM     10  C   UNL     1      -0.628  14.537  21.926  0.00  0.00    +0.000 C 
ATOM     11  C   UNL     1      -0.835  13.099  22.420  0.00  0.00    +0.000 C 
ATOM     12  C   UNL     1      -0.251  12.089  21.418  0.00  0.00    +0.000 C 
ATOM     13  C   UNL     1      -0.389  10.635  21.899  0.00  0.00    +0.000 C 
BRANCH   7  14
ATOM     14  O   UNL     1      -2.306  12.083  20.118  0.00  0.00    +0.000 OA
ATOM     15  H   UNL     1      -2.478  11.138  20.225  0.00  0.00    +0.000 HD
ENDBRANCH   7  14
ENDBRANCH   1   2
BRANCH   1  17
ATOM     16  C   UNL     1       2.022   7.800  17.702  0.00  0.00    +0.000 C 
ATOM     17  C   UNL     1       2.337   8.182  19.137  0.00  0.00    +0.000 C 
ENDBRANCH   1  17
BRANCH   1  18
ATOM     18  N   UNL     1       2.011   6.470  21.052  0.00  0.00    +0.000 NA
ATOM     19  H   UNL     1       1.810   6.569  22.049  0.00  0.00    +0.000 HD
BRANCH  18  20
ATOM     20  S   UNL     1       1.903   4.838  20.656  0.00  0.00    +0.000 S 
ATOM     21  O   UNL     1       2.395   4.029  21.742  0.00  0.00    +0.000 OA
ATOM     22  O   UNL     1       0.558   4.661  20.147  0.00  0.00    +0.000 OA
BRANCH  20  23
ATOM     23  C   UNL     1       3.000   4.652  19.271  0.00  0.00    +0.000 A 
ATOM     24  C   UNL     1       4.333   5.070  19.337  0.00  0.00    +0.000 A 
ATOM     25  C   UNL     1       5.164   4.879  18.230  0.00  0.00    +0.000 A 
ATOM     26  C   UNL     1       4.675   4.262  17.070  0.00  0.00    +0.000 A 
ATOM     27  C   UNL     1       5.538   4.073  15.856  0.00  0.00    +0.000 C 
ATOM     28  C   UNL     1       3.346   3.818  17.035  0.00  0.00    +0.000 A 
ATOM     29  C   UNL     1       2.513   4.002  18.135  0.00  0.00    +0.000 A 
ENDBRANCH  20  23
ENDBRANCH  18  20
ENDBRANCH   1  18
TORSDOF 6
ENDMDL
MODEL 7
REMARK VINA RESULT:      -7.2      3.984      5.858
REMARK  Name = 
REMARK  8 active torsions:
REMARK  status: ('A' for Active; 'I' for Inactive)
REMARK    1  A    between atoms: C_1  and  C_2
REMARK    2  A    between atoms: C_2  and  C_3
REMARK    3  A    between atoms: C_3  and  N_4
REMARK    4  A    between atoms: C_3  and  C_15
REMARK    5  A    between atoms: N_4  and  S_5
REMARK    6  A    between atoms: S_5  and  C_8
REMARK    7  A    between atoms: C_11  and  C_12
REMARK    8  A    between atoms: C_20  and  O_21
REMARK                            x       y       z     vdW  Elec       q    Type
REMARK                         _______ _______ _______ _____ _____    ______ ____
ROOT
ATOM      1  C   UNL     1       2.818   5.355  19.445  0.00  0.00    +0.000 C 
ENDROOT
BRANCH   1   2
ATOM      2  C   UNL     1       2.101   6.549  20.168  0.00  0.00    +0.000 C 
ATOM      3  O   UNL     1       1.972   6.504  21.397  0.00  0.00    +0.000 OA
ATOM      4  N   UNL     1       1.620   7.637  19.433  0.00  0.00    +0.000 N 
ATOM      5  C   UNL     1       1.844   7.881  18.008  0.00  0.00    +0.000 C 
ATOM      6  C   UNL     1       2.467   9.255  17.790  0.00  0.00    +0.000 C 
ATOM      7  C   UNL     1       1.586  10.354  18.389  0.00  0.00    +0.000 C 
ATOM      8  C   UNL     1       2.248  11.737  18.247  0.00  0.00    +0.000 C 
ATOM      9  C   UNL     1       1.390  12.841  18.866  0.00  0.00    +0.000 C 
ATOM     10  C   UNL     1       1.023  12.535  20.317  0.00  0.00    +0.000 C 
ATOM     11  C   UNL     1       0.402  11.142  20.485  0.00  0.00    +0.000 C 
ATOM     12  C   UNL     1       1.314  10.061  19.885  0.00  0.00    +0.000 C 
ATOM     13  C   UNL     1       0.754   8.642  20.079  0.00  0.00    +0.000 C 
BRANCH   7  14
ATOM     14  O   UNL     1       0.352  10.373  17.674  0.00  0.00    +0.000 OA
ATOM     15  H   UNL     1       0.426  11.010  16.949  0.00  0.00    +0.000 HD
ENDBRANCH   7  14
ENDBRANCH   1   2
BRANCH   1  17
ATOM     16  C   UNL     1       1.388   3.503  18.290  0.00  0.00    +0.000 C 
ATOM     17  C   UNL     1       1.931   4.920  18.271  0.00  0.00    +0.000 C 
ENDBRANCH   1  17
BRANCH   1  18
ATOM     18  N   UNL     1       4.206   5.793  19.146  0.00  0.00    +0.000 NA
ATOM     19  H   UNL     1       4.473   6.638  19.655  0.00  0.00    +0.000 HD
BRANCH  18  20
ATOM     20  S   UNL     1       5.546   4.778  19.077  0.00  0.00    +0.000 S 
ATOM     21  O   UNL     1       6.677   5.403  19.717  0.00  0.00    +0.000 OA
ATOM     22  O   UNL     1       5.063   3.485  19.520  0.00  0.00    +0.000 OA
BRANCH  20  23
ATOM     23  C   UNL     1       5.891   4.625  17.341  0.00  0.00    +0.000 A 
ATOM     24  C   UNL     1       7.139   4.974  16.814  0.00  0.00    +0.000 A 
ATOM     25  C   UNL     1       7.371   4.813  15.446  0.00  0.00    +0.000 A 
ATOM     26  C   UNL     1       6.372   4.293  14.610  0.00  0.00    +0.000 A 
ATOM     27  C   UNL     1       6.585   4.140  13.132  0.00  0.00    +0.000 C 
ATOM     28  C   UNL     1       5.141   3.917  15.163  0.00  0.00    +0.000 A 
ATOM     29  C   UNL     1       4.902   4.072  16.525  0.00  0.00    +0.000 A 
ENDBRANCH  20  23
ENDBRANCH  18  20
ENDBRANCH   1  18
TORSDOF 6
ENDMDL
MODEL 8
REMARK VINA RESULT:      -7.2      7.048     10.107
REMARK  Name = 
REMARK  8 active torsions:
REMARK  status: ('A' for Active; 'I' for Inactive)
REMARK    1  A    between atoms: C_1  and  C_2
REMARK    2  A    between atoms: C_2  and  C_3
REMARK    3  A    between atoms: C_3  and  N_4
REMARK    4  A    between atoms: C_3  and  C_15
REMARK    5  A    between atoms: N_4  and  S_5
REMARK    6  A    between atoms: S_5  and  C_8
REMARK    7  A    between atoms: C_11  and  C_12
REMARK    8  A    between atoms: C_20  and  O_21
REMARK                            x       y       z     vdW  Elec       q    Type
REMARK                         _______ _______ _______ _____ _____    ______ ____
ROOT
ATOM      1  C   UNL     1       1.104  10.020  19.795  0.00  0.00    +0.000 C 
ENDROOT
BRANCH   1   2
ATOM      2  C   UNL     1       1.000   8.626  20.507  0.00  0.00    +0.000 C 
ATOM      3  O   UNL     1       0.213   8.504  21.453  0.00  0.00    +0.000 OA
ATOM      4  N   UNL     1       1.782   7.550  20.078  0.00  0.00    +0.000 N 
ATOM      5  C   UNL     1       2.629   7.523  18.886  0.00  0.00    +0.000 C 
ATOM      6  C   UNL     1       2.255   6.349  17.988  0.00  0.00    +0.000 C 
ATOM      7  C   UNL     1       2.360   5.025  18.750  0.00  0.00    +0.000 C 
ATOM      8  C   UNL     1       1.904   3.843  17.877  0.00  0.00    +0.000 C 
ATOM      9  C   UNL     1       1.979   2.517  18.635  0.00  0.00    +0.000 C 
ATOM     10  C   UNL     1       1.216   2.572  19.957  0.00  0.00    +0.000 C 
ATOM     11  C   UNL     1       1.627   3.769  20.824  0.00  0.00    +0.000 C 
ATOM     12  C   UNL     1       1.499   5.083  20.035  0.00  0.00    +0.000 C 
ATOM     13  C   UNL     1       1.850   6.316  20.884  0.00  0.00    +0.000 C 
BRANCH   7  14
ATOM     14  O   UNL     1       3.728   4.822  19.100  0.00  0.00    +0.000 OA
ATOM     15  H   UNL     1       4.261   4.859  18.293  0.00  0.00    +0.000 HD
ENDBRANCH   7  14
ENDBRANCH   1   2
BRANCH   1  17
ATOM     16  C   UNL     1      -0.909  10.238  18.148  0.00  0.00    +0.000 C 
ATOM     17  C   UNL     1       0.544   9.862  18.375  0.00  0.00    +0.000 C 
ENDBRANCH   1  17
BRANCH   1  18
ATOM     18  N   UNL     1       0.462  11.019  20.690  0.00  0.00    +0.000 NA
ATOM     19  H   UNL     1       0.370  10.686  21.652  0.00  0.00    +0.000 HD
BRANCH  18  20
ATOM     20  S   UNL     1       0.841  12.658  20.737  0.00  0.00    +0.000 S 
ATOM     21  O   UNL     1       2.210  12.841  21.150  0.00  0.00    +0.000 OA
ATOM     22  O   UNL     1       0.368  13.191  19.475  0.00  0.00    +0.000 OA
BRANCH  20  23
ATOM     23  C   UNL     1      -0.223  13.316  21.999  0.00  0.00    +0.000 A 
ATOM     24  C   UNL     1      -0.085  14.632  22.453  0.00  0.00    +0.000 A 
ATOM     25  C   UNL     1      -0.962  15.112  23.429  0.00  0.00    +0.000 A 
ATOM     26  C   UNL     1      -1.979  14.293  23.939  0.00  0.00    +0.000 A 
ATOM     27  C   UNL     1      -2.914  14.774  25.010  0.00  0.00    +0.000 C 
ATOM     28  C   UNL     1      -2.123  12.989  23.446  0.00  0.00    +0.000 A 
ATOM     29  C   UNL     1      -1.255  12.504  22.471  0.00  0.00    +0.000 A 
ENDBRANCH  20  23
ENDBRANCH  18  20
ENDBRANCH   1  18
TORSDOF 6
ENDMDL
MODEL 9
REMARK VINA RESULT:      -7.1      6.933     10.136
REMARK  Name = 
REMARK  8 active torsions:
REMARK  status: ('A' for Active; 'I' for Inactive)
REMARK    1  A    between atoms: C_1  and  C_2
REMARK    2  A    between atoms: C_2  and  C_3
REMARK    3  A    between atoms: C_3  and  N_4
REMARK    4  A    between atoms: C_3  and  C_15
REMARK    5  A    between atoms: N_4  and  S_5
REMARK    6  A    between atoms: S_5  and  C_8
REMARK    7  A    between atoms: C_11  and  C_12
REMARK    8  A    between atoms: C_20  and  O_21
REMARK                            x       y       z     vdW  Elec       q    Type
REMARK                         _______ _______ _______ _____ _____    ______ ____
ROOT
ATOM      1  C   UNL     1       0.790   9.705  20.283  0.00  0.00    +0.000 C 
ENDROOT
BRANCH   1   2
ATOM      2  C   UNL     1       0.680   8.217  20.768  0.00  0.00    +0.000 C 
ATOM      3  O   UNL     1      -0.218   7.921  21.565  0.00  0.00    +0.000 OA
ATOM      4  N   UNL     1       1.581   7.252  20.307  0.00  0.00    +0.000 N 
ATOM      5  C   UNL     1       2.581   7.439  19.257  0.00  0.00    +0.000 C 
ATOM      6  C   UNL     1       2.407   6.397  18.158  0.00  0.00    +0.000 C 
ATOM      7  C   UNL     1       2.492   4.981  18.732  0.00  0.00    +0.000 C 
ATOM      8  C   UNL     1       2.234   3.923  17.644  0.00  0.00    +0.000 C 
ATOM      9  C   UNL     1       2.290   2.503  18.210  0.00  0.00    +0.000 C 
ATOM     10  C   UNL     1       1.354   2.327  19.404  0.00  0.00    +0.000 C 
ATOM     11  C   UNL     1       1.566   3.399  20.481  0.00  0.00    +0.000 C 
ATOM     12  C   UNL     1       1.463   4.808  19.876  0.00  0.00    +0.000 C 
ATOM     13  C   UNL     1       1.617   5.916  20.932  0.00  0.00    +0.000 C 
BRANCH   7  14
ATOM     14  O   UNL     1       3.810   4.786  19.242  0.00  0.00    +0.000 OA
ATOM     15  H   UNL     1       4.429   4.776  18.498  0.00  0.00    +0.000 HD
ENDBRANCH   7  14
ENDBRANCH   1   2
BRANCH   1  17
ATOM     16  C   UNL     1      -0.194   9.821  17.869  0.00  0.00    +0.000 C 
ATOM     17  C   UNL     1       1.023   9.685  18.766  0.00  0.00    +0.000 C 
ENDBRANCH   1  17
BRANCH   1  18
ATOM     18  N   UNL     1      -0.405  10.424  20.796  0.00  0.00    +0.000 NA
ATOM     19  H   UNL     1      -1.233   9.826  20.851  0.00  0.00    +0.000 HD
BRANCH  18  20
ATOM     20  S   UNL     1      -0.416  11.455  22.125  0.00  0.00    +0.000 S 
ATOM     21  O   UNL     1      -0.254  10.700  23.342  0.00  0.00    +0.000 OA
ATOM     22  O   UNL     1       0.505  12.521  21.783  0.00  0.00    +0.000 OA
BRANCH  20  23
ATOM     23  C   UNL     1      -2.044  12.166  22.114  0.00  0.00    +0.000 A 
ATOM     24  C   UNL     1      -2.637  12.607  20.926  0.00  0.00    +0.000 A 
ATOM     25  C   UNL     1      -3.929  13.135  20.964  0.00  0.00    +0.000 A 
ATOM     26  C   UNL     1      -4.634  13.211  22.174  0.00  0.00    +0.000 A 
ATOM     27  C   UNL     1      -6.011  13.804  22.247  0.00  0.00    +0.000 C 
ATOM     28  C   UNL     1      -4.036  12.733  23.348  0.00  0.00    +0.000 A 
ATOM     29  C   UNL     1      -2.749  12.202  23.318  0.00  0.00    +0.000 A 
ENDBRANCH  20  23
ENDBRANCH  18  20
ENDBRANCH   1  18
TORSDOF 6
ENDMDL
