MODEL 1
REMARK VINA RESULT:      -8.5      0.000      0.000
REMARK  Name = 
REMARK  5 active torsions:
REMARK  status: ('A' for Active; 'I' for Inactive)
REMARK    1  A    between atoms: C_1  and  N_2
REMARK    2  A    between atoms: C_9  and  N_10
REMARK    3  A    between atoms: C_11  and  C_13
REMARK    4  A    between atoms: N_15  and  C_16
REMARK    5  A    between atoms: C_16  and  C_17
REMARK                            x       y       z     vdW  Elec       q    Type
REMARK                         _______ _______ _______ _____ _____    ______ ____
ROOT
ATOM      1  N   UNL     1       1.879   7.230  19.667  0.00  0.00    +0.000 N 
ATOM      2  C   UNL     1       2.033   8.370  18.921  0.00  0.00    +0.000 C 
ATOM      3  O   UNL     1       2.889   8.490  18.053  0.00  0.00    +0.000 OA
ATOM      4  H   UNL     1       1.019   7.131  20.179  0.00  0.00    +0.000 HD
ENDROOT
BRANCH   1  13
ATOM      5  C   UNL     1       0.863   2.112  18.777  0.00  0.00    +0.000 C 
ATOM      6  N   UNL     1       1.383   3.456  19.009  0.00  0.00    +0.000 NA
ATOM      7  C   UNL     1       2.205   3.944  17.880  0.00  0.00    +0.000 C 
ATOM      8  C   UNL     1       3.605   3.287  17.799  0.00  0.00    +0.000 C 
ATOM      9  O   UNL     1       4.334   3.419  19.022  0.00  0.00    +0.000 OA
ATOM     10  C   UNL     1       3.585   2.870  20.108  0.00  0.00    +0.000 C 
ATOM     11  C   UNL     1       2.201   3.542  20.237  0.00  0.00    +0.000 C 
ATOM     12  C   UNL     1       2.330   5.029  20.597  0.00  0.00    +0.000 C 
ATOM     13  C   UNL     1       2.630   5.989  19.429  0.00  0.00    +0.000 C 
ATOM     14  C   UNL     1       2.295   5.469  18.021  0.00  0.00    +0.000 C 
ENDBRANCH   1  13
BRANCH   2  15
ATOM     15  C   UNL     1       1.088   9.456  19.252  0.00  0.00    +0.000 A 
ATOM     16  C   UNL     1       0.503  10.358  18.377  0.00  0.00    +0.000 A 
ATOM     17  N   UNL     1      -0.375  11.153  19.069  0.00  0.00    +0.000 N 
ATOM     18  C   UNL     1      -0.360  10.824  20.408  0.00  0.00    +0.000 A 
ATOM     19  C   UNL     1      -1.082  11.338  21.499  0.00  0.00    +0.000 A 
ATOM     20  C   UNL     1      -0.859  10.778  22.759  0.00  0.00    +0.000 A 
ATOM     21  C   UNL     1       0.055   9.745  22.920  0.00  0.00    +0.000 A 
ATOM     22  F   UNL     1       0.249   9.226  24.140  0.00  0.00    +0.000 F 
ATOM     23  C   UNL     1       0.766   9.230  21.837  0.00  0.00    +0.000 A 
ATOM     24  C   UNL     1       0.557   9.773  20.552  0.00  0.00    +0.000 A 
BRANCH  17  25
ATOM     25  C   UNL     1      -1.255  12.114  18.426  0.00  0.00    +0.000 C 
BRANCH  25  26
ATOM     26  C   UNL     1      -2.638  11.568  18.142  0.00  0.00    +0.000 C 
ATOM     27  F   UNL     1      -2.619  10.211  18.129  0.00  0.00    +0.000 F 
ATOM     28  F   UNL     1      -3.465  11.921  19.164  0.00  0.00    +0.000 F 
ENDBRANCH  25  26
ENDBRANCH  17  25
ENDBRANCH   2  15
TORSDOF 4
ENDMDL
MODEL 2
REMARK VINA RESULT:      -8.4      1.244      3.146
REMARK  Name = 
REMARK  5 active torsions:
REMARK  status: ('A' for Active; 'I' for Inactive)
REMARK    1  A    between atoms: C_1  and  N_2
REMARK    2  A    between atoms: C_9  and  N_10
REMARK    3  A    between atoms: C_11  and  C_13
REMARK    4  A    between atoms: N_15  and  C_16
REMARK    5  A    between atoms: C_16  and  C_17
REMARK                            x       y       z     vdW  Elec       q    Type
REMARK                         _______ _______ _______ _____ _____    ______ ____
ROOT
ATOM      1  N   UNL     1       1.832   7.449  19.712  0.00  0.00    +0.000 N 
ATOM      2  C   UNL     1       1.790   8.647  19.045  0.00  0.00    +0.000 C 
ATOM      3  O   UNL     1       2.509   8.903  18.086  0.00  0.00    +0.000 OA
ATOM      4  H   UNL     1       1.060   7.238  20.320  0.00  0.00    +0.000 HD
ENDROOT
BRANCH   1  13
ATOM      5  C   UNL     1       1.167   2.283  18.768  0.00  0.00    +0.000 C 
ATOM      6  N   UNL     1       1.589   3.666  18.969  0.00  0.00    +0.000 NA
ATOM      7  C   UNL     1       2.138   4.271  17.735  0.00  0.00    +0.000 C 
ATOM      8  C   UNL     1       3.556   3.766  17.371  0.00  0.00    +0.000 C 
ATOM      9  O   UNL     1       4.481   3.934  18.449  0.00  0.00    +0.000 OA
ATOM     10  C   UNL     1       4.001   3.278  19.623  0.00  0.00    +0.000 C 
ATOM     11  C   UNL     1       2.607   3.799  20.032  0.00  0.00    +0.000 C 
ATOM     12  C   UNL     1       2.656   5.279  20.435  0.00  0.00    +0.000 C 
ATOM     13  C   UNL     1       2.641   6.301  19.281  0.00  0.00    +0.000 C 
ATOM     14  C   UNL     1       2.105   5.792  17.933  0.00  0.00    +0.000 C 
ENDBRANCH   1  13
BRANCH   2  15
ATOM     15  C   UNL     1       0.814   9.617  19.579  0.00  0.00    +0.000 A 
ATOM     16  C   UNL     1       0.844  10.247  20.815  0.00  0.00    +0.000 A 
ATOM     17  N   UNL     1      -0.199  11.135  20.893  0.00  0.00    +0.000 N 
ATOM     18  C   UNL     1      -0.955  11.083  19.741  0.00  0.00    +0.000 A 
ATOM     19  C   UNL     1      -2.099  11.798  19.348  0.00  0.00    +0.000 A 
ATOM     20  C   UNL     1      -2.642  11.532  18.089  0.00  0.00    +0.000 A 
ATOM     21  C   UNL     1      -2.062  10.584  17.256  0.00  0.00    +0.000 A 
ATOM     22  F   UNL     1      -2.603  10.350  16.054  0.00  0.00    +0.000 F 
ATOM     23  C   UNL     1      -0.922   9.879  17.643  0.00  0.00    +0.000 A 
ATOM     24  C   UNL     1      -0.350  10.131  18.907  0.00  0.00    +0.000 A 
BRANCH  17  25
ATOM     25  C   UNL     1      -0.376  12.056  22.002  0.00  0.00    +0.000 C 
BRANCH  25  26
ATOM     26  C   UNL     1      -1.367  11.569  23.037  0.00  0.00    +0.000 C 
ATOM     27  F   UNL     1      -2.638  11.830  22.638  0.00  0.00    +0.000 F 
ATOM     28  F   UNL     1      -1.274  10.214  23.128  0.00  0.00    +0.000 F 
ENDBRANCH  25  26
ENDBRANCH  17  25
ENDBRANCH   2  15
TORSDOF 4
ENDMDL
MODEL 3
REMARK VINA RESULT:      -8.3      3.952      8.208
REMARK  Name = 
REMARK  5 active torsions:
REMARK  status: ('A' for Active; 'I' for Inactive)
REMARK    1  A    between atoms: C_1  and  N_2
REMARK    2  A    between atoms: C_9  and  N_10
REMARK    3  A    between atoms: C_11  and  C_13
REMARK    4  A    between atoms: N_15  and  C_16
REMARK    5  A    between atoms: C_16  and  C_17
REMARK                            x       y       z     vdW  Elec       q    Type
REMARK                         _______ _______ _______ _____ _____    ______ ____
ROOT
ATOM      1  N   UNL     1       2.141   8.863  17.567  0.00  0.00    +0.000 N 
ATOM      2  C   UNL     1       2.396   7.879  18.487  0.00  0.00    +0.000 C 
ATOM      3  O   UNL     1       2.011   7.935  19.649  0.00  0.00    +0.000 OA
ATOM      4  H   UNL     1       2.283   8.631  16.599  0.00  0.00    +0.000 HD
ENDROOT
BRANCH   1  13
ATOM      5  C   UNL     1      -0.508  10.975  21.633  0.00  0.00    +0.000 C 
ATOM      6  N   UNL     1       0.129  10.583  20.379  0.00  0.00    +0.000 NA
ATOM      7  C   UNL     1       1.049  11.622  19.867  0.00  0.00    +0.000 C 
ATOM      8  C   UNL     1       0.327  12.847  19.255  0.00  0.00    +0.000 C 
ATOM      9  O   UNL     1      -0.599  12.471  18.231  0.00  0.00    +0.000 OA
ATOM     10  C   UNL     1      -1.548  11.532  18.741  0.00  0.00    +0.000 C 
ATOM     11  C   UNL     1      -0.852  10.280  19.316  0.00  0.00    +0.000 C 
ATOM     12  C   UNL     1      -0.112   9.496  18.223  0.00  0.00    +0.000 C 
ATOM     13  C   UNL     1       1.280  10.025  17.828  0.00  0.00    +0.000 C 
ATOM     14  C   UNL     1       1.974  10.936  18.854  0.00  0.00    +0.000 C 
ENDBRANCH   1  13
BRANCH   2  15
ATOM     15  C   UNL     1       3.184   6.741  17.972  0.00  0.00    +0.000 A 
ATOM     16  C   UNL     1       4.462   6.778  17.434  0.00  0.00    +0.000 A 
ATOM     17  N   UNL     1       4.868   5.499  17.150  0.00  0.00    +0.000 N 
ATOM     18  C   UNL     1       3.865   4.603  17.453  0.00  0.00    +0.000 A 
ATOM     19  C   UNL     1       3.807   3.202  17.351  0.00  0.00    +0.000 A 
ATOM     20  C   UNL     1       2.637   2.559  17.760  0.00  0.00    +0.000 A 
ATOM     21  C   UNL     1       1.564   3.291  18.251  0.00  0.00    +0.000 A 
ATOM     22  F   UNL     1       0.454   2.649  18.636  0.00  0.00    +0.000 F 
ATOM     23  C   UNL     1       1.623   4.680  18.359  0.00  0.00    +0.000 A 
ATOM     24  C   UNL     1       2.794   5.356  17.958  0.00  0.00    +0.000 A 
BRANCH  17  25
ATOM     25  C   UNL     1       6.211   5.172  16.701  0.00  0.00    +0.000 C 
BRANCH  25  26
ATOM     26  C   UNL     1       7.227   5.134  17.821  0.00  0.00    +0.000 C 
ATOM     27  F   UNL     1       8.178   4.198  17.567  0.00  0.00    +0.000 F 
ATOM     28  F   UNL     1       7.879   6.328  17.861  0.00  0.00    +0.000 F 
ENDBRANCH  25  26
ENDBRANCH  17  25
ENDBRANCH   2  15
TORSDOF 4
ENDMDL
MODEL 4
REMARK VINA RESULT:      -8.3      3.920      8.117
REMARK  Name = 
REMARK  5 active torsions:
REMARK  status: ('A' for Active; 'I' for Inactive)
REMARK    1  A    between atoms: C_1  and  N_2
REMARK    2  A    between atoms: C_9  and  N_10
REMARK    3  A    between atoms: C_11  and  C_13
REMARK    4  A    between atoms: N_15  and  C_16
REMARK    5  A    between atoms: C_16  and  C_17
REMARK                            x       y       z     vdW  Elec       q    Type
REMARK                         _______ _______ _______ _____ _____    ______ ____
ROOT
ATOM      1  N   UNL     1       2.114   8.822  17.573  0.00  0.00    +0.000 N 
ATOM      2  C   UNL     1       2.373   7.849  18.505  0.00  0.00    +0.000 C 
ATOM      3  O   UNL     1       1.978   7.912  19.663  0.00  0.00    +0.000 OA
ATOM      4  H   UNL     1       2.267   8.582  16.608  0.00  0.00    +0.000 HD
ENDROOT
BRANCH   1  13
ATOM      5  C   UNL     1      -0.138  11.268  21.691  0.00  0.00    +0.000 C 
ATOM      6  N   UNL     1       0.366  10.765  20.417  0.00  0.00    +0.000 NA
ATOM      7  C   UNL     1       1.171  11.774  19.693  0.00  0.00    +0.000 C 
ATOM      8  C   UNL     1       0.326  12.900  19.050  0.00  0.00    +0.000 C 
ATOM      9  O   UNL     1      -0.695  12.385  18.190  0.00  0.00    +0.000 OA
ATOM     10  C   UNL     1      -1.533  11.475  18.905  0.00  0.00    +0.000 C 
ATOM     11  C   UNL     1      -0.716  10.316  19.517  0.00  0.00    +0.000 C 
ATOM     12  C   UNL     1      -0.074   9.444  18.429  0.00  0.00    +0.000 C 
ATOM     13  C   UNL     1       1.237   9.975  17.816  0.00  0.00    +0.000 C 
ATOM     14  C   UNL     1       2.002  11.014  18.651  0.00  0.00    +0.000 C 
ENDBRANCH   1  13
BRANCH   2  15
ATOM     15  C   UNL     1       3.180   6.717  18.006  0.00  0.00    +0.000 A 
ATOM     16  C   UNL     1       4.469   6.762  17.498  0.00  0.00    +0.000 A 
ATOM     17  N   UNL     1       4.889   5.485  17.222  0.00  0.00    +0.000 N 
ATOM     18  C   UNL     1       3.885   4.583  17.502  0.00  0.00    +0.000 A 
ATOM     19  C   UNL     1       3.838   3.183  17.398  0.00  0.00    +0.000 A 
ATOM     20  C   UNL     1       2.663   2.532  17.779  0.00  0.00    +0.000 A 
ATOM     21  C   UNL     1       1.575   3.257  18.245  0.00  0.00    +0.000 A 
ATOM     22  F   UNL     1       0.460   2.608  18.605  0.00  0.00    +0.000 F 
ATOM     23  C   UNL     1       1.622   4.646  18.356  0.00  0.00    +0.000 A 
ATOM     24  C   UNL     1       2.798   5.330  17.982  0.00  0.00    +0.000 A 
BRANCH  17  25
ATOM     25  C   UNL     1       6.244   5.168  16.804  0.00  0.00    +0.000 C 
BRANCH  25  26
ATOM     26  C   UNL     1       6.362   4.856  15.328  0.00  0.00    +0.000 C 
ATOM     27  F   UNL     1       6.235   3.521  15.114  0.00  0.00    +0.000 F 
ATOM     28  F   UNL     1       5.321   5.441  14.674  0.00  0.00    +0.000 F 
ENDBRANCH  25  26
ENDBRANCH  17  25
ENDBRANCH   2  15
TORSDOF 4
ENDMDL
MODEL 5
REMARK VINA RESULT:      -8.2      4.033      8.269
REMARK  Name = 
REMARK  5 active torsions:
REMARK  status: ('A' for Active; 'I' for Inactive)
REMARK    1  A    between atoms: C_1  and  N_2
REMARK    2  A    between atoms: C_9  and  N_10
REMARK    3  A    between atoms: C_11  and  C_13
REMARK    4  A    between atoms: N_15  and  C_16
REMARK    5  A    between atoms: C_16  and  C_17
REMARK                            x       y       z     vdW  Elec       q    Type
REMARK                         _______ _______ _______ _____ _____    ______ ____
ROOT
ATOM      1  N   UNL     1       1.395   8.957  18.799  0.00  0.00    +0.000 N 
ATOM      2  C   UNL     1       1.901   7.829  19.393  0.00  0.00    +0.000 C 
ATOM      3  O   UNL     1       1.684   7.535  20.562  0.00  0.00    +0.000 OA
ATOM      4  H   UNL     1       1.424   8.996  17.794  0.00  0.00    +0.000 HD
ENDROOT
BRANCH   1  13
ATOM      5  C   UNL     1      -0.061  14.036  18.481  0.00  0.00    +0.000 C 
ATOM      6  N   UNL     1       0.172  12.620  18.752  0.00  0.00    +0.000 NA
ATOM      7  C   UNL     1      -1.043  11.801  18.547  0.00  0.00    +0.000 C 
ATOM      8  C   UNL     1      -2.100  11.965  19.667  0.00  0.00    +0.000 C 
ATOM      9  O   UNL     1      -1.555  11.709  20.964  0.00  0.00    +0.000 OA
ATOM     10  C   UNL     1      -0.432  12.559  21.207  0.00  0.00    +0.000 C 
ATOM     11  C   UNL     1       0.656  12.379  20.127  0.00  0.00    +0.000 C 
ATOM     12  C   UNL     1       1.254  10.966  20.160  0.00  0.00    +0.000 C 
ATOM     13  C   UNL     1       0.441   9.866  19.449  0.00  0.00    +0.000 C 
ATOM     14  C   UNL     1      -0.579  10.346  18.404  0.00  0.00    +0.000 C 
ENDBRANCH   1  13
BRANCH   2  15
ATOM     15  C   UNL     1       2.744   6.994  18.513  0.00  0.00    +0.000 A 
ATOM     16  C   UNL     1       3.857   7.392  17.789  0.00  0.00    +0.000 A 
ATOM     17  N   UNL     1       4.403   6.299  17.165  0.00  0.00    +0.000 N 
ATOM     18  C   UNL     1       3.648   5.176  17.426  0.00  0.00    +0.000 A 
ATOM     19  C   UNL     1       3.805   3.837  17.027  0.00  0.00    +0.000 A 
ATOM     20  C   UNL     1       2.869   2.903  17.475  0.00  0.00    +0.000 A 
ATOM     21  C   UNL     1       1.814   3.294  18.288  0.00  0.00    +0.000 A 
ATOM     22  F   UNL     1       0.931   2.376  18.703  0.00  0.00    +0.000 F 
ATOM     23  C   UNL     1       1.662   4.620  18.690  0.00  0.00    +0.000 A 
ATOM     24  C   UNL     1       2.595   5.585  18.258  0.00  0.00    +0.000 A 
BRANCH  17  25
ATOM     25  C   UNL     1       5.659   6.345  16.435  0.00  0.00    +0.000 C 
BRANCH  25  26
ATOM     26  C   UNL     1       6.873   6.134  17.313  0.00  0.00    +0.000 C 
ATOM     27  F   UNL     1       7.517   4.991  16.964  0.00  0.00    +0.000 F 
ATOM     28  F   UNL     1       7.757   7.145  17.088  0.00  0.00    +0.000 F 
ENDBRANCH  25  26
ENDBRANCH  17  25
ENDBRANCH   2  15
TORSDOF 4
ENDMDL
MODEL 6
REMARK VINA RESULT:      -8.2      3.389      8.144
REMARK  Name = 
REMARK  5 active torsions:
REMARK  status: ('A' for Active; 'I' for Inactive)
REMARK    1  A    between atoms: C_1  and  N_2
REMARK    2  A    between atoms: C_9  and  N_10
REMARK    3  A    between atoms: C_11  and  C_13
REMARK    4  A    between atoms: N_15  and  C_16
REMARK    5  A    between atoms: C_16  and  C_17
REMARK                            x       y       z     vdW  Elec       q    Type
REMARK                         _______ _______ _______ _____ _____    ______ ____
ROOT
ATOM      1  N   UNL     1       1.398   9.089  19.344  0.00  0.00    +0.000 N 
ATOM      2  C   UNL     1       2.105   8.456  18.354  0.00  0.00    +0.000 C 
ATOM      3  O   UNL     1       2.306   8.956  17.253  0.00  0.00    +0.000 OA
ATOM      4  H   UNL     1       1.484   8.718  20.275  0.00  0.00    +0.000 HD
ENDROOT
BRANCH   1  13
ATOM      5  C   UNL     1      -2.202  12.184  21.685  0.00  0.00    +0.000 C 
ATOM      6  N   UNL     1      -1.160  11.530  20.898  0.00  0.00    +0.000 NA
ATOM      7  C   UNL     1       0.152  12.201  21.034  0.00  0.00    +0.000 C 
ATOM      8  C   UNL     1       0.248  13.543  20.268  0.00  0.00    +0.000 C 
ATOM      9  O   UNL     1      -0.081  13.398  18.884  0.00  0.00    +0.000 OA
ATOM     10  C   UNL     1      -1.386  12.830  18.741  0.00  0.00    +0.000 C 
ATOM     11  C   UNL     1      -1.491  11.468  19.460  0.00  0.00    +0.000 C 
ATOM     12  C   UNL     1      -0.566  10.422  18.822  0.00  0.00    +0.000 C 
ATOM     13  C   UNL     1       0.914  10.473  19.247  0.00  0.00    +0.000 C 
ATOM     14  C   UNL     1       1.215  11.197  20.570  0.00  0.00    +0.000 C 
ENDBRANCH   1  13
BRANCH   2  15
ATOM     15  C   UNL     1       2.602   7.112  18.712  0.00  0.00    +0.000 A 
ATOM     16  C   UNL     1       2.208   6.329  19.787  0.00  0.00    +0.000 A 
ATOM     17  N   UNL     1       2.848   5.117  19.720  0.00  0.00    +0.000 N 
ATOM     18  C   UNL     1       3.698   5.088  18.635  0.00  0.00    +0.000 A 
ATOM     19  C   UNL     1       4.547   4.080  18.146  0.00  0.00    +0.000 A 
ATOM     20  C   UNL     1       5.287   4.345  16.992  0.00  0.00    +0.000 A 
ATOM     21  C   UNL     1       5.184   5.573  16.353  0.00  0.00    +0.000 A 
ATOM     22  F   UNL     1       5.905   5.800  15.248  0.00  0.00    +0.000 F 
ATOM     23  C   UNL     1       4.337   6.571  16.833  0.00  0.00    +0.000 A 
ATOM     24  C   UNL     1       3.573   6.330  17.994  0.00  0.00    +0.000 A 
BRANCH  17  25
ATOM     25  C   UNL     1       2.557   4.014  20.618  0.00  0.00    +0.000 C 
BRANCH  25  26
ATOM     26  C   UNL     1       1.087   3.659  20.680  0.00  0.00    +0.000 C 
ATOM     27  F   UNL     1       0.668   3.163  19.488  0.00  0.00    +0.000 F 
ATOM     28  F   UNL     1       0.917   2.656  21.584  0.00  0.00    +0.000 F 
ENDBRANCH  25  26
ENDBRANCH  17  25
ENDBRANCH   2  15
TORSDOF 4
ENDMDL
MODEL 7
REMARK VINA RESULT:      -8.2      1.156      1.372
REMARK  Name = 
REMARK  5 active torsions:
REMARK  status: ('A' for Active; 'I' for Inactive)
REMARK    1  A    between atoms: C_1  and  N_2
REMARK    2  A    between atoms: C_9  and  N_10
REMARK    3  A    between atoms: C_11  and  C_13
REMARK    4  A    between atoms: N_15  and  C_16
REMARK    5  A    between atoms: C_16  and  C_17
REMARK                            x       y       z     vdW  Elec       q    Type
REMARK                         _______ _______ _______ _____ _____    ______ ____
ROOT
ATOM      1  N   UNL     1       1.918   7.137  19.750  0.00  0.00    +0.000 N 
ATOM      2  C   UNL     1       2.097   8.251  18.970  0.00  0.00    +0.000 C 
ATOM      3  O   UNL     1       2.951   8.322  18.093  0.00  0.00    +0.000 OA
ATOM      4  H   UNL     1       1.059   7.078  20.270  0.00  0.00    +0.000 HD
ENDROOT
BRANCH   1  13
ATOM      5  C   UNL     1       0.758   2.059  18.814  0.00  0.00    +0.000 C 
ATOM      6  N   UNL     1       1.315   3.384  19.070  0.00  0.00    +0.000 NA
ATOM      7  C   UNL     1       2.204   3.840  17.978  0.00  0.00    +0.000 C 
ATOM      8  C   UNL     1       3.581   3.133  17.958  0.00  0.00    +0.000 C 
ATOM      9  O   UNL     1       4.260   3.239  19.212  0.00  0.00    +0.000 OA
ATOM     10  C   UNL     1       3.444   2.719  20.264  0.00  0.00    +0.000 C 
ATOM     11  C   UNL     1       2.081   3.442  20.332  0.00  0.00    +0.000 C 
ATOM     12  C   UNL     1       2.248   4.923  20.698  0.00  0.00    +0.000 C 
ATOM     13  C   UNL     1       2.633   5.870  19.545  0.00  0.00    +0.000 C 
ATOM     14  C   UNL     1       2.342   5.361  18.124  0.00  0.00    +0.000 C 
ENDBRANCH   1  13
BRANCH   2  15
ATOM     15  C   UNL     1       1.184   9.371  19.274  0.00  0.00    +0.000 A 
ATOM     16  C   UNL     1       0.646  10.284  18.379  0.00  0.00    +0.000 A 
ATOM     17  N   UNL     1      -0.216  11.115  19.048  0.00  0.00    +0.000 N 
ATOM     18  C   UNL     1      -0.236  10.799  20.390  0.00  0.00    +0.000 A 
ATOM     19  C   UNL     1      -0.958  11.348  21.463  0.00  0.00    +0.000 A 
ATOM     20  C   UNL     1      -0.776  10.794  22.732  0.00  0.00    +0.000 A 
ATOM     21  C   UNL     1       0.099   9.732  22.920  0.00  0.00    +0.000 A 
ATOM     22  F   UNL     1       0.254   9.220  24.147  0.00  0.00    +0.000 F 
ATOM     23  C   UNL     1       0.811   9.183  21.854  0.00  0.00    +0.000 A 
ATOM     24  C   UNL     1       0.643   9.719  20.561  0.00  0.00    +0.000 A 
BRANCH  17  25
ATOM     25  C   UNL     1      -1.052  12.098  18.380  0.00  0.00    +0.000 C 
BRANCH  25  26
ATOM     26  C   UNL     1      -0.491  13.503  18.435  0.00  0.00    +0.000 C 
ATOM     27  F   UNL     1      -0.918  14.140  19.555  0.00  0.00    +0.000 F 
ATOM     28  F   UNL     1       0.864  13.429  18.540  0.00  0.00    +0.000 F 
ENDBRANCH  25  26
ENDBRANCH  17  25
ENDBRANCH   2  15
TORSDOF 4
ENDMDL
MODEL 8
REMARK VINA RESULT:      -8.1      1.590      3.486
REMARK  Name = 
REMARK  5 active torsions:
REMARK  status: ('A' for Active; 'I' for Inactive)
REMARK    1  A    between atoms: C_1  and  N_2
REMARK    2  A    between atoms: C_9  and  N_10
REMARK    3  A    between atoms: C_11  and  C_13
REMARK    4  A    between atoms: N_15  and  C_16
REMARK    5  A    between atoms: C_16  and  C_17
REMARK                            x       y       z     vdW  Elec       q    Type
REMARK                         _______ _______ _______ _____ _____    ______ ____
ROOT
ATOM      1  N   UNL     1       1.900   7.548  18.818  0.00  0.00    +0.000 N 
ATOM      2  C   UNL     1       1.771   8.791  18.254  0.00  0.00    +0.000 C 
ATOM      3  O   UNL     1       2.401   9.145  17.265  0.00  0.00    +0.000 OA
ATOM      4  H   UNL     1       1.186   7.264  19.467  0.00  0.00    +0.000 HD
ENDROOT
BRANCH   1  13
ATOM      5  C   UNL     1       3.568   2.707  20.162  0.00  0.00    +0.000 C 
ATOM      6  N   UNL     1       3.235   4.004  19.580  0.00  0.00    +0.000 NA
ATOM      7  C   UNL     1       2.489   3.874  18.309  0.00  0.00    +0.000 C 
ATOM      8  C   UNL     1       3.366   3.429  17.114  0.00  0.00    +0.000 C 
ATOM      9  O   UNL     1       4.498   4.285  16.927  0.00  0.00    +0.000 OA
ATOM     10  C   UNL     1       5.275   4.347  18.125  0.00  0.00    +0.000 C 
ATOM     11  C   UNL     1       4.431   4.833  19.322  0.00  0.00    +0.000 C 
ATOM     12  C   UNL     1       3.951   6.278  19.123  0.00  0.00    +0.000 C 
ATOM     13  C   UNL     1       2.704   6.465  18.235  0.00  0.00    +0.000 C 
ATOM     14  C   UNL     1       1.812   5.227  18.051  0.00  0.00    +0.000 C 
ENDBRANCH   1  13
BRANCH   2  15
ATOM     15  C   UNL     1       0.813   9.683  18.940  0.00  0.00    +0.000 A 
ATOM     16  C   UNL     1       0.980  10.313  20.164  0.00  0.00    +0.000 A 
ATOM     17  N   UNL     1      -0.105  11.117  20.407  0.00  0.00    +0.000 N 
ATOM     18  C   UNL     1      -1.019  11.006  19.381  0.00  0.00    +0.000 A 
ATOM     19  C   UNL     1      -2.261  11.630  19.171  0.00  0.00    +0.000 A 
ATOM     20  C   UNL     1      -2.963  11.323  18.004  0.00  0.00    +0.000 A 
ATOM     21  C   UNL     1      -2.443  10.423  17.083  0.00  0.00    +0.000 A 
ATOM     22  F   UNL     1      -3.139  10.148  15.972  0.00  0.00    +0.000 F 
ATOM     23  C   UNL     1      -1.208   9.809  17.287  0.00  0.00    +0.000 A 
ATOM     24  C   UNL     1      -0.474  10.104  18.455  0.00  0.00    +0.000 A 
BRANCH  17  25
ATOM     25  C   UNL     1      -0.185  12.022  21.541  0.00  0.00    +0.000 C 
BRANCH  25  26
ATOM     26  C   UNL     1      -1.099  11.529  22.642  0.00  0.00    +0.000 C 
ATOM     27  F   UNL     1      -0.535  10.479  23.292  0.00  0.00    +0.000 F 
ATOM     28  F   UNL     1      -1.236  12.515  23.571  0.00  0.00    +0.000 F 
ENDBRANCH  25  26
ENDBRANCH  17  25
ENDBRANCH   2  15
TORSDOF 4
ENDMDL
MODEL 9
REMARK VINA RESULT:      -8.1      3.721      8.053
REMARK  Name = 
REMARK  5 active torsions:
REMARK  status: ('A' for Active; 'I' for Inactive)
REMARK    1  A    between atoms: C_1  and  N_2
REMARK    2  A    between atoms: C_9  and  N_10
REMARK    3  A    between atoms: C_11  and  C_13
REMARK    4  A    between atoms: N_15  and  C_16
REMARK    5  A    between atoms: C_16  and  C_17
REMARK                            x       y       z     vdW  Elec       q    Type
REMARK                         _______ _______ _______ _____ _____    ______ ____
ROOT
ATOM      1  N   UNL     1       1.506   8.679  18.969  0.00  0.00    +0.000 N 
ATOM      2  C   UNL     1       1.911   7.525  19.588  0.00  0.00    +0.000 C 
ATOM      3  O   UNL     1       1.629   7.255  20.750  0.00  0.00    +0.000 OA
ATOM      4  H   UNL     1       1.576   8.708  17.966  0.00  0.00    +0.000 HD
ENDROOT
BRANCH   1  13
ATOM      5  C   UNL     1       0.502  13.867  18.663  0.00  0.00    +0.000 C 
ATOM      6  N   UNL     1       0.598  12.433  18.919  0.00  0.00    +0.000 NA
ATOM      7  C   UNL     1      -0.665  11.723  18.622  0.00  0.00    +0.000 C 
ATOM      8  C   UNL     1      -1.775  11.958  19.675  0.00  0.00    +0.000 C 
ATOM      9  O   UNL     1      -1.339  11.638  20.999  0.00  0.00    +0.000 OA
ATOM     10  C   UNL     1      -0.167  12.386  21.330  0.00  0.00    +0.000 C 
ATOM     11  C   UNL     1       0.971  12.132  20.317  0.00  0.00    +0.000 C 
ATOM     12  C   UNL     1       1.445  10.672  20.359  0.00  0.00    +0.000 C 
ATOM     13  C   UNL     1       0.591   9.656  19.576  0.00  0.00    +0.000 C 
ATOM     14  C   UNL     1      -0.316  10.236  18.479  0.00  0.00    +0.000 C 
ENDBRANCH   1  13
BRANCH   2  15
ATOM     15  C   UNL     1       2.729   6.628  18.747  0.00  0.00    +0.000 A 
ATOM     16  C   UNL     1       3.924   6.929  18.111  0.00  0.00    +0.000 A 
ATOM     17  N   UNL     1       4.404   5.799  17.498  0.00  0.00    +0.000 N 
ATOM     18  C   UNL     1       3.528   4.750  17.679  0.00  0.00    +0.000 A 
ATOM     19  C   UNL     1       3.583   3.410  17.258  0.00  0.00    +0.000 A 
ATOM     20  C   UNL     1       2.532   2.564  17.617  0.00  0.00    +0.000 A 
ATOM     21  C   UNL     1       1.465   3.041  18.367  0.00  0.00    +0.000 A 
ATOM     22  F   UNL     1       0.471   2.207  18.697  0.00  0.00    +0.000 F 
ATOM     23  C   UNL     1       1.414   4.369  18.791  0.00  0.00    +0.000 A 
ATOM     24  C   UNL     1       2.464   5.245  18.447  0.00  0.00    +0.000 A 
BRANCH  17  25
ATOM     25  C   UNL     1       5.707   5.736  16.857  0.00  0.00    +0.000 C 
BRANCH  25  26
ATOM     26  C   UNL     1       5.648   5.906  15.354  0.00  0.00    +0.000 C 
ATOM     27  F   UNL     1       5.126   4.797  14.771  0.00  0.00    +0.000 F 
ATOM     28  F   UNL     1       4.790   6.921  15.062  0.00  0.00    +0.000 F 
ENDBRANCH  25  26
ENDBRANCH  17  25
ENDBRANCH   2  15
TORSDOF 4
ENDMDL
