MODEL 1
REMARK VINA RESULT:      -8.3      0.000      0.000
REMARK  Name = 
REMARK  7 active torsions:
REMARK  status: ('A' for Active; 'I' for Inactive)
REMARK    1  A    between atoms: C_1  and  O_2
REMARK    2  A    between atoms: O_2  and  C_3
REMARK    3  A    between atoms: C_6  and  C_7
REMARK    4  A    between atoms: C_12  and  C_13
REMARK    5  A    between atoms: C_13  and  C_14
REMARK    6  A    between atoms: C_14  and  N_15
REMARK    7  A    between atoms: C_16  and  C_18
REMARK                            x       y       z     vdW  Elec       q    Type
REMARK                         _______ _______ _______ _____ _____    ______ ____
ROOT
ATOM      1  C   UNL     1       2.146   6.703  19.924  0.00  0.00    +0.000 A 
ATOM      2  N   UNL     1       1.507   5.961  20.900  0.00  0.00    +0.000 NA
ATOM      3  C   UNL     1       2.106   4.821  20.811  0.00  0.00    +0.000 A 
ATOM      4  S   UNL     1       1.939   3.321  21.648  0.00  0.00    +0.000 S 
ATOM      5  C   UNL     1       3.238   2.686  20.653  0.00  0.00    +0.000 A 
ATOM      6  C   UNL     1       3.731   3.566  19.752  0.00  0.00    +0.000 A 
ATOM      7  N   UNL     1       3.080   4.800  19.846  0.00  0.00    +0.000 N 
ATOM      8  N   UNL     1       3.109   6.026  19.243  0.00  0.00    +0.000 NA
ENDROOT
BRANCH   1  12
ATOM      9  C   UNL     1       1.016  10.796  19.196  0.00  0.00    +0.000 A 
ATOM     10  C   UNL     1       1.631  10.025  18.217  0.00  0.00    +0.000 A 
ATOM     11  C   UNL     1       1.962   8.695  18.476  0.00  0.00    +0.000 A 
ATOM     12  C   UNL     1       1.714   8.097  19.729  0.00  0.00    +0.000 A 
ATOM     13  C   UNL     1       1.099   8.881  20.708  0.00  0.00    +0.000 A 
ATOM     14  C   UNL     1       0.752  10.225  20.442  0.00  0.00    +0.000 A 
BRANCH   9  16
ATOM     15  C   UNL     1      -0.575  12.502  18.766  0.00  0.00    +0.000 C 
ATOM     16  O   UNL     1       0.783  12.090  18.820  0.00  0.00    +0.000 OA
ENDBRANCH   9  16
ENDBRANCH   1  12
BRANCH   6  17
ATOM     17  C   UNL     1       4.809   3.171  18.788  0.00  0.00    +0.000 C 
BRANCH  17  18
ATOM     18  C   UNL     1       5.728   4.243  18.200  0.00  0.00    +0.000 C 
BRANCH  18  19
ATOM     19  N   UNL     1       5.918   4.044  16.759  0.00  0.00    +0.000 N 
ATOM     20  C   UNL     1       6.811   4.815  16.040  0.00  0.00    +0.000 C 
ATOM     21  O   UNL     1       7.508   5.669  16.584  0.00  0.00    +0.000 OA
ATOM     22  H   UNL     1       5.443   3.267  16.327  0.00  0.00    +0.000 HD
BRANCH  20  23
ATOM     23  C   UNL     1       6.925   4.615  14.553  0.00  0.00    +0.000 A 
ATOM     24  C   UNL     1       7.793   5.468  13.848  0.00  0.00    +0.000 A 
ATOM     25  C   UNL     1       7.935   5.378  12.460  0.00  0.00    +0.000 A 
ATOM     26  C   UNL     1       7.208   4.427  11.750  0.00  0.00    +0.000 A 
ATOM     27  C   UNL     1       6.347   3.574  12.439  0.00  0.00    +0.000 A 
ATOM     28 BR   UNL     1       5.350   2.288  11.470  0.00  0.00    +0.000 Br
ATOM     29  C   UNL     1       6.201   3.658  13.831  0.00  0.00    +0.000 A 
ENDBRANCH  20  23
ENDBRANCH  18  19
ENDBRANCH  17  18
ENDBRANCH   6  17
TORSDOF 6
ENDMDL
MODEL 2
REMARK VINA RESULT:      -8.0      0.794      1.209
REMARK  Name = 
REMARK  7 active torsions:
REMARK  status: ('A' for Active; 'I' for Inactive)
REMARK    1  A    between atoms: C_1  and  O_2
REMARK    2  A    between atoms: O_2  and  C_3
REMARK    3  A    between atoms: C_6  and  C_7
REMARK    4  A    between atoms: C_12  and  C_13
REMARK    5  A    between atoms: C_13  and  C_14
REMARK    6  A    between atoms: C_14  and  N_15
REMARK    7  A    between atoms: C_16  and  C_18
REMARK                            x       y       z     vdW  Elec       q    Type
REMARK                         _______ _______ _______ _____ _____    ______ ____
ROOT
ATOM      1  C   UNL     1       2.108   6.764  19.943  0.00  0.00    +0.000 A 
ATOM      2  N   UNL     1       1.348   5.974  20.785  0.00  0.00    +0.000 NA
ATOM      3  C   UNL     1       1.971   4.846  20.735  0.00  0.00    +0.000 A 
ATOM      4  S   UNL     1       1.711   3.309  21.475  0.00  0.00    +0.000 S 
ATOM      5  C   UNL     1       3.147   2.731  20.649  0.00  0.00    +0.000 A 
ATOM      6  C   UNL     1       3.750   3.654  19.866  0.00  0.00    +0.000 A 
ATOM      7  N   UNL     1       3.073   4.876  19.918  0.00  0.00    +0.000 N 
ATOM      8  N   UNL     1       3.168   6.128  19.378  0.00  0.00    +0.000 NA
ENDROOT
BRANCH   1  12
ATOM      9  C   UNL     1       0.751  10.834  19.540  0.00  0.00    +0.000 A 
ATOM     10  C   UNL     1       0.671  10.156  20.750  0.00  0.00    +0.000 A 
ATOM     11  C   UNL     1       1.142   8.847  20.855  0.00  0.00    +0.000 A 
ATOM     12  C   UNL     1       1.685   8.162  19.747  0.00  0.00    +0.000 A 
ATOM     13  C   UNL     1       1.757   8.850  18.534  0.00  0.00    +0.000 A 
ATOM     14  C   UNL     1       1.292  10.180  18.431  0.00  0.00    +0.000 A 
BRANCH   9  16
ATOM     15  C   UNL     1      -1.070  12.254  18.998  0.00  0.00    +0.000 C 
ATOM     16  O   UNL     1       0.219  12.093  19.572  0.00  0.00    +0.000 OA
ENDBRANCH   9  16
ENDBRANCH   1  12
BRANCH   6  17
ATOM     17  C   UNL     1       4.960   3.312  19.050  0.00  0.00    +0.000 C 
BRANCH  17  18
ATOM     18  C   UNL     1       5.954   4.411  18.673  0.00  0.00    +0.000 C 
BRANCH  18  19
ATOM     19  N   UNL     1       6.383   4.281  17.276  0.00  0.00    +0.000 N 
ATOM     20  C   UNL     1       5.579   4.708  16.236  0.00  0.00    +0.000 C 
ATOM     21  O   UNL     1       4.494   5.246  16.441  0.00  0.00    +0.000 OA
ATOM     22  H   UNL     1       7.320   3.954  17.103  0.00  0.00    +0.000 HD
BRANCH  20  23
ATOM     23  C   UNL     1       6.037   4.496  14.819  0.00  0.00    +0.000 A 
ATOM     24  C   UNL     1       7.259   5.078  14.437  0.00  0.00    +0.000 A 
ATOM     25  C   UNL     1       7.745   4.964  13.132  0.00  0.00    +0.000 A 
ATOM     26  C   UNL     1       7.013   4.261  12.180  0.00  0.00    +0.000 A 
ATOM     27  C   UNL     1       5.801   3.677  12.547  0.00  0.00    +0.000 A 
ATOM     28 BR   UNL     1       4.801   2.730  11.247  0.00  0.00    +0.000 Br
ATOM     29  C   UNL     1       5.309   3.786  13.855  0.00  0.00    +0.000 A 
ENDBRANCH  20  23
ENDBRANCH  18  19
ENDBRANCH  17  18
ENDBRANCH   6  17
TORSDOF 6
ENDMDL
MODEL 3
REMARK VINA RESULT:      -7.9      1.526      2.039
REMARK  Name = 
REMARK  7 active torsions:
REMARK  status: ('A' for Active; 'I' for Inactive)
REMARK    1  A    between atoms: C_1  and  O_2
REMARK    2  A    between atoms: O_2  and  C_3
REMARK    3  A    between atoms: C_6  and  C_7
REMARK    4  A    between atoms: C_12  and  C_13
REMARK    5  A    between atoms: C_13  and  C_14
REMARK    6  A    between atoms: C_14  and  N_15
REMARK    7  A    between atoms: C_16  and  C_18
REMARK                            x       y       z     vdW  Elec       q    Type
REMARK                         _______ _______ _______ _____ _____    ______ ____
ROOT
ATOM      1  C   UNL     1       1.461   7.669  20.519  0.00  0.00    +0.000 A 
ATOM      2  N   UNL     1       1.012   6.487  21.077  0.00  0.00    +0.000 NA
ATOM      3  C   UNL     1       1.866   5.632  20.624  0.00  0.00    +0.000 A 
ATOM      4  S   UNL     1       2.059   3.927  20.813  0.00  0.00    +0.000 S 
ATOM      5  C   UNL     1       3.475   4.030  19.782  0.00  0.00    +0.000 A 
ATOM      6  C   UNL     1       3.748   5.275  19.330  0.00  0.00    +0.000 A 
ATOM      7  N   UNL     1       2.821   6.201  19.820  0.00  0.00    +0.000 N 
ATOM      8  N   UNL     1       2.559   7.539  19.729  0.00  0.00    +0.000 NA
ENDROOT
BRANCH   1  12
ATOM      9  C   UNL     1      -0.814  11.172  21.581  0.00  0.00    +0.000 A 
ATOM     10  C   UNL     1      -0.482  10.206  22.523  0.00  0.00    +0.000 A 
ATOM     11  C   UNL     1       0.277   9.096  22.153  0.00  0.00    +0.000 A 
ATOM     12  C   UNL     1       0.709   8.899  20.824  0.00  0.00    +0.000 A 
ATOM     13  C   UNL     1       0.366   9.872  19.883  0.00  0.00    +0.000 A 
ATOM     14  C   UNL     1      -0.393  11.004  20.260  0.00  0.00    +0.000 A 
BRANCH   9  16
ATOM     15  C   UNL     1      -2.319  11.908  23.259  0.00  0.00    +0.000 C 
ATOM     16  O   UNL     1      -1.591  12.184  22.072  0.00  0.00    +0.000 OA
ENDBRANCH   9  16
ENDBRANCH   1  12
BRANCH   6  17
ATOM     17  C   UNL     1       4.893   5.532  18.397  0.00  0.00    +0.000 C 
BRANCH  17  18
ATOM     18  C   UNL     1       5.943   4.443  18.171  0.00  0.00    +0.000 C 
BRANCH  18  19
ATOM     19  N   UNL     1       6.123   4.170  16.740  0.00  0.00    +0.000 N 
ATOM     20  C   UNL     1       6.847   5.025  15.933  0.00  0.00    +0.000 C 
ATOM     21  O   UNL     1       7.401   6.024  16.385  0.00  0.00    +0.000 OA
ATOM     22  H   UNL     1       5.777   3.293  16.385  0.00  0.00    +0.000 HD
BRANCH  20  23
ATOM     23  C   UNL     1       6.952   4.734  14.460  0.00  0.00    +0.000 A 
ATOM     24  C   UNL     1       7.828   5.530  13.701  0.00  0.00    +0.000 A 
ATOM     25  C   UNL     1       7.961   5.354  12.321  0.00  0.00    +0.000 A 
ATOM     26  C   UNL     1       7.218   4.373  11.673  0.00  0.00    +0.000 A 
ATOM     27  C   UNL     1       6.348   3.575  12.415  0.00  0.00    +0.000 A 
ATOM     28 BR   UNL     1       5.330   2.247  11.530  0.00  0.00    +0.000 Br
ATOM     29  C   UNL     1       6.211   3.744  13.800  0.00  0.00    +0.000 A 
ENDBRANCH  20  23
ENDBRANCH  18  19
ENDBRANCH  17  18
ENDBRANCH   6  17
TORSDOF 6
ENDMDL
MODEL 4
REMARK VINA RESULT:      -7.7      5.287      7.242
REMARK  Name = 
REMARK  7 active torsions:
REMARK  status: ('A' for Active; 'I' for Inactive)
REMARK    1  A    between atoms: C_1  and  O_2
REMARK    2  A    between atoms: O_2  and  C_3
REMARK    3  A    between atoms: C_6  and  C_7
REMARK    4  A    between atoms: C_12  and  C_13
REMARK    5  A    between atoms: C_13  and  C_14
REMARK    6  A    between atoms: C_14  and  N_15
REMARK    7  A    between atoms: C_16  and  C_18
REMARK                            x       y       z     vdW  Elec       q    Type
REMARK                         _______ _______ _______ _____ _____    ______ ____
ROOT
ATOM      1  C   UNL     1       8.365   8.861  18.120  0.00  0.00    +0.000 A 
ATOM      2  N   UNL     1       8.592   8.035  19.206  0.00  0.00    +0.000 NA
ATOM      3  C   UNL     1       8.186   6.892  18.766  0.00  0.00    +0.000 A 
ATOM      4  S   UNL     1       8.102   5.313  19.459  0.00  0.00    +0.000 S 
ATOM      5  C   UNL     1       7.433   4.744  17.939  0.00  0.00    +0.000 A 
ATOM      6  C   UNL     1       7.282   5.706  17.001  0.00  0.00    +0.000 A 
ATOM      7  N   UNL     1       7.720   6.946  17.478  0.00  0.00    +0.000 N 
ATOM      8  N   UNL     1       7.819   8.238  17.043  0.00  0.00    +0.000 NA
ENDROOT
BRANCH   1  12
ATOM      9  C   UNL     1       9.461  12.986  18.715  0.00  0.00    +0.000 A 
ATOM     10  C   UNL     1       9.996  11.970  19.497  0.00  0.00    +0.000 A 
ATOM     11  C   UNL     1       9.641  10.642  19.263  0.00  0.00    +0.000 A 
ATOM     12  C   UNL     1       8.718  10.284  18.257  0.00  0.00    +0.000 A 
ATOM     13  C   UNL     1       8.182  11.313  17.478  0.00  0.00    +0.000 A 
ATOM     14  C   UNL     1       8.552  12.658  17.707  0.00  0.00    +0.000 A 
BRANCH   9  16
ATOM     15  C   UNL     1       9.135  15.328  18.532  0.00  0.00    +0.000 C 
ATOM     16  O   UNL     1       9.867  14.240  19.077  0.00  0.00    +0.000 OA
ENDBRANCH   9  16
ENDBRANCH   1  12
BRANCH   6  17
ATOM     17  C   UNL     1       6.677   5.402  15.663  0.00  0.00    +0.000 C 
BRANCH  17  18
ATOM     18  C   UNL     1       5.255   5.870  15.352  0.00  0.00    +0.000 C 
BRANCH  18  19
ATOM     19  N   UNL     1       4.300   5.353  16.339  0.00  0.00    +0.000 N 
ATOM     20  C   UNL     1       3.835   6.144  17.371  0.00  0.00    +0.000 C 
ATOM     21  O   UNL     1       4.171   7.321  17.482  0.00  0.00    +0.000 OA
ATOM     22  H   UNL     1       3.925   4.430  16.187  0.00  0.00    +0.000 HD
BRANCH  20  23
ATOM     23  C   UNL     1       2.904   5.549  18.393  0.00  0.00    +0.000 A 
ATOM     24  C   UNL     1       2.660   6.294  19.561  0.00  0.00    +0.000 A 
ATOM     25  C   UNL     1       1.838   5.804  20.579  0.00  0.00    +0.000 A 
ATOM     26  C   UNL     1       1.241   4.554  20.446  0.00  0.00    +0.000 A 
ATOM     27  C   UNL     1       1.474   3.807  19.291  0.00  0.00    +0.000 A 
ATOM     28 BR   UNL     1       0.670   2.102  19.117  0.00  0.00    +0.000 Br
ATOM     29  C   UNL     1       2.296   4.294  18.265  0.00  0.00    +0.000 A 
ENDBRANCH  20  23
ENDBRANCH  18  19
ENDBRANCH  17  18
ENDBRANCH   6  17
TORSDOF 6
ENDMDL
MODEL 5
REMARK VINA RESULT:      -7.6      2.977      3.602
REMARK  Name = 
REMARK  7 active torsions:
REMARK  status: ('A' for Active; 'I' for Inactive)
REMARK    1  A    between atoms: C_1  and  O_2
REMARK    2  A    between atoms: O_2  and  C_3
REMARK    3  A    between atoms: C_6  and  C_7
REMARK    4  A    between atoms: C_12  and  C_13
REMARK    5  A    between atoms: C_13  and  C_14
REMARK    6  A    between atoms: C_14  and  N_15
REMARK    7  A    between atoms: C_16  and  C_18
REMARK                            x       y       z     vdW  Elec       q    Type
REMARK                         _______ _______ _______ _____ _____    ______ ____
ROOT
ATOM      1  C   UNL     1       1.890   6.685  19.456  0.00  0.00    +0.000 A 
ATOM      2  N   UNL     1       1.799   6.143  20.724  0.00  0.00    +0.000 NA
ATOM      3  C   UNL     1       2.048   4.895  20.505  0.00  0.00    +0.000 A 
ATOM      4  S   UNL     1       2.137   3.504  21.522  0.00  0.00    +0.000 S 
ATOM      5  C   UNL     1       2.527   2.557  20.096  0.00  0.00    +0.000 A 
ATOM      6  C   UNL     1       2.564   3.269  18.947  0.00  0.00    +0.000 A 
ATOM      7  N   UNL     1       2.291   4.620  19.184  0.00  0.00    +0.000 N 
ATOM      8  N   UNL     1       2.177   5.785  18.478  0.00  0.00    +0.000 NA
ENDROOT
BRANCH   1  12
ATOM      9  C   UNL     1       1.359  10.922  18.883  0.00  0.00    +0.000 A 
ATOM     10  C   UNL     1       1.939  10.122  17.906  0.00  0.00    +0.000 A 
ATOM     11  C   UNL     1       2.074   8.749  18.112  0.00  0.00    +0.000 A 
ATOM     12  C   UNL     1       1.658   8.131  19.310  0.00  0.00    +0.000 A 
ATOM     13  C   UNL     1       1.080   8.944  20.288  0.00  0.00    +0.000 A 
ATOM     14  C   UNL     1       0.931  10.334  20.075  0.00  0.00    +0.000 A 
BRANCH   9  16
ATOM     15  C   UNL     1       2.445  13.029  18.959  0.00  0.00    +0.000 C 
ATOM     16  O   UNL     1       1.324  12.251  18.565  0.00  0.00    +0.000 OA
ENDBRANCH   9  16
ENDBRANCH   1  12
BRANCH   6  17
ATOM     17  C   UNL     1       2.831   2.606  17.629  0.00  0.00    +0.000 C 
BRANCH  17  18
ATOM     18  C   UNL     1       3.804   3.252  16.641  0.00  0.00    +0.000 C 
BRANCH  18  19
ATOM     19  N   UNL     1       4.834   4.027  17.343  0.00  0.00    +0.000 N 
ATOM     20  C   UNL     1       5.342   5.194  16.808  0.00  0.00    +0.000 C 
ATOM     21  O   UNL     1       4.926   5.650  15.745  0.00  0.00    +0.000 OA
ATOM     22  H   UNL     1       5.093   3.728  18.270  0.00  0.00    +0.000 HD
BRANCH  20  23
ATOM     23  C   UNL     1       6.440   5.920  17.536  0.00  0.00    +0.000 A 
ATOM     24  C   UNL     1       7.112   5.225  18.558  0.00  0.00    +0.000 A 
ATOM     25  C   UNL     1       8.120   5.832  19.311  0.00  0.00    +0.000 A 
ATOM     26  C   UNL     1       8.478   7.152  19.053  0.00  0.00    +0.000 A 
ATOM     27  C   UNL     1       7.821   7.850  18.041  0.00  0.00    +0.000 A 
ATOM     28 BR   UNL     1       8.301   9.650  17.699  0.00  0.00    +0.000 Br
ATOM     29  C   UNL     1       6.810   7.247  17.280  0.00  0.00    +0.000 A 
ENDBRANCH  20  23
ENDBRANCH  18  19
ENDBRANCH  17  18
ENDBRANCH   6  17
TORSDOF 6
ENDMDL
MODEL 6
REMARK VINA RESULT:      -7.6      9.217     11.726
REMARK  Name = 
REMARK  7 active torsions:
REMARK  status: ('A' for Active; 'I' for Inactive)
REMARK    1  A    between atoms: C_1  and  O_2
REMARK    2  A    between atoms: O_2  and  C_3
REMARK    3  A    between atoms: C_6  and  C_7
REMARK    4  A    between atoms: C_12  and  C_13
REMARK    5  A    between atoms: C_13  and  C_14
REMARK    6  A    between atoms: C_14  and  N_15
REMARK    7  A    between atoms: C_16  and  C_18
REMARK                            x       y       z     vdW  Elec       q    Type
REMARK                         _______ _______ _______ _____ _____    ______ ____
ROOT
ATOM      1  C   UNL     1      -5.037  12.493  20.303  0.00  0.00    +0.000 A 
ATOM      2  N   UNL     1      -6.286  12.033  20.677  0.00  0.00    +0.000 NA
ATOM      3  C   UNL     1      -6.473  12.640  21.801  0.00  0.00    +0.000 A 
ATOM      4  S   UNL     1      -7.760  12.644  22.951  0.00  0.00    +0.000 S 
ATOM      5  C   UNL     1      -6.830  13.787  23.903  0.00  0.00    +0.000 A 
ATOM      6  C   UNL     1      -5.629  14.111  23.370  0.00  0.00    +0.000 A 
ATOM      7  N   UNL     1      -5.425  13.451  22.154  0.00  0.00    +0.000 N 
ATOM      8  N   UNL     1      -4.466  13.355  21.186  0.00  0.00    +0.000 NA
ENDROOT
BRANCH   1  12
ATOM      9  C   UNL     1      -3.215  11.126  16.645  0.00  0.00    +0.000 A 
ATOM     10  C   UNL     1      -2.458  11.402  17.778  0.00  0.00    +0.000 A 
ATOM     11  C   UNL     1      -3.080  11.819  18.954  0.00  0.00    +0.000 A 
ATOM     12  C   UNL     1      -4.477  12.000  19.033  0.00  0.00    +0.000 A 
ATOM     13  C   UNL     1      -5.230  11.724  17.889  0.00  0.00    +0.000 A 
ATOM     14  C   UNL     1      -4.600  11.289  16.700  0.00  0.00    +0.000 A 
BRANCH   9  16
ATOM     15  C   UNL     1      -3.172  10.137  14.491  0.00  0.00    +0.000 C 
ATOM     16  O   UNL     1      -2.473  10.764  15.555  0.00  0.00    +0.000 OA
ENDBRANCH   9  16
ENDBRANCH   1  12
BRANCH   6  17
ATOM     17  C   UNL     1      -4.686  15.035  24.080  0.00  0.00    +0.000 C 
BRANCH  17  18
ATOM     18  C   UNL     1      -3.396  14.480  24.686  0.00  0.00    +0.000 C 
BRANCH  18  19
ATOM     19  N   UNL     1      -2.732  13.556  23.760  0.00  0.00    +0.000 N 
ATOM     20  C   UNL     1      -1.402  13.713  23.422  0.00  0.00    +0.000 C 
ATOM     21  O   UNL     1      -0.714  14.606  23.910  0.00  0.00    +0.000 OA
ATOM     22  H   UNL     1      -3.252  12.751  23.450  0.00  0.00    +0.000 HD
BRANCH  20  23
ATOM     23  C   UNL     1      -0.782  12.776  22.421  0.00  0.00    +0.000 A 
ATOM     24  C   UNL     1      -0.206  13.343  21.270  0.00  0.00    +0.000 A 
ATOM     25  C   UNL     1       0.360  12.547  20.270  0.00  0.00    +0.000 A 
ATOM     26  C   UNL     1       0.361  11.162  20.405  0.00  0.00    +0.000 A 
ATOM     27  C   UNL     1      -0.204  10.588  21.543  0.00  0.00    +0.000 A 
ATOM     28 BR   UNL     1      -0.212   8.703  21.721  0.00  0.00    +0.000 Br
ATOM     29  C   UNL     1      -0.773  11.381  22.551  0.00  0.00    +0.000 A 
ENDBRANCH  20  23
ENDBRANCH  18  19
ENDBRANCH  17  18
ENDBRANCH   6  17
TORSDOF 6
ENDMDL
MODEL 7
REMARK VINA RESULT:      -7.6      2.894      3.654
REMARK  Name = 
REMARK  7 active torsions:
REMARK  status: ('A' for Active; 'I' for Inactive)
REMARK    1  A    between atoms: C_1  and  O_2
REMARK    2  A    between atoms: O_2  and  C_3
REMARK    3  A    between atoms: C_6  and  C_7
REMARK    4  A    between atoms: C_12  and  C_13
REMARK    5  A    between atoms: C_13  and  C_14
REMARK    6  A    between atoms: C_14  and  N_15
REMARK    7  A    between atoms: C_16  and  C_18
REMARK                            x       y       z     vdW  Elec       q    Type
REMARK                         _______ _______ _______ _____ _____    ______ ____
ROOT
ATOM      1  C   UNL     1       1.882   6.537  19.587  0.00  0.00    +0.000 A 
ATOM      2  N   UNL     1       1.686   5.936  20.816  0.00  0.00    +0.000 NA
ATOM      3  C   UNL     1       1.938   4.697  20.556  0.00  0.00    +0.000 A 
ATOM      4  S   UNL     1       1.932   3.257  21.506  0.00  0.00    +0.000 S 
ATOM      5  C   UNL     1       2.421   2.375  20.070  0.00  0.00    +0.000 A 
ATOM      6  C   UNL     1       2.556   3.141  18.964  0.00  0.00    +0.000 A 
ATOM      7  N   UNL     1       2.280   4.483  19.245  0.00  0.00    +0.000 N 
ATOM      8  N   UNL     1       2.234   5.682  18.591  0.00  0.00    +0.000 NA
ENDROOT
BRANCH   1  12
ATOM      9  C   UNL     1       1.156  10.783  19.484  0.00  0.00    +0.000 A 
ATOM     10  C   UNL     1       0.929  10.033  20.632  0.00  0.00    +0.000 A 
ATOM     11  C   UNL     1       1.198   8.664  20.640  0.00  0.00    +0.000 A 
ATOM     12  C   UNL     1       1.678   7.993  19.496  0.00  0.00    +0.000 A 
ATOM     13  C   UNL     1       1.899   8.754  18.346  0.00  0.00    +0.000 A 
ATOM     14  C   UNL     1       1.638  10.144  18.341  0.00  0.00    +0.000 A 
BRANCH   9  16
ATOM     15  C   UNL     1      -0.182  12.584  18.716  0.00  0.00    +0.000 C 
ATOM     16  O   UNL     1       0.814  12.101  19.605  0.00  0.00    +0.000 OA
ENDBRANCH   9  16
ENDBRANCH   1  12
BRANCH   6  17
ATOM     17  C   UNL     1       2.917   2.539  17.639  0.00  0.00    +0.000 C 
BRANCH  17  18
ATOM     18  C   UNL     1       3.781   3.333  16.658  0.00  0.00    +0.000 C 
BRANCH  18  19
ATOM     19  N   UNL     1       4.782   4.138  17.367  0.00  0.00    +0.000 N 
ATOM     20  C   UNL     1       5.465   5.156  16.730  0.00  0.00    +0.000 C 
ATOM     21  O   UNL     1       5.235   5.453  15.561  0.00  0.00    +0.000 OA
ATOM     22  H   UNL     1       4.891   3.983  18.357  0.00  0.00    +0.000 HD
BRANCH  20  23
ATOM     23  C   UNL     1       6.526   5.913  17.483  0.00  0.00    +0.000 A 
ATOM     24  C   UNL     1       7.196   5.236  18.518  0.00  0.00    +0.000 A 
ATOM     25  C   UNL     1       8.170   5.871  19.293  0.00  0.00    +0.000 A 
ATOM     26  C   UNL     1       8.494   7.201  19.044  0.00  0.00    +0.000 A 
ATOM     27  C   UNL     1       7.840   7.881  18.018  0.00  0.00    +0.000 A 
ATOM     28 BR   UNL     1       8.275   9.694  17.688  0.00  0.00    +0.000 Br
ATOM     29  C   UNL     1       6.862   7.250  17.236  0.00  0.00    +0.000 A 
ENDBRANCH  20  23
ENDBRANCH  18  19
ENDBRANCH  17  18
ENDBRANCH   6  17
TORSDOF 6
ENDMDL
MODEL 8
REMARK VINA RESULT:      -7.6      5.291     10.753
REMARK  Name = 
REMARK  7 active torsions:
REMARK  status: ('A' for Active; 'I' for Inactive)
REMARK    1  A    between atoms: C_1  and  O_2
REMARK    2  A    between atoms: O_2  and  C_3
REMARK    3  A    between atoms: C_6  and  C_7
REMARK    4  A    between atoms: C_12  and  C_13
REMARK    5  A    between atoms: C_13  and  C_14
REMARK    6  A    between atoms: C_14  and  N_15
REMARK    7  A    between atoms: C_16  and  C_18
REMARK                            x       y       z     vdW  Elec       q    Type
REMARK                         _______ _______ _______ _____ _____    ______ ____
ROOT
ATOM      1  C   UNL     1       1.653   8.066  19.764  0.00  0.00    +0.000 A 
ATOM      2  N   UNL     1       1.320   7.872  21.091  0.00  0.00    +0.000 NA
ATOM      3  C   UNL     1       0.731   8.981  21.388  0.00  0.00    +0.000 A 
ATOM      4  S   UNL     1       0.006   9.594  22.829  0.00  0.00    +0.000 S 
ATOM      5  C   UNL     1      -0.383  11.058  21.943  0.00  0.00    +0.000 A 
ATOM      6  C   UNL     1       0.032  11.058  20.656  0.00  0.00    +0.000 A 
ATOM      7  N   UNL     1       0.673   9.857  20.335  0.00  0.00    +0.000 N 
ATOM      8  N   UNL     1       1.288   9.275  19.262  0.00  0.00    +0.000 NA
ENDROOT
BRANCH   1  12
ATOM      9  C   UNL     1       3.687   4.758  17.896  0.00  0.00    +0.000 A 
ATOM     10  C   UNL     1       2.781   4.565  18.932  0.00  0.00    +0.000 A 
ATOM     11  C   UNL     1       2.120   5.654  19.499  0.00  0.00    +0.000 A 
ATOM     12  C   UNL     1       2.360   6.977  19.069  0.00  0.00    +0.000 A 
ATOM     13  C   UNL     1       3.276   7.161  18.030  0.00  0.00    +0.000 A 
ATOM     14  C   UNL     1       3.936   6.056  17.446  0.00  0.00    +0.000 A 
BRANCH   9  16
ATOM     15  C   UNL     1       3.759   2.388  17.956  0.00  0.00    +0.000 C 
ATOM     16  O   UNL     1       4.288   3.610  17.461  0.00  0.00    +0.000 OA
ENDBRANCH   9  16
ENDBRANCH   1  12
BRANCH   6  17
ATOM     17  C   UNL     1      -0.173  12.251  19.771  0.00  0.00    +0.000 C 
BRANCH  17  18
ATOM     18  C   UNL     1      -0.927  12.092  18.450  0.00  0.00    +0.000 C 
BRANCH  18  19
ATOM     19  N   UNL     1      -2.351  12.409  18.612  0.00  0.00    +0.000 N 
ATOM     20  C   UNL     1      -3.329  11.472  18.339  0.00  0.00    +0.000 C 
ATOM     21  O   UNL     1      -3.046  10.330  17.987  0.00  0.00    +0.000 OA
ATOM     22  H   UNL     1      -2.588  13.301  19.016  0.00  0.00    +0.000 HD
BRANCH  20  23
ATOM     23  C   UNL     1      -4.777  11.864  18.461  0.00  0.00    +0.000 A 
ATOM     24  C   UNL     1      -5.465  12.186  17.277  0.00  0.00    +0.000 A 
ATOM     25  C   UNL     1      -6.801  12.595  17.300  0.00  0.00    +0.000 A 
ATOM     26  C   UNL     1      -7.476  12.689  18.513  0.00  0.00    +0.000 A 
ATOM     27  C   UNL     1      -6.805  12.369  19.693  0.00  0.00    +0.000 A 
ATOM     28 BR   UNL     1      -7.723  12.508  21.343  0.00  0.00    +0.000 Br
ATOM     29  C   UNL     1      -5.466  11.957  19.678  0.00  0.00    +0.000 A 
ENDBRANCH  20  23
ENDBRANCH  18  19
ENDBRANCH  17  18
ENDBRANCH   6  17
TORSDOF 6
ENDMDL
MODEL 9
REMARK VINA RESULT:      -7.5      5.506      7.440
REMARK  Name = 
REMARK  7 active torsions:
REMARK  status: ('A' for Active; 'I' for Inactive)
REMARK    1  A    between atoms: C_1  and  O_2
REMARK    2  A    between atoms: O_2  and  C_3
REMARK    3  A    between atoms: C_6  and  C_7
REMARK    4  A    between atoms: C_12  and  C_13
REMARK    5  A    between atoms: C_13  and  C_14
REMARK    6  A    between atoms: C_14  and  N_15
REMARK    7  A    between atoms: C_16  and  C_18
REMARK                            x       y       z     vdW  Elec       q    Type
REMARK                         _______ _______ _______ _____ _____    ______ ____
ROOT
ATOM      1  C   UNL     1       8.417   8.807  18.211  0.00  0.00    +0.000 A 
ATOM      2  N   UNL     1       8.573   7.889  19.232  0.00  0.00    +0.000 NA
ATOM      3  C   UNL     1       8.153   6.799  18.683  0.00  0.00    +0.000 A 
ATOM      4  S   UNL     1       7.993   5.172  19.238  0.00  0.00    +0.000 S 
ATOM      5  C   UNL     1       7.374   4.752  17.650  0.00  0.00    +0.000 A 
ATOM      6  C   UNL     1       7.292   5.792  16.790  0.00  0.00    +0.000 A 
ATOM      7  N   UNL     1       7.745   6.974  17.386  0.00  0.00    +0.000 N 
ATOM      8  N   UNL     1       7.900   8.293  17.064  0.00  0.00    +0.000 NA
ENDROOT
BRANCH   1  12
ATOM      9  C   UNL     1       9.564  12.842  19.200  0.00  0.00    +0.000 A 
ATOM     10  C   UNL     1       9.839  11.777  20.049  0.00  0.00    +0.000 A 
ATOM     11  C   UNL     1       9.477  10.479  19.689  0.00  0.00    +0.000 A 
ATOM     12  C   UNL     1       8.805  10.203  18.480  0.00  0.00    +0.000 A 
ATOM     13  C   UNL     1       8.529  11.279  17.634  0.00  0.00    +0.000 A 
ATOM     14  C   UNL     1       8.907  12.593  17.993  0.00  0.00    +0.000 A 
BRANCH   9  16
ATOM     15  C   UNL     1      11.197  14.560  19.265  0.00  0.00    +0.000 C 
ATOM     16  O   UNL     1       9.939  14.059  19.694  0.00  0.00    +0.000 OA
ENDBRANCH   9  16
ENDBRANCH   1  12
BRANCH   6  17
ATOM     17  C   UNL     1       6.737   5.617  15.408  0.00  0.00    +0.000 C 
BRANCH  17  18
ATOM     18  C   UNL     1       5.245   5.338  15.223  0.00  0.00    +0.000 C 
BRANCH  18  19
ATOM     19  N   UNL     1       4.508   5.546  16.475  0.00  0.00    +0.000 N 
ATOM     20  C   UNL     1       3.981   4.483  17.181  0.00  0.00    +0.000 C 
ATOM     21  O   UNL     1       4.139   3.322  16.811  0.00  0.00    +0.000 OA
ATOM     22  H   UNL     1       4.477   6.481  16.849  0.00  0.00    +0.000 HD
BRANCH  20  23
ATOM     23  C   UNL     1       3.181   4.751  18.427  0.00  0.00    +0.000 A 
ATOM     24  C   UNL     1       2.889   6.093  18.735  0.00  0.00    +0.000 A 
ATOM     25  C   UNL     1       2.183   6.438  19.890  0.00  0.00    +0.000 A 
ATOM     26  C   UNL     1       1.752   5.443  20.762  0.00  0.00    +0.000 A 
ATOM     27  C   UNL     1       2.032   4.110  20.465  0.00  0.00    +0.000 A 
ATOM     28 BR   UNL     1       1.454   2.758  21.659  0.00  0.00    +0.000 Br
ATOM     29  C   UNL     1       2.739   3.756  19.308  0.00  0.00    +0.000 A 
ENDBRANCH  20  23
ENDBRANCH  18  19
ENDBRANCH  17  18
ENDBRANCH   6  17
TORSDOF 6
ENDMDL
