MODEL 1
REMARK VINA RESULT:      -8.3      0.000      0.000
REMARK  Name = 
REMARK  10 active torsions:
REMARK  status: ('A' for Active; 'I' for Inactive)
REMARK    1  A    between atoms: C_1  and  C_2
REMARK    2  A    between atoms: C_2  and  C_3
REMARK    3  A    between atoms: C_5  and  C_6
REMARK    4  A    between atoms: N_8  and  C_9
REMARK    5  A    between atoms: C_9  and  C_10
REMARK    6  A    between atoms: C_13  and  O_14
REMARK    7  A    between atoms: O_14  and  C_15
REMARK    8  A    between atoms: C_18  and  C_19
REMARK    9  A    between atoms: C_24  and  C_25
REMARK   10  A    between atoms: N_27  and  C_28
REMARK                            x       y       z     vdW  Elec       q    Type
REMARK                         _______ _______ _______ _____ _____    ______ ____
ROOT
ATOM      1  C   UNL     1       3.607   6.226  19.319  0.00  0.00    +0.000 C 
ENDROOT
BRANCH   1   4
ATOM      2  C   UNL     1       5.029   6.257  17.386  0.00  0.00    +0.000 C 
ATOM      3  O   UNL     1       5.265   7.435  17.676  0.00  0.00    +0.000 OA
ATOM      4  N   UNL     1       4.030   5.538  18.105  0.00  0.00    +0.000 N 
ATOM      5  C   UNL     1       3.448   4.341  17.686  0.00  0.00    +0.000 C 
ATOM      6  C   UNL     1       2.535   3.554  18.614  0.00  0.00    +0.000 C 
ATOM      7  O   UNL     1       3.609   3.858  16.561  0.00  0.00    +0.000 OA
BRANCH   2  10
ATOM      8  C   UNL     1       6.654   4.702  14.490  0.00  0.00    +0.000 A 
ATOM      9  C   UNL     1       5.569   5.447  14.998  0.00  0.00    +0.000 A 
ATOM     10  C   UNL     1       5.815   5.612  16.352  0.00  0.00    +0.000 A 
ATOM     11  N   UNL     1       6.970   4.896  16.576  0.00  0.00    +0.000 N 
ATOM     12  C   UNL     1       7.645   4.607  17.817  0.00  0.00    +0.000 C 
ATOM     13  N   UNL     1       7.513   4.376  15.457  0.00  0.00    +0.000 NA
BRANCH   8  15
ATOM     14  C   UNL     1       5.717   3.436  12.568  0.00  0.00    +0.000 C 
ATOM     15  C   UNL     1       6.899   4.234  13.099  0.00  0.00    +0.000 C 
ENDBRANCH   8  15
ENDBRANCH   2  10
ENDBRANCH   1   4
BRANCH   1  16
ATOM     16  C   UNL     1       2.452   7.204  19.186  0.00  0.00    +0.000 A 
ATOM     17  C   UNL     1       1.775   7.690  20.308  0.00  0.00    +0.000 A 
ATOM     18  C   UNL     1       1.038   8.874  20.215  0.00  0.00    +0.000 A 
ATOM     19  C   UNL     1       1.057   9.598  19.019  0.00  0.00    +0.000 A 
ATOM     20  C   UNL     1       1.525   9.012  17.850  0.00  0.00    +0.000 A 
ATOM     21  C   UNL     1       2.214   7.802  17.937  0.00  0.00    +0.000 A 
BRANCH  19  22
ATOM     22  O   UNL     1       0.748  10.944  18.991  0.00  0.00    +0.000 OA
BRANCH  22  23
ATOM     23  C   UNL     1      -0.588  11.256  19.170  0.00  0.00    +0.000 A 
ATOM     24  C   UNL     1      -1.612  10.875  18.283  0.00  0.00    +0.000 A 
ATOM     25  C   UNL     1      -2.914  11.365  18.432  0.00  0.00    +0.000 A 
ATOM     26  C   UNL     1      -3.230  12.179  19.521  0.00  0.00    +0.000 A 
ATOM     27  C   UNL     1      -4.622  12.711  19.695  0.00  0.00    +0.000 C 
ATOM     28  C   UNL     1      -2.235  12.467  20.464  0.00  0.00    +0.000 A 
ATOM     29  C   UNL     1      -0.924  12.012  20.292  0.00  0.00    +0.000 A 
ENDBRANCH  22  23
ENDBRANCH  19  22
ENDBRANCH   1  16
TORSDOF 6
ENDMDL
MODEL 2
REMARK VINA RESULT:      -8.3      3.949      9.201
REMARK  Name = 
REMARK  10 active torsions:
REMARK  status: ('A' for Active; 'I' for Inactive)
REMARK    1  A    between atoms: C_1  and  C_2
REMARK    2  A    between atoms: C_2  and  C_3
REMARK    3  A    between atoms: C_5  and  C_6
REMARK    4  A    between atoms: N_8  and  C_9
REMARK    5  A    between atoms: C_9  and  C_10
REMARK    6  A    between atoms: C_13  and  O_14
REMARK    7  A    between atoms: O_14  and  C_15
REMARK    8  A    between atoms: C_18  and  C_19
REMARK    9  A    between atoms: C_24  and  C_25
REMARK   10  A    between atoms: N_27  and  C_28
REMARK                            x       y       z     vdW  Elec       q    Type
REMARK                         _______ _______ _______ _____ _____    ______ ____
ROOT
ATOM      1  C   UNL     1      -0.163  10.185  20.380  0.00  0.00    +0.000 C 
ENDROOT
BRANCH   1   4
ATOM      2  C   UNL     1       0.995  12.285  20.300  0.00  0.00    +0.000 C 
ATOM      3  O   UNL     1       1.387  12.023  21.443  0.00  0.00    +0.000 OA
ATOM      4  N   UNL     1       0.028  11.447  19.674  0.00  0.00    +0.000 N 
ATOM      5  C   UNL     1      -0.723  11.792  18.550  0.00  0.00    +0.000 C 
ATOM      6  C   UNL     1      -1.586  10.757  17.844  0.00  0.00    +0.000 C 
ATOM      7  O   UNL     1      -0.758  12.930  18.073  0.00  0.00    +0.000 OA
BRANCH   2  10
ATOM      8  C   UNL     1       2.778  14.843  18.371  0.00  0.00    +0.000 A 
ATOM      9  C   UNL     1       2.629  13.479  18.701  0.00  0.00    +0.000 A 
ATOM     10  C   UNL     1       1.572  13.415  19.597  0.00  0.00    +0.000 A 
ATOM     11  N   UNL     1       1.220  14.730  19.801  0.00  0.00    +0.000 N 
ATOM     12  C   UNL     1       0.262  15.292  20.721  0.00  0.00    +0.000 C 
ATOM     13  N   UNL     1       1.909  15.602  19.038  0.00  0.00    +0.000 NA
BRANCH   8  15
ATOM     14  C   UNL     1       5.186  15.046  17.788  0.00  0.00    +0.000 C 
ATOM     15  C   UNL     1       3.766  15.482  17.459  0.00  0.00    +0.000 C 
ENDBRANCH   8  15
ENDBRANCH   2  10
ENDBRANCH   1   4
BRANCH   1  16
ATOM     16  C   UNL     1       0.898   9.116  20.172  0.00  0.00    +0.000 A 
ATOM     17  C   UNL     1       1.094   8.092  21.103  0.00  0.00    +0.000 A 
ATOM     18  C   UNL     1       1.736   6.914  20.714  0.00  0.00    +0.000 A 
ATOM     19  C   UNL     1       2.100   6.744  19.374  0.00  0.00    +0.000 A 
ATOM     20  C   UNL     1       2.121   7.831  18.508  0.00  0.00    +0.000 A 
ATOM     21  C   UNL     1       1.527   9.025  18.918  0.00  0.00    +0.000 A 
BRANCH  19  22
ATOM     22  O   UNL     1       2.310   5.487  18.842  0.00  0.00    +0.000 OA
BRANCH  22  23
ATOM     23  C   UNL     1       3.625   5.171  18.553  0.00  0.00    +0.000 A 
ATOM     24  C   UNL     1       4.692   5.333  19.455  0.00  0.00    +0.000 A 
ATOM     25  C   UNL     1       6.017   5.154  19.044  0.00  0.00    +0.000 A 
ATOM     26  C   UNL     1       6.291   4.728  17.744  0.00  0.00    +0.000 A 
ATOM     27  C   UNL     1       7.707   4.530  17.289  0.00  0.00    +0.000 C 
ATOM     28  C   UNL     1       5.222   4.459  16.879  0.00  0.00    +0.000 A 
ATOM     29  C   UNL     1       3.899   4.679  17.276  0.00  0.00    +0.000 A 
ENDBRANCH  22  23
ENDBRANCH  19  22
ENDBRANCH   1  16
TORSDOF 6
ENDMDL
MODEL 3
REMARK VINA RESULT:      -8.0      0.455      1.042
REMARK  Name = 
REMARK  10 active torsions:
REMARK  status: ('A' for Active; 'I' for Inactive)
REMARK    1  A    between atoms: C_1  and  C_2
REMARK    2  A    between atoms: C_2  and  C_3
REMARK    3  A    between atoms: C_5  and  C_6
REMARK    4  A    between atoms: N_8  and  C_9
REMARK    5  A    between atoms: C_9  and  C_10
REMARK    6  A    between atoms: C_13  and  O_14
REMARK    7  A    between atoms: O_14  and  C_15
REMARK    8  A    between atoms: C_18  and  C_19
REMARK    9  A    between atoms: C_24  and  C_25
REMARK   10  A    between atoms: N_27  and  C_28
REMARK                            x       y       z     vdW  Elec       q    Type
REMARK                         _______ _______ _______ _____ _____    ______ ____
ROOT
ATOM      1  C   UNL     1       3.447   6.420  19.297  0.00  0.00    +0.000 C 
ENDROOT
BRANCH   1   4
ATOM      2  C   UNL     1       4.763   6.200  17.303  0.00  0.00    +0.000 C 
ATOM      3  O   UNL     1       5.095   7.376  17.487  0.00  0.00    +0.000 OA
ATOM      4  N   UNL     1       3.755   5.613  18.123  0.00  0.00    +0.000 N 
ATOM      5  C   UNL     1       3.069   4.434  17.828  0.00  0.00    +0.000 C 
ATOM      6  C   UNL     1       2.154   3.790  18.858  0.00  0.00    +0.000 C 
ATOM      7  O   UNL     1       3.137   3.858  16.739  0.00  0.00    +0.000 OA
BRANCH   2  10
ATOM      8  C   UNL     1       6.102   4.280  14.481  0.00  0.00    +0.000 A 
ATOM      9  C   UNL     1       5.071   5.096  14.993  0.00  0.00    +0.000 A 
ATOM     10  C   UNL     1       5.446   5.422  16.287  0.00  0.00    +0.000 A 
ATOM     11  N   UNL     1       6.616   4.724  16.487  0.00  0.00    +0.000 N 
ATOM     12  C   UNL     1       7.406   4.581  17.685  0.00  0.00    +0.000 C 
ATOM     13  N   UNL     1       7.049   4.063  15.395  0.00  0.00    +0.000 NA
BRANCH   8  15
ATOM     14  C   UNL     1       7.210   4.374  12.258  0.00  0.00    +0.000 C 
ATOM     15  C   UNL     1       6.212   3.640  13.142  0.00  0.00    +0.000 C 
ENDBRANCH   8  15
ENDBRANCH   2  10
ENDBRANCH   1   4
BRANCH   1  16
ATOM     16  C   UNL     1       2.318   7.429  19.159  0.00  0.00    +0.000 A 
ATOM     17  C   UNL     1       1.692   7.981  20.280  0.00  0.00    +0.000 A 
ATOM     18  C   UNL     1       0.990   9.183  20.161  0.00  0.00    +0.000 A 
ATOM     19  C   UNL     1       0.994   9.859  18.937  0.00  0.00    +0.000 A 
ATOM     20  C   UNL     1       1.408   9.212  17.779  0.00  0.00    +0.000 A 
ATOM     21  C   UNL     1       2.062   7.985  17.894  0.00  0.00    +0.000 A 
BRANCH  19  22
ATOM     22  O   UNL     1       0.727  11.212  18.864  0.00  0.00    +0.000 OA
BRANCH  22  23
ATOM     23  C   UNL     1      -0.605  11.567  18.980  0.00  0.00    +0.000 A 
ATOM     24  C   UNL     1      -1.146  12.250  20.085  0.00  0.00    +0.000 A 
ATOM     25  C   UNL     1      -2.527  12.429  20.217  0.00  0.00    +0.000 A 
ATOM     26  C   UNL     1      -3.383  11.999  19.203  0.00  0.00    +0.000 A 
ATOM     27  C   UNL     1      -4.867  12.185  19.329  0.00  0.00    +0.000 C 
ATOM     28  C   UNL     1      -2.835  11.418  18.053  0.00  0.00    +0.000 A 
ATOM     29  C   UNL     1      -1.458  11.200  17.939  0.00  0.00    +0.000 A 
ENDBRANCH  22  23
ENDBRANCH  19  22
ENDBRANCH   1  16
TORSDOF 6
ENDMDL
MODEL 4
REMARK VINA RESULT:      -8.0      3.722      9.235
REMARK  Name = 
REMARK  10 active torsions:
REMARK  status: ('A' for Active; 'I' for Inactive)
REMARK    1  A    between atoms: C_1  and  C_2
REMARK    2  A    between atoms: C_2  and  C_3
REMARK    3  A    between atoms: C_5  and  C_6
REMARK    4  A    between atoms: N_8  and  C_9
REMARK    5  A    between atoms: C_9  and  C_10
REMARK    6  A    between atoms: C_13  and  O_14
REMARK    7  A    between atoms: O_14  and  C_15
REMARK    8  A    between atoms: C_18  and  C_19
REMARK    9  A    between atoms: C_24  and  C_25
REMARK   10  A    between atoms: N_27  and  C_28
REMARK                            x       y       z     vdW  Elec       q    Type
REMARK                         _______ _______ _______ _____ _____    ______ ____
ROOT
ATOM      1  C   UNL     1      -0.150  10.237  20.453  0.00  0.00    +0.000 C 
ENDROOT
BRANCH   1   4
ATOM      2  C   UNL     1       0.900  12.392  20.337  0.00  0.00    +0.000 C 
ATOM      3  O   UNL     1       1.299  12.172  21.485  0.00  0.00    +0.000 OA
ATOM      4  N   UNL     1      -0.021  11.493  19.723  0.00  0.00    +0.000 N 
ATOM      5  C   UNL     1      -0.784  11.779  18.591  0.00  0.00    +0.000 C 
ATOM      6  C   UNL     1      -1.590  10.688  17.902  0.00  0.00    +0.000 C 
ATOM      7  O   UNL     1      -0.875  12.904  18.092  0.00  0.00    +0.000 OA
BRANCH   2  10
ATOM      8  C   UNL     1       1.890  15.534  18.726  0.00  0.00    +0.000 A 
ATOM      9  C   UNL     1       1.102  14.883  19.699  0.00  0.00    +0.000 A 
ATOM     10  C   UNL     1       1.421  13.536  19.614  0.00  0.00    +0.000 A 
ATOM     11  N   UNL     1       2.302  13.463  18.557  0.00  0.00    +0.000 N 
ATOM     12  C   UNL     1       2.884  12.304  17.926  0.00  0.00    +0.000 C 
ATOM     13  N   UNL     1       2.628  14.663  18.038  0.00  0.00    +0.000 NA
BRANCH   8  15
ATOM     14  C   UNL     1       2.605  17.202  17.028  0.00  0.00    +0.000 C 
ATOM     15  C   UNL     1       1.942  16.980  18.379  0.00  0.00    +0.000 C 
ENDBRANCH   8  15
ENDBRANCH   2  10
ENDBRANCH   1   4
BRANCH   1  16
ATOM     16  C   UNL     1       0.911   9.180  20.191  0.00  0.00    +0.000 A 
ATOM     17  C   UNL     1       1.161   8.156  21.108  0.00  0.00    +0.000 A 
ATOM     18  C   UNL     1       1.797   6.986  20.684  0.00  0.00    +0.000 A 
ATOM     19  C   UNL     1       2.099   6.825  19.329  0.00  0.00    +0.000 A 
ATOM     20  C   UNL     1       2.068   7.914  18.467  0.00  0.00    +0.000 A 
ATOM     21  C   UNL     1       1.481   9.100  18.909  0.00  0.00    +0.000 A 
BRANCH  19  22
ATOM     22  O   UNL     1       2.297   5.572  18.782  0.00  0.00    +0.000 OA
BRANCH  22  23
ATOM     23  C   UNL     1       3.613   5.234  18.519  0.00  0.00    +0.000 A 
ATOM     24  C   UNL     1       4.639   5.251  19.481  0.00  0.00    +0.000 A 
ATOM     25  C   UNL     1       5.975   5.062  19.113  0.00  0.00    +0.000 A 
ATOM     26  C   UNL     1       6.297   4.769  17.787  0.00  0.00    +0.000 A 
ATOM     27  C   UNL     1       7.725   4.563  17.377  0.00  0.00    +0.000 C 
ATOM     28  C   UNL     1       5.263   4.642  16.851  0.00  0.00    +0.000 A 
ATOM     29  C   UNL     1       3.931   4.873  17.210  0.00  0.00    +0.000 A 
ENDBRANCH  22  23
ENDBRANCH  19  22
ENDBRANCH   1  16
TORSDOF 6
ENDMDL
MODEL 5
REMARK VINA RESULT:      -8.0      2.004      2.885
REMARK  Name = 
REMARK  10 active torsions:
REMARK  status: ('A' for Active; 'I' for Inactive)
REMARK    1  A    between atoms: C_1  and  C_2
REMARK    2  A    between atoms: C_2  and  C_3
REMARK    3  A    between atoms: C_5  and  C_6
REMARK    4  A    between atoms: N_8  and  C_9
REMARK    5  A    between atoms: C_9  and  C_10
REMARK    6  A    between atoms: C_13  and  O_14
REMARK    7  A    between atoms: O_14  and  C_15
REMARK    8  A    between atoms: C_18  and  C_19
REMARK    9  A    between atoms: C_24  and  C_25
REMARK   10  A    between atoms: N_27  and  C_28
REMARK                            x       y       z     vdW  Elec       q    Type
REMARK                         _______ _______ _______ _____ _____    ______ ____
ROOT
ATOM      1  C   UNL     1       3.637   6.642  19.199  0.00  0.00    +0.000 C 
ENDROOT
BRANCH   1   4
ATOM      2  C   UNL     1       4.899   6.322  17.183  0.00  0.00    +0.000 C 
ATOM      3  O   UNL     1       5.236   7.506  17.301  0.00  0.00    +0.000 OA
ATOM      4  N   UNL     1       3.914   5.777  18.058  0.00  0.00    +0.000 N 
ATOM      5  C   UNL     1       3.221   4.586  17.840  0.00  0.00    +0.000 C 
ATOM      6  C   UNL     1       2.335   3.993  18.925  0.00  0.00    +0.000 C 
ATOM      7  O   UNL     1       3.260   3.956  16.779  0.00  0.00    +0.000 OA
BRANCH   2  10
ATOM      8  C   UNL     1       6.183   4.305  14.404  0.00  0.00    +0.000 A 
ATOM      9  C   UNL     1       5.199   5.195  14.883  0.00  0.00    +0.000 A 
ATOM     10  C   UNL     1       5.555   5.495  16.190  0.00  0.00    +0.000 A 
ATOM     11  N   UNL     1       6.663   4.712  16.426  0.00  0.00    +0.000 N 
ATOM     12  C   UNL     1       7.402   4.513  17.649  0.00  0.00    +0.000 C 
ATOM     13  N   UNL     1       7.081   4.020  15.348  0.00  0.00    +0.000 NA
BRANCH   8  15
ATOM     14  C   UNL     1       4.932   3.579  12.382  0.00  0.00    +0.000 C 
ATOM     15  C   UNL     1       6.288   3.658  13.068  0.00  0.00    +0.000 C 
ENDBRANCH   8  15
ENDBRANCH   2  10
ENDBRANCH   1   4
BRANCH   1  16
ATOM     16  C   UNL     1       2.397   7.516  19.113  0.00  0.00    +0.000 A 
ATOM     17  C   UNL     1       1.719   7.937  20.260  0.00  0.00    +0.000 A 
ATOM     18  C   UNL     1       0.880   9.052  20.200  0.00  0.00    +0.000 A 
ATOM     19  C   UNL     1       0.795   9.781  19.010  0.00  0.00    +0.000 A 
ATOM     20  C   UNL     1       1.273   9.243  17.821  0.00  0.00    +0.000 A 
ATOM     21  C   UNL     1       2.067   8.098  17.876  0.00  0.00    +0.000 A 
BRANCH  19  22
ATOM     22  O   UNL     1       0.370  11.095  19.002  0.00  0.00    +0.000 OA
BRANCH  22  23
ATOM     23  C   UNL     1       1.341  12.040  19.287  0.00  0.00    +0.000 A 
ATOM     24  C   UNL     1       1.577  12.566  20.570  0.00  0.00    +0.000 A 
ATOM     25  C   UNL     1       2.456  13.638  20.759  0.00  0.00    +0.000 A 
ATOM     26  C   UNL     1       3.175  14.146  19.676  0.00  0.00    +0.000 A 
ATOM     27  C   UNL     1       4.122  15.295  19.863  0.00  0.00    +0.000 C 
ATOM     28  C   UNL     1       3.021  13.549  18.419  0.00  0.00    +0.000 A 
ATOM     29  C   UNL     1       2.111  12.505  18.221  0.00  0.00    +0.000 A 
ENDBRANCH  22  23
ENDBRANCH  19  22
ENDBRANCH   1  16
TORSDOF 6
ENDMDL
MODEL 6
REMARK VINA RESULT:      -7.8      4.230     10.288
REMARK  Name = 
REMARK  10 active torsions:
REMARK  status: ('A' for Active; 'I' for Inactive)
REMARK    1  A    between atoms: C_1  and  C_2
REMARK    2  A    between atoms: C_2  and  C_3
REMARK    3  A    between atoms: C_5  and  C_6
REMARK    4  A    between atoms: N_8  and  C_9
REMARK    5  A    between atoms: C_9  and  C_10
REMARK    6  A    between atoms: C_13  and  O_14
REMARK    7  A    between atoms: O_14  and  C_15
REMARK    8  A    between atoms: C_18  and  C_19
REMARK    9  A    between atoms: C_24  and  C_25
REMARK   10  A    between atoms: N_27  and  C_28
REMARK                            x       y       z     vdW  Elec       q    Type
REMARK                         _______ _______ _______ _____ _____    ______ ____
ROOT
ATOM      1  C   UNL     1       0.937  11.092  20.956  0.00  0.00    +0.000 C 
ENDROOT
BRANCH   1   4
ATOM      2  C   UNL     1      -0.984  12.441  20.458  0.00  0.00    +0.000 C 
ATOM      3  O   UNL     1      -0.265  13.022  19.638  0.00  0.00    +0.000 OA
ATOM      4  N   UNL     1      -0.413  11.482  21.344  0.00  0.00    +0.000 N 
ATOM      5  C   UNL     1      -1.023  11.001  22.504  0.00  0.00    +0.000 C 
ATOM      6  C   UNL     1      -0.417   9.838  23.275  0.00  0.00    +0.000 C 
ATOM      7  O   UNL     1      -2.054  11.480  22.984  0.00  0.00    +0.000 OA
BRANCH   2  10
ATOM      8  C   UNL     1      -4.619  12.796  20.138  0.00  0.00    +0.000 A 
ATOM      9  C   UNL     1      -3.449  12.090  19.786  0.00  0.00    +0.000 A 
ATOM     10  C   UNL     1      -2.409  12.708  20.464  0.00  0.00    +0.000 A 
ATOM     11  N   UNL     1      -3.006  13.775  21.099  0.00  0.00    +0.000 N 
ATOM     12  C   UNL     1      -2.405  14.843  21.860  0.00  0.00    +0.000 C 
ATOM     13  N   UNL     1      -4.344  13.819  20.948  0.00  0.00    +0.000 NA
BRANCH   8  15
ATOM     14  C   UNL     1      -6.848  11.905  20.783  0.00  0.00    +0.000 C 
ATOM     15  C   UNL     1      -6.020  12.566  19.691  0.00  0.00    +0.000 C 
ENDBRANCH   8  15
ENDBRANCH   2  10
ENDBRANCH   1   4
BRANCH   1  16
ATOM     16  C   UNL     1       1.066   9.893  20.031  0.00  0.00    +0.000 A 
ATOM     17  C   UNL     1       1.034  10.036  18.642  0.00  0.00    +0.000 A 
ATOM     18  C   UNL     1       1.571   9.035  17.828  0.00  0.00    +0.000 A 
ATOM     19  C   UNL     1       2.209   7.942  18.421  0.00  0.00    +0.000 A 
ATOM     20  C   UNL     1       2.041   7.679  19.775  0.00  0.00    +0.000 A 
ATOM     21  C   UNL     1       1.454   8.657  20.579  0.00  0.00    +0.000 A 
BRANCH  19  22
ATOM     22  O   UNL     1       3.126   7.180  17.723  0.00  0.00    +0.000 OA
BRANCH  22  23
ATOM     23  C   UNL     1       3.193   5.846  18.081  0.00  0.00    +0.000 A 
ATOM     24  C   UNL     1       4.322   5.242  18.665  0.00  0.00    +0.000 A 
ATOM     25  C   UNL     1       4.386   3.857  18.847  0.00  0.00    +0.000 A 
ATOM     26  C   UNL     1       3.285   3.062  18.525  0.00  0.00    +0.000 A 
ATOM     27  C   UNL     1       3.337   1.575  18.716  0.00  0.00    +0.000 C 
ATOM     28  C   UNL     1       2.121   3.677  18.047  0.00  0.00    +0.000 A 
ATOM     29  C   UNL     1       2.072   5.057  17.825  0.00  0.00    +0.000 A 
ENDBRANCH  22  23
ENDBRANCH  19  22
ENDBRANCH   1  16
TORSDOF 6
ENDMDL
MODEL 7
REMARK VINA RESULT:      -7.8      3.828      9.451
REMARK  Name = 
REMARK  10 active torsions:
REMARK  status: ('A' for Active; 'I' for Inactive)
REMARK    1  A    between atoms: C_1  and  C_2
REMARK    2  A    between atoms: C_2  and  C_3
REMARK    3  A    between atoms: C_5  and  C_6
REMARK    4  A    between atoms: N_8  and  C_9
REMARK    5  A    between atoms: C_9  and  C_10
REMARK    6  A    between atoms: C_13  and  O_14
REMARK    7  A    between atoms: O_14  and  C_15
REMARK    8  A    between atoms: C_18  and  C_19
REMARK    9  A    between atoms: C_24  and  C_25
REMARK   10  A    between atoms: N_27  and  C_28
REMARK                            x       y       z     vdW  Elec       q    Type
REMARK                         _______ _______ _______ _____ _____    ______ ____
ROOT
ATOM      1  C   UNL     1      -0.337  10.402  20.409  0.00  0.00    +0.000 C 
ENDROOT
BRANCH   1   4
ATOM      2  C   UNL     1       0.543  12.634  20.446  0.00  0.00    +0.000 C 
ATOM      3  O   UNL     1       0.905  12.387  21.602  0.00  0.00    +0.000 OA
ATOM      4  N   UNL     1      -0.275  11.700  19.746  0.00  0.00    +0.000 N 
ATOM      5  C   UNL     1      -1.005  11.982  18.591  0.00  0.00    +0.000 C 
ATOM      6  C   UNL     1      -1.689  10.869  17.813  0.00  0.00    +0.000 C 
ATOM      7  O   UNL     1      -1.161  13.121  18.142  0.00  0.00    +0.000 OA
BRANCH   2  10
ATOM      8  C   UNL     1       1.350  15.917  19.028  0.00  0.00    +0.000 A 
ATOM      9  C   UNL     1       0.563  15.159  19.920  0.00  0.00    +0.000 A 
ATOM     10  C   UNL     1       1.005  13.849  19.804  0.00  0.00    +0.000 A 
ATOM     11  N   UNL     1       1.954  13.900  18.807  0.00  0.00    +0.000 N 
ATOM     12  C   UNL     1       2.676  12.825  18.173  0.00  0.00    +0.000 C 
ATOM     13  N   UNL     1       2.205  15.145  18.357  0.00  0.00    +0.000 NA
BRANCH   8  15
ATOM     14  C   UNL     1       1.668  17.672  17.296  0.00  0.00    +0.000 C 
ATOM     15  C   UNL     1       1.294  17.377  18.741  0.00  0.00    +0.000 C 
ENDBRANCH   8  15
ENDBRANCH   2  10
ENDBRANCH   1   4
BRANCH   1  16
ATOM     16  C   UNL     1       0.792   9.428  20.117  0.00  0.00    +0.000 A 
ATOM     17  C   UNL     1       1.113   8.396  21.004  0.00  0.00    +0.000 A 
ATOM     18  C   UNL     1       1.826   7.285  20.547  0.00  0.00    +0.000 A 
ATOM     19  C   UNL     1       2.137   7.184  19.188  0.00  0.00    +0.000 A 
ATOM     20  C   UNL     1       2.030   8.293  18.358  0.00  0.00    +0.000 A 
ATOM     21  C   UNL     1       1.365   9.424  18.834  0.00  0.00    +0.000 A 
BRANCH  19  22
ATOM     22  O   UNL     1       2.419   5.964  18.606  0.00  0.00    +0.000 OA
BRANCH  22  23
ATOM     23  C   UNL     1       3.753   5.728  18.324  0.00  0.00    +0.000 A 
ATOM     24  C   UNL     1       4.328   5.878  17.049  0.00  0.00    +0.000 A 
ATOM     25  C   UNL     1       5.640   5.462  16.797  0.00  0.00    +0.000 A 
ATOM     26  C   UNL     1       6.424   4.966  17.839  0.00  0.00    +0.000 A 
ATOM     27  C   UNL     1       7.834   4.518  17.584  0.00  0.00    +0.000 C 
ATOM     28  C   UNL     1       5.886   4.921  19.131  0.00  0.00    +0.000 A 
ATOM     29  C   UNL     1       4.561   5.296  19.376  0.00  0.00    +0.000 A 
ENDBRANCH  22  23
ENDBRANCH  19  22
ENDBRANCH   1  16
TORSDOF 6
ENDMDL
MODEL 8
REMARK VINA RESULT:      -7.8      3.955      9.236
REMARK  Name = 
REMARK  10 active torsions:
REMARK  status: ('A' for Active; 'I' for Inactive)
REMARK    1  A    between atoms: C_1  and  C_2
REMARK    2  A    between atoms: C_2  and  C_3
REMARK    3  A    between atoms: C_5  and  C_6
REMARK    4  A    between atoms: N_8  and  C_9
REMARK    5  A    between atoms: C_9  and  C_10
REMARK    6  A    between atoms: C_13  and  O_14
REMARK    7  A    between atoms: O_14  and  C_15
REMARK    8  A    between atoms: C_18  and  C_19
REMARK    9  A    between atoms: C_24  and  C_25
REMARK   10  A    between atoms: N_27  and  C_28
REMARK                            x       y       z     vdW  Elec       q    Type
REMARK                         _______ _______ _______ _____ _____    ______ ____
ROOT
ATOM      1  C   UNL     1      -0.006  10.172  20.190  0.00  0.00    +0.000 C 
ENDROOT
BRANCH   1   4
ATOM      2  C   UNL     1       1.072  12.316  20.163  0.00  0.00    +0.000 C 
ATOM      3  O   UNL     1       1.545  12.003  21.261  0.00  0.00    +0.000 OA
ATOM      4  N   UNL     1       0.095  11.478  19.550  0.00  0.00    +0.000 N 
ATOM      5  C   UNL     1      -0.739  11.859  18.498  0.00  0.00    +0.000 C 
ATOM      6  C   UNL     1      -1.609  10.834  17.787  0.00  0.00    +0.000 C 
ATOM      7  O   UNL     1      -0.843  13.020  18.093  0.00  0.00    +0.000 OA
BRANCH   2  10
ATOM      8  C   UNL     1       2.627  15.043  18.270  0.00  0.00    +0.000 A 
ATOM      9  C   UNL     1       2.531  13.656  18.513  0.00  0.00    +0.000 A 
ATOM     10  C   UNL     1       1.563  13.505  19.494  0.00  0.00    +0.000 A 
ATOM     11  N   UNL     1       1.210  14.795  19.824  0.00  0.00    +0.000 N 
ATOM     12  C   UNL     1       0.331  15.268  20.865  0.00  0.00    +0.000 C 
ATOM     13  N   UNL     1       1.811  15.734  19.066  0.00  0.00    +0.000 NA
BRANCH   8  15
ATOM     14  C   UNL     1       2.881  17.066  16.847  0.00  0.00    +0.000 C 
ATOM     15  C   UNL     1       3.516  15.767  17.321  0.00  0.00    +0.000 C 
ENDBRANCH   8  15
ENDBRANCH   2  10
ENDBRANCH   1   4
BRANCH   1  16
ATOM     16  C   UNL     1       1.073   9.156  19.850  0.00  0.00    +0.000 A 
ATOM     17  C   UNL     1       1.489   8.197  20.777  0.00  0.00    +0.000 A 
ATOM     18  C   UNL     1       2.134   7.039  20.334  0.00  0.00    +0.000 A 
ATOM     19  C   UNL     1       2.278   6.819  18.961  0.00  0.00    +0.000 A 
ATOM     20  C   UNL     1       2.082   7.858  18.059  0.00  0.00    +0.000 A 
ATOM     21  C   UNL     1       1.488   9.035  18.512  0.00  0.00    +0.000 A 
BRANCH  19  22
ATOM     22  O   UNL     1       2.478   5.550  18.454  0.00  0.00    +0.000 OA
BRANCH  22  23
ATOM     23  C   UNL     1       3.551   5.411  17.591  0.00  0.00    +0.000 A 
ATOM     24  C   UNL     1       3.817   4.249  16.844  0.00  0.00    +0.000 A 
ATOM     25  C   UNL     1       5.007   4.113  16.122  0.00  0.00    +0.000 A 
ATOM     26  C   UNL     1       5.913   5.173  16.068  0.00  0.00    +0.000 A 
ATOM     27  C   UNL     1       7.193   5.043  15.296  0.00  0.00    +0.000 C 
ATOM     28  C   UNL     1       5.595   6.371  16.721  0.00  0.00    +0.000 A 
ATOM     29  C   UNL     1       4.425   6.492  17.479  0.00  0.00    +0.000 A 
ENDBRANCH  22  23
ENDBRANCH  19  22
ENDBRANCH   1  16
TORSDOF 6
ENDMDL
MODEL 9
REMARK VINA RESULT:      -7.8      3.209      9.425
REMARK  Name = 
REMARK  10 active torsions:
REMARK  status: ('A' for Active; 'I' for Inactive)
REMARK    1  A    between atoms: C_1  and  C_2
REMARK    2  A    between atoms: C_2  and  C_3
REMARK    3  A    between atoms: C_5  and  C_6
REMARK    4  A    between atoms: N_8  and  C_9
REMARK    5  A    between atoms: C_9  and  C_10
REMARK    6  A    between atoms: C_13  and  O_14
REMARK    7  A    between atoms: O_14  and  C_15
REMARK    8  A    between atoms: C_18  and  C_19
REMARK    9  A    between atoms: C_24  and  C_25
REMARK   10  A    between atoms: N_27  and  C_28
REMARK                            x       y       z     vdW  Elec       q    Type
REMARK                         _______ _______ _______ _____ _____    ______ ____
ROOT
ATOM      1  C   UNL     1       1.797   9.092  20.566  0.00  0.00    +0.000 C 
ENDROOT
BRANCH   1   4
ATOM      2  C   UNL     1       0.328  10.322  19.120  0.00  0.00    +0.000 C 
ATOM      3  O   UNL     1       1.272  10.357  18.323  0.00  0.00    +0.000 OA
ATOM      4  N   UNL     1       0.531   9.803  20.432  0.00  0.00    +0.000 N 
ATOM      5  C   UNL     1      -0.333   9.994  21.511  0.00  0.00    +0.000 C 
ATOM      6  C   UNL     1      -0.127   9.238  22.815  0.00  0.00    +0.000 C 
ATOM      7  O   UNL     1      -1.285  10.780  21.495  0.00  0.00    +0.000 OA
BRANCH   2  10
ATOM      8  C   UNL     1      -3.046  11.000  17.857  0.00  0.00    +0.000 A 
ATOM      9  C   UNL     1      -2.033  10.053  18.119  0.00  0.00    +0.000 A 
ATOM     10  C   UNL     1      -0.983  10.761  18.686  0.00  0.00    +0.000 A 
ATOM     11  N   UNL     1      -1.400  12.073  18.648  0.00  0.00    +0.000 N 
ATOM     12  C   UNL     1      -0.681  13.275  18.993  0.00  0.00    +0.000 C 
ATOM     13  N   UNL     1      -2.658  12.231  18.190  0.00  0.00    +0.000 NA
BRANCH   8  15
ATOM     14  C   UNL     1      -5.276  12.011  17.427  0.00  0.00    +0.000 C 
ATOM     15  C   UNL     1      -4.386  10.790  17.244  0.00  0.00    +0.000 C 
ENDBRANCH   8  15
ENDBRANCH   2  10
ENDBRANCH   1   4
BRANCH   1  16
ATOM     16  C   UNL     1       1.869   7.699  19.964  0.00  0.00    +0.000 A 
ATOM     17  C   UNL     1       2.377   7.483  18.680  0.00  0.00    +0.000 A 
ATOM     18  C   UNL     1       2.832   6.213  18.318  0.00  0.00    +0.000 A 
ATOM     19  C   UNL     1       2.847   5.194  19.275  0.00  0.00    +0.000 A 
ATOM     20  C   UNL     1       2.139   5.333  20.462  0.00  0.00    +0.000 A 
ATOM     21  C   UNL     1       1.637   6.591  20.798  0.00  0.00    +0.000 A 
BRANCH  19  22
ATOM     22  O   UNL     1       3.670   4.093  19.137  0.00  0.00    +0.000 OA
BRANCH  22  23
ATOM     23  C   UNL     1       4.613   4.172  18.127  0.00  0.00    +0.000 A 
ATOM     24  C   UNL     1       5.945   4.579  18.323  0.00  0.00    +0.000 A 
ATOM     25  C   UNL     1       6.799   4.799  17.236  0.00  0.00    +0.000 A 
ATOM     26  C   UNL     1       6.356   4.534  15.940  0.00  0.00    +0.000 A 
ATOM     27  C   UNL     1       7.260   4.764  14.765  0.00  0.00    +0.000 C 
ATOM     28  C   UNL     1       5.065   4.023  15.755  0.00  0.00    +0.000 A 
ATOM     29  C   UNL     1       4.197   3.843  16.837  0.00  0.00    +0.000 A 
ENDBRANCH  22  23
ENDBRANCH  19  22
ENDBRANCH   1  16
TORSDOF 6
ENDMDL
