MODEL 1
REMARK VINA RESULT:      -8.4      0.000      0.000
REMARK  Name = 
REMARK  9 active torsions:
REMARK  status: ('A' for Active; 'I' for Inactive)
REMARK    1  A    between atoms: C_1  and  O_2
REMARK    2  A    between atoms: O_2  and  C_3
REMARK    3  A    between atoms: C_6  and  C_7
REMARK    4  A    between atoms: C_7  and  C_8
REMARK    5  A    between atoms: C_8  and  N_9
REMARK    6  A    between atoms: C_16  and  N_17
REMARK    7  A    between atoms: N_17  and  N_18
REMARK    8  A    between atoms: C_27  and  O_28
REMARK    9  A    between atoms: O_28  and  C_29
REMARK                            x       y       z     vdW  Elec       q    Type
REMARK                         _______ _______ _______ _____ _____    ______ ____
ROOT
ATOM      1  N   UNL     1       1.349   8.889  19.580  0.00  0.00    +0.000 N 
ATOM      2  C   UNL     1       1.432   8.053  20.683  0.00  0.00    +0.000 C 
ATOM      3  O   UNL     1       0.984   8.328  21.795  0.00  0.00    +0.000 OA
ATOM      4  N   UNL     1       2.081   6.863  20.521  0.00  0.00    +0.000 N 
ATOM      5  C   UNL     1       2.840   6.470  19.454  0.00  0.00    +0.000 C 
ATOM      6  O   UNL     1       3.453   5.407  19.459  0.00  0.00    +0.000 OA
ATOM      7  C   UNL     1       2.872   7.431  18.354  0.00  0.00    +0.000 C 
ATOM      8  C   UNL     1       3.671   7.240  17.285  0.00  0.00    +0.000 C 
ATOM      9  C   UNL     1       2.072   8.676  18.411  0.00  0.00    +0.000 C 
ATOM     10  O   UNL     1       2.088   9.451  17.458  0.00  0.00    +0.000 OA
ATOM     11  H   UNL     1       2.120   6.271  21.340  0.00  0.00    +0.000 HD
ENDROOT
BRANCH   8  12
ATOM     12  N   UNL     1       4.508   6.193  16.987  0.00  0.00    +0.000 N 
ATOM     13  H   UNL     1       4.189   5.245  17.224  0.00  0.00    +0.000 HD
BRANCH  12  14
ATOM     14  N   UNL     1       5.701   6.450  16.319  0.00  0.00    +0.000 NA
ATOM     15  C   UNL     1       5.991   5.417  15.311  0.00  0.00    +0.000 C 
ATOM     16  C   UNL     1       6.677   4.156  15.855  0.00  0.00    +0.000 C 
ATOM     17  O   UNL     1       7.828   4.476  16.644  0.00  0.00    +0.000 OA
ATOM     18  C   UNL     1       7.448   5.307  17.746  0.00  0.00    +0.000 C 
ATOM     19  C   UNL     1       6.827   6.621  17.257  0.00  0.00    +0.000 C 
ENDBRANCH  12  14
ENDBRANCH   8  12
BRANCH   1  20
ATOM     20  C   UNL     1       0.663  10.182  19.795  0.00  0.00    +0.000 C 
BRANCH  20  21
ATOM     21  C   UNL     1       0.243  10.956  18.538  0.00  0.00    +0.000 C 
BRANCH  21  25
ATOM     22  C   UNL     1      -3.966  11.058  17.563  0.00  0.00    +0.000 A 
ATOM     23  C   UNL     1      -3.481  11.670  18.729  0.00  0.00    +0.000 A 
ATOM     24  C   UNL     1      -2.128  11.615  19.055  0.00  0.00    +0.000 A 
ATOM     25  C   UNL     1      -1.236  10.907  18.247  0.00  0.00    +0.000 A 
ATOM     26  C   UNL     1      -1.737  10.215  17.142  0.00  0.00    +0.000 A 
ATOM     27  C   UNL     1      -3.095  10.275  16.791  0.00  0.00    +0.000 A 
BRANCH  22  29
ATOM     28  C   UNL     1      -5.851  12.481  17.511  0.00  0.00    +0.000 C 
ATOM     29  O   UNL     1      -5.272  11.216  17.180  0.00  0.00    +0.000 OA
ENDBRANCH  22  29
BRANCH  27  30
ATOM     30  O   UNL     1      -3.351   9.538  15.666  0.00  0.00    +0.000 OA
ATOM     31  C   UNL     1      -3.001  10.063  14.398  0.00  0.00    +0.000 C 
ENDBRANCH  27  30
ENDBRANCH  21  25
ENDBRANCH  20  21
ENDBRANCH   1  20
TORSDOF 7
ENDMDL
MODEL 2
REMARK VINA RESULT:      -8.4      0.932      2.059
REMARK  Name = 
REMARK  9 active torsions:
REMARK  status: ('A' for Active; 'I' for Inactive)
REMARK    1  A    between atoms: C_1  and  O_2
REMARK    2  A    between atoms: O_2  and  C_3
REMARK    3  A    between atoms: C_6  and  C_7
REMARK    4  A    between atoms: C_7  and  C_8
REMARK    5  A    between atoms: C_8  and  N_9
REMARK    6  A    between atoms: C_16  and  N_17
REMARK    7  A    between atoms: N_17  and  N_18
REMARK    8  A    between atoms: C_27  and  O_28
REMARK    9  A    between atoms: O_28  and  C_29
REMARK                            x       y       z     vdW  Elec       q    Type
REMARK                         _______ _______ _______ _____ _____    ______ ____
ROOT
ATOM      1  N   UNL     1       1.273   9.015  19.647  0.00  0.00    +0.000 N 
ATOM      2  C   UNL     1       1.274   8.383  20.881  0.00  0.00    +0.000 C 
ATOM      3  O   UNL     1       0.900   8.910  21.928  0.00  0.00    +0.000 OA
ATOM      4  N   UNL     1       1.750   7.105  20.932  0.00  0.00    +0.000 N 
ATOM      5  C   UNL     1       2.416   6.427  19.950  0.00  0.00    +0.000 C 
ATOM      6  O   UNL     1       2.877   5.306  20.142  0.00  0.00    +0.000 OA
ATOM      7  C   UNL     1       2.547   7.164  18.695  0.00  0.00    +0.000 C 
ATOM      8  C   UNL     1       3.280   6.677  17.674  0.00  0.00    +0.000 C 
ATOM      9  C   UNL     1       1.927   8.499  18.532  0.00  0.00    +0.000 C 
ATOM     10  O   UNL     1       2.021   9.084  17.455  0.00  0.00    +0.000 OA
ATOM     11  H   UNL     1       1.730   6.667  21.843  0.00  0.00    +0.000 HD
ENDROOT
BRANCH   8  12
ATOM     12  N   UNL     1       3.957   5.488  17.565  0.00  0.00    +0.000 N 
ATOM     13  H   UNL     1       3.709   4.735  18.220  0.00  0.00    +0.000 HD
BRANCH  12  14
ATOM     14  N   UNL     1       4.884   5.329  16.539  0.00  0.00    +0.000 NA
ATOM     15  C   UNL     1       5.825   4.233  16.826  0.00  0.00    +0.000 C 
ATOM     16  C   UNL     1       7.016   4.617  17.714  0.00  0.00    +0.000 C 
ATOM     17  O   UNL     1       7.684   5.788  17.230  0.00  0.00    +0.000 OA
ATOM     18  C   UNL     1       6.769   6.887  17.183  0.00  0.00    +0.000 C 
ATOM     19  C   UNL     1       5.594   6.587  16.244  0.00  0.00    +0.000 C 
ENDBRANCH  12  14
ENDBRANCH   8  12
BRANCH   1  20
ATOM     20  C   UNL     1       0.778  10.408  19.630  0.00  0.00    +0.000 C 
BRANCH  20  21
ATOM     21  C   UNL     1      -0.710  10.613  19.946  0.00  0.00    +0.000 C 
BRANCH  21  25
ATOM     22  C   UNL     1      -3.363  10.653  16.534  0.00  0.00    +0.000 A 
ATOM     23  C   UNL     1      -2.116  10.012  16.471  0.00  0.00    +0.000 A 
ATOM     24  C   UNL     1      -1.252  10.022  17.563  0.00  0.00    +0.000 A 
ATOM     25  C   UNL     1      -1.593  10.711  18.727  0.00  0.00    +0.000 A 
ATOM     26  C   UNL     1      -2.790  11.432  18.753  0.00  0.00    +0.000 A 
ATOM     27  C   UNL     1      -3.680  11.418  17.667  0.00  0.00    +0.000 A 
BRANCH  22  29
ATOM     28  C   UNL     1      -3.705  10.120  14.259  0.00  0.00    +0.000 C 
ATOM     29  O   UNL     1      -4.262  10.540  15.507  0.00  0.00    +0.000 OA
ENDBRANCH  22  29
BRANCH  27  30
ATOM     30  O   UNL     1      -4.790  12.176  17.925  0.00  0.00    +0.000 OA
ATOM     31  C   UNL     1      -5.142  12.459  19.267  0.00  0.00    +0.000 C 
ENDBRANCH  27  30
ENDBRANCH  21  25
ENDBRANCH  20  21
ENDBRANCH   1  20
TORSDOF 7
ENDMDL
MODEL 3
REMARK VINA RESULT:      -8.1      5.774      9.036
REMARK  Name = 
REMARK  9 active torsions:
REMARK  status: ('A' for Active; 'I' for Inactive)
REMARK    1  A    between atoms: C_1  and  O_2
REMARK    2  A    between atoms: O_2  and  C_3
REMARK    3  A    between atoms: C_6  and  C_7
REMARK    4  A    between atoms: C_7  and  C_8
REMARK    5  A    between atoms: C_8  and  N_9
REMARK    6  A    between atoms: C_16  and  N_17
REMARK    7  A    between atoms: N_17  and  N_18
REMARK    8  A    between atoms: C_27  and  O_28
REMARK    9  A    between atoms: O_28  and  C_29
REMARK                            x       y       z     vdW  Elec       q    Type
REMARK                         _______ _______ _______ _____ _____    ______ ____
ROOT
ATOM      1  N   UNL     1       6.971   6.577  17.931  0.00  0.00    +0.000 N 
ATOM      2  C   UNL     1       7.461   5.906  19.041  0.00  0.00    +0.000 C 
ATOM      3  O   UNL     1       8.543   6.150  19.575  0.00  0.00    +0.000 OA
ATOM      4  N   UNL     1       6.701   4.892  19.548  0.00  0.00    +0.000 N 
ATOM      5  C   UNL     1       5.601   4.315  18.980  0.00  0.00    +0.000 C 
ATOM      6  O   UNL     1       5.049   3.344  19.489  0.00  0.00    +0.000 OA
ATOM      7  C   UNL     1       5.180   4.933  17.724  0.00  0.00    +0.000 C 
ATOM      8  C   UNL     1       4.185   4.402  16.985  0.00  0.00    +0.000 C 
ATOM      9  C   UNL     1       5.878   6.128  17.196  0.00  0.00    +0.000 C 
ATOM     10  O   UNL     1       5.483   6.650  16.156  0.00  0.00    +0.000 OA
ATOM     11  H   UNL     1       7.081   4.427  20.362  0.00  0.00    +0.000 HD
ENDROOT
BRANCH   8  12
ATOM     12  N   UNL     1       3.389   3.311  17.234  0.00  0.00    +0.000 N 
ATOM     13  H   UNL     1       3.847   2.393  17.307  0.00  0.00    +0.000 HD
BRANCH  12  14
ATOM     14  N   UNL     1       2.027   3.502  17.446  0.00  0.00    +0.000 NA
ATOM     15  C   UNL     1       1.753   4.816  18.050  0.00  0.00    +0.000 C 
ATOM     16  C   UNL     1       1.900   4.871  19.577  0.00  0.00    +0.000 C 
ATOM     17  O   UNL     1       1.171   3.818  20.219  0.00  0.00    +0.000 OA
ATOM     18  C   UNL     1       1.637   2.548  19.754  0.00  0.00    +0.000 C 
ATOM     19  C   UNL     1       1.439   2.408  18.240  0.00  0.00    +0.000 C 
ENDBRANCH  12  14
ENDBRANCH   8  12
BRANCH   1  20
ATOM     20  C   UNL     1       7.829   7.651  17.389  0.00  0.00    +0.000 C 
BRANCH  20  21
ATOM     21  C   UNL     1       7.271   9.080  17.456  0.00  0.00    +0.000 C 
BRANCH  21  25
ATOM     22  C   UNL     1      10.111  11.849  19.171  0.00  0.00    +0.000 A 
ATOM     23  C   UNL     1      10.011  10.532  19.645  0.00  0.00    +0.000 A 
ATOM     24  C   UNL     1       9.079   9.648  19.109  0.00  0.00    +0.000 A 
ATOM     25  C   UNL     1       8.191  10.073  18.118  0.00  0.00    +0.000 A 
ATOM     26  C   UNL     1       8.225  11.411  17.717  0.00  0.00    +0.000 A 
ATOM     27  C   UNL     1       9.171  12.311  18.237  0.00  0.00    +0.000 A 
BRANCH  22  29
ATOM     28  C   UNL     1      10.702  13.654  20.576  0.00  0.00    +0.000 C 
ATOM     29  O   UNL     1      11.108  12.680  19.612  0.00  0.00    +0.000 OA
ENDBRANCH  22  29
BRANCH  27  30
ATOM     30  O   UNL     1       9.028  13.555  17.686  0.00  0.00    +0.000 OA
ATOM     31  C   UNL     1       7.820  14.268  17.884  0.00  0.00    +0.000 C 
ENDBRANCH  27  30
ENDBRANCH  21  25
ENDBRANCH  20  21
ENDBRANCH   1  20
TORSDOF 7
ENDMDL
MODEL 4
REMARK VINA RESULT:      -8.1      2.179      3.152
REMARK  Name = 
REMARK  9 active torsions:
REMARK  status: ('A' for Active; 'I' for Inactive)
REMARK    1  A    between atoms: C_1  and  O_2
REMARK    2  A    between atoms: O_2  and  C_3
REMARK    3  A    between atoms: C_6  and  C_7
REMARK    4  A    between atoms: C_7  and  C_8
REMARK    5  A    between atoms: C_8  and  N_9
REMARK    6  A    between atoms: C_16  and  N_17
REMARK    7  A    between atoms: N_17  and  N_18
REMARK    8  A    between atoms: C_27  and  O_28
REMARK    9  A    between atoms: O_28  and  C_29
REMARK                            x       y       z     vdW  Elec       q    Type
REMARK                         _______ _______ _______ _____ _____    ______ ____
ROOT
ATOM      1  N   UNL     1       1.313   8.984  19.715  0.00  0.00    +0.000 N 
ATOM      2  C   UNL     1       1.325   8.510  21.018  0.00  0.00    +0.000 C 
ATOM      3  O   UNL     1       1.014   9.181  22.002  0.00  0.00    +0.000 OA
ATOM      4  N   UNL     1       1.738   7.224  21.214  0.00  0.00    +0.000 N 
ATOM      5  C   UNL     1       2.336   6.396  20.306  0.00  0.00    +0.000 C 
ATOM      6  O   UNL     1       2.748   5.284  20.623  0.00  0.00    +0.000 OA
ATOM      7  C   UNL     1       2.460   6.966  18.966  0.00  0.00    +0.000 C 
ATOM      8  C   UNL     1       3.133   6.318  17.993  0.00  0.00    +0.000 C 
ATOM      9  C   UNL     1       1.901   8.302  18.655  0.00  0.00    +0.000 C 
ATOM     10  O   UNL     1       1.987   8.744  17.512  0.00  0.00    +0.000 OA
ATOM     11  H   UNL     1       1.729   6.904  22.173  0.00  0.00    +0.000 HD
ENDROOT
BRANCH   8  12
ATOM     12  N   UNL     1       3.745   5.090  18.013  0.00  0.00    +0.000 N 
ATOM     13  H   UNL     1       4.571   4.979  18.616  0.00  0.00    +0.000 HD
BRANCH  12  14
ATOM     14  N   UNL     1       3.188   4.043  17.286  0.00  0.00    +0.000 NA
ATOM     15  C   UNL     1       1.727   3.986  17.453  0.00  0.00    +0.000 C 
ATOM     16  C   UNL     1       1.247   3.242  18.708  0.00  0.00    +0.000 C 
ATOM     17  O   UNL     1       1.854   1.950  18.824  0.00  0.00    +0.000 OA
ATOM     18  C   UNL     1       3.278   2.084  18.881  0.00  0.00    +0.000 C 
ATOM     19  C   UNL     1       3.821   2.752  17.612  0.00  0.00    +0.000 C 
ENDBRANCH  12  14
ENDBRANCH   8  12
BRANCH   1  20
ATOM     20  C   UNL     1       0.887  10.389  19.539  0.00  0.00    +0.000 C 
BRANCH  20  21
ATOM     21  C   UNL     1      -0.564  10.721  19.912  0.00  0.00    +0.000 C 
BRANCH  21  25
ATOM     22  C   UNL     1      -3.354  10.709  16.611  0.00  0.00    +0.000 A 
ATOM     23  C   UNL     1      -2.071  10.156  16.474  0.00  0.00    +0.000 A 
ATOM     24  C   UNL     1      -1.165  10.182  17.530  0.00  0.00    +0.000 A 
ATOM     25  C   UNL     1      -1.502  10.804  18.734  0.00  0.00    +0.000 A 
ATOM     26  C   UNL     1      -2.741  11.441  18.835  0.00  0.00    +0.000 A 
ATOM     27  C   UNL     1      -3.673  11.409  17.785  0.00  0.00    +0.000 A 
BRANCH  22  29
ATOM     28  C   UNL     1      -3.775  10.095  14.369  0.00  0.00    +0.000 C 
ATOM     29  O   UNL     1      -4.286  10.574  15.616  0.00  0.00    +0.000 OA
ENDBRANCH  22  29
BRANCH  27  30
ATOM     30  O   UNL     1      -4.818  12.080  18.115  0.00  0.00    +0.000 OA
ATOM     31  C   UNL     1      -5.003  12.526  19.447  0.00  0.00    +0.000 C 
ENDBRANCH  27  30
ENDBRANCH  21  25
ENDBRANCH  20  21
ENDBRANCH   1  20
TORSDOF 7
ENDMDL
MODEL 5
REMARK VINA RESULT:      -8.0      2.815      9.117
REMARK  Name = 
REMARK  9 active torsions:
REMARK  status: ('A' for Active; 'I' for Inactive)
REMARK    1  A    between atoms: C_1  and  O_2
REMARK    2  A    between atoms: O_2  and  C_3
REMARK    3  A    between atoms: C_6  and  C_7
REMARK    4  A    between atoms: C_7  and  C_8
REMARK    5  A    between atoms: C_8  and  N_9
REMARK    6  A    between atoms: C_16  and  N_17
REMARK    7  A    between atoms: N_17  and  N_18
REMARK    8  A    between atoms: C_27  and  O_28
REMARK    9  A    between atoms: O_28  and  C_29
REMARK                            x       y       z     vdW  Elec       q    Type
REMARK                         _______ _______ _______ _____ _____    ______ ____
ROOT
ATOM      1  N   UNL     1       2.410   6.235  19.067  0.00  0.00    +0.000 N 
ATOM      2  C   UNL     1       1.962   5.835  20.316  0.00  0.00    +0.000 C 
ATOM      3  O   UNL     1       1.871   4.662  20.677  0.00  0.00    +0.000 OA
ATOM      4  N   UNL     1       1.571   6.813  21.185  0.00  0.00    +0.000 N 
ATOM      5  C   UNL     1       1.375   8.137  20.911  0.00  0.00    +0.000 C 
ATOM      6  O   UNL     1       0.933   8.910  21.757  0.00  0.00    +0.000 OA
ATOM      7  C   UNL     1       1.704   8.521  19.540  0.00  0.00    +0.000 C 
ATOM      8  C   UNL     1       1.452   9.765  19.085  0.00  0.00    +0.000 C 
ATOM      9  C   UNL     1       2.270   7.534  18.591  0.00  0.00    +0.000 C 
ATOM     10  O   UNL     1       2.572   7.891  17.455  0.00  0.00    +0.000 OA
ATOM     11  H   UNL     1       1.256   6.492  22.091  0.00  0.00    +0.000 HD
ENDROOT
BRANCH   8  12
ATOM     12  N   UNL     1       0.934  10.854  19.741  0.00  0.00    +0.000 N 
ATOM     13  H   UNL     1       1.585  11.445  20.274  0.00  0.00    +0.000 HD
BRANCH  12  14
ATOM     14  N   UNL     1      -0.418  11.150  19.597  0.00  0.00    +0.000 NA
ATOM     15  C   UNL     1      -0.664  12.000  18.420  0.00  0.00    +0.000 C 
ATOM     16  C   UNL     1      -0.458  13.503  18.651  0.00  0.00    +0.000 C 
ATOM     17  O   UNL     1      -1.167  13.965  19.807  0.00  0.00    +0.000 OA
ATOM     18  C   UNL     1      -0.724  13.253  20.967  0.00  0.00    +0.000 C 
ATOM     19  C   UNL     1      -0.980  11.748  20.822  0.00  0.00    +0.000 C 
ENDBRANCH  12  14
ENDBRANCH   8  12
BRANCH   1  20
ATOM     20  C   UNL     1       2.800   5.151  18.139  0.00  0.00    +0.000 C 
BRANCH  20  21
ATOM     21  C   UNL     1       4.126   4.436  18.435  0.00  0.00    +0.000 C 
BRANCH  21  25
ATOM     22  C   UNL     1       6.927   5.048  15.202  0.00  0.00    +0.000 A 
ATOM     23  C   UNL     1       6.057   3.947  15.203  0.00  0.00    +0.000 A 
ATOM     24  C   UNL     1       5.173   3.737  16.258  0.00  0.00    +0.000 A 
ATOM     25  C   UNL     1       5.169   4.597  17.358  0.00  0.00    +0.000 A 
ATOM     26  C   UNL     1       6.103   5.635  17.401  0.00  0.00    +0.000 A 
ATOM     27  C   UNL     1       6.991   5.869  16.338  0.00  0.00    +0.000 A 
BRANCH  22  29
ATOM     28  C   UNL     1       7.263   4.736  12.884  0.00  0.00    +0.000 C 
ATOM     29  O   UNL     1       7.709   5.322  14.110  0.00  0.00    +0.000 OA
ENDBRANCH  22  29
BRANCH  27  30
ATOM     30  O   UNL     1       7.797   6.946  16.591  0.00  0.00    +0.000 OA
ATOM     31  C   UNL     1       7.622   7.678  17.791  0.00  0.00    +0.000 C 
ENDBRANCH  27  30
ENDBRANCH  21  25
ENDBRANCH  20  21
ENDBRANCH   1  20
TORSDOF 7
ENDMDL
MODEL 6
REMARK VINA RESULT:      -8.0      2.123      3.205
REMARK  Name = 
REMARK  9 active torsions:
REMARK  status: ('A' for Active; 'I' for Inactive)
REMARK    1  A    between atoms: C_1  and  O_2
REMARK    2  A    between atoms: O_2  and  C_3
REMARK    3  A    between atoms: C_6  and  C_7
REMARK    4  A    between atoms: C_7  and  C_8
REMARK    5  A    between atoms: C_8  and  N_9
REMARK    6  A    between atoms: C_16  and  N_17
REMARK    7  A    between atoms: N_17  and  N_18
REMARK    8  A    between atoms: C_27  and  O_28
REMARK    9  A    between atoms: O_28  and  C_29
REMARK                            x       y       z     vdW  Elec       q    Type
REMARK                         _______ _______ _______ _____ _____    ______ ____
ROOT
ATOM      1  N   UNL     1       1.387   8.945  19.496  0.00  0.00    +0.000 N 
ATOM      2  C   UNL     1       1.473   8.127  20.612  0.00  0.00    +0.000 C 
ATOM      3  O   UNL     1       1.032   8.421  21.722  0.00  0.00    +0.000 OA
ATOM      4  N   UNL     1       2.116   6.932  20.465  0.00  0.00    +0.000 N 
ATOM      5  C   UNL     1       2.867   6.518  19.401  0.00  0.00    +0.000 C 
ATOM      6  O   UNL     1       3.476   5.452  19.420  0.00  0.00    +0.000 OA
ATOM      7  C   UNL     1       2.897   7.461  18.285  0.00  0.00    +0.000 C 
ATOM      8  C   UNL     1       3.689   7.249  17.215  0.00  0.00    +0.000 C 
ATOM      9  C   UNL     1       2.102   8.710  18.327  0.00  0.00    +0.000 C 
ATOM     10  O   UNL     1       2.116   9.470  17.361  0.00  0.00    +0.000 OA
ATOM     11  H   UNL     1       2.157   6.353  21.294  0.00  0.00    +0.000 HD
ENDROOT
BRANCH   8  12
ATOM     12  N   UNL     1       4.520   6.194  16.929  0.00  0.00    +0.000 N 
ATOM     13  H   UNL     1       4.186   5.248  17.156  0.00  0.00    +0.000 HD
BRANCH  12  14
ATOM     14  N   UNL     1       5.729   6.440  16.287  0.00  0.00    +0.000 NA
ATOM     15  C   UNL     1       6.031   5.403  15.285  0.00  0.00    +0.000 C 
ATOM     16  C   UNL     1       6.694   4.137  15.843  0.00  0.00    +0.000 C 
ATOM     17  O   UNL     1       7.832   4.447  16.657  0.00  0.00    +0.000 OA
ATOM     18  C   UNL     1       7.436   5.282  17.750  0.00  0.00    +0.000 C 
ATOM     19  C   UNL     1       6.836   6.601  17.248  0.00  0.00    +0.000 C 
ENDBRANCH  12  14
ENDBRANCH   8  12
BRANCH   1  20
ATOM     20  C   UNL     1       0.708  10.244  19.694  0.00  0.00    +0.000 C 
BRANCH  20  21
ATOM     21  C   UNL     1      -0.692  10.390  19.080  0.00  0.00    +0.000 C 
BRANCH  21  25
ATOM     22  C   UNL     1      -3.388  13.031  21.184  0.00  0.00    +0.000 A 
ATOM     23  C   UNL     1      -3.602  12.708  19.835  0.00  0.00    +0.000 A 
ATOM     24  C   UNL     1      -2.718  11.877  19.152  0.00  0.00    +0.000 A 
ATOM     25  C   UNL     1      -1.575  11.387  19.787  0.00  0.00    +0.000 A 
ATOM     26  C   UNL     1      -1.312  11.790  21.098  0.00  0.00    +0.000 A 
ATOM     27  C   UNL     1      -2.202  12.614  21.806  0.00  0.00    +0.000 A 
BRANCH  22  29
ATOM     28  C   UNL     1      -5.309  12.960  22.557  0.00  0.00    +0.000 C 
ATOM     29  O   UNL     1      -4.320  13.747  21.889  0.00  0.00    +0.000 OA
ENDBRANCH  22  29
BRANCH  27  30
ATOM     30  O   UNL     1      -1.749  12.861  23.074  0.00  0.00    +0.000 OA
ATOM     31  C   UNL     1      -1.063  14.071  23.344  0.00  0.00    +0.000 C 
ENDBRANCH  27  30
ENDBRANCH  21  25
ENDBRANCH  20  21
ENDBRANCH   1  20
TORSDOF 7
ENDMDL
MODEL 7
REMARK VINA RESULT:      -8.0      3.347      8.865
REMARK  Name = 
REMARK  9 active torsions:
REMARK  status: ('A' for Active; 'I' for Inactive)
REMARK    1  A    between atoms: C_1  and  O_2
REMARK    2  A    between atoms: O_2  and  C_3
REMARK    3  A    between atoms: C_6  and  C_7
REMARK    4  A    between atoms: C_7  and  C_8
REMARK    5  A    between atoms: C_8  and  N_9
REMARK    6  A    between atoms: C_16  and  N_17
REMARK    7  A    between atoms: N_17  and  N_18
REMARK    8  A    between atoms: C_27  and  O_28
REMARK    9  A    between atoms: O_28  and  C_29
REMARK                            x       y       z     vdW  Elec       q    Type
REMARK                         _______ _______ _______ _____ _____    ______ ____
ROOT
ATOM      1  N   UNL     1       2.456   6.133  19.202  0.00  0.00    +0.000 N 
ATOM      2  C   UNL     1       1.893   5.880  20.444  0.00  0.00    +0.000 C 
ATOM      3  O   UNL     1       1.725   4.755  20.911  0.00  0.00    +0.000 OA
ATOM      4  N   UNL     1       1.475   6.955  21.174  0.00  0.00    +0.000 N 
ATOM      5  C   UNL     1       1.358   8.250  20.752  0.00  0.00    +0.000 C 
ATOM      6  O   UNL     1       0.883   9.121  21.476  0.00  0.00    +0.000 OA
ATOM      7  C   UNL     1       1.812   8.478  19.382  0.00  0.00    +0.000 C 
ATOM      8  C   UNL     1       1.649   9.676  18.785  0.00  0.00    +0.000 C 
ATOM      9  C   UNL     1       2.409   7.380  18.588  0.00  0.00    +0.000 C 
ATOM     10  O   UNL     1       2.816   7.606  17.451  0.00  0.00    +0.000 OA
ATOM     11  H   UNL     1       1.076   6.741  22.077  0.00  0.00    +0.000 HD
ENDROOT
BRANCH   8  12
ATOM     12  N   UNL     1       1.126  10.844  19.282  0.00  0.00    +0.000 N 
ATOM     13  H   UNL     1       0.853  10.861  20.273  0.00  0.00    +0.000 HD
BRANCH  12  14
ATOM     14  N   UNL     1       1.057  11.961  18.454  0.00  0.00    +0.000 NA
ATOM     15  C   UNL     1       2.358  12.643  18.356  0.00  0.00    +0.000 C 
ATOM     16  C   UNL     1       2.662  13.625  19.495  0.00  0.00    +0.000 C 
ATOM     17  O   UNL     1       1.585  14.546  19.704  0.00  0.00    +0.000 OA
ATOM     18  C   UNL     1       0.386  13.830  20.018  0.00  0.00    +0.000 C 
ATOM     19  C   UNL     1      -0.009  12.888  18.875  0.00  0.00    +0.000 C 
ENDBRANCH  12  14
ENDBRANCH   8  12
BRANCH   1  20
ATOM     20  C   UNL     1       2.874   4.946  18.425  0.00  0.00    +0.000 C 
BRANCH  20  21
ATOM     21  C   UNL     1       4.285   4.406  18.697  0.00  0.00    +0.000 C 
BRANCH  21  25
ATOM     22  C   UNL     1       6.838   5.048  15.270  0.00  0.00    +0.000 A 
ATOM     23  C   UNL     1       5.950   3.963  15.314  0.00  0.00    +0.000 A 
ATOM     24  C   UNL     1       5.145   3.743  16.429  0.00  0.00    +0.000 A 
ATOM     25  C   UNL     1       5.244   4.575  17.546  0.00  0.00    +0.000 A 
ATOM     26  C   UNL     1       6.199   5.595  17.539  0.00  0.00    +0.000 A 
ATOM     27  C   UNL     1       7.006   5.839  16.416  0.00  0.00    +0.000 A 
BRANCH  22  29
ATOM     28  C   UNL     1       7.130   4.605  12.968  0.00  0.00    +0.000 C 
ATOM     29  O   UNL     1       7.538   5.335  14.127  0.00  0.00    +0.000 OA
ENDBRANCH  22  29
BRANCH  27  30
ATOM     30  O   UNL     1       7.850   6.895  16.631  0.00  0.00    +0.000 OA
ATOM     31  C   UNL     1       7.587   7.789  17.698  0.00  0.00    +0.000 C 
ENDBRANCH  27  30
ENDBRANCH  21  25
ENDBRANCH  20  21
ENDBRANCH   1  20
TORSDOF 7
ENDMDL
MODEL 8
REMARK VINA RESULT:      -7.9      0.932      1.946
REMARK  Name = 
REMARK  9 active torsions:
REMARK  status: ('A' for Active; 'I' for Inactive)
REMARK    1  A    between atoms: C_1  and  O_2
REMARK    2  A    between atoms: O_2  and  C_3
REMARK    3  A    between atoms: C_6  and  C_7
REMARK    4  A    between atoms: C_7  and  C_8
REMARK    5  A    between atoms: C_8  and  N_9
REMARK    6  A    between atoms: C_16  and  N_17
REMARK    7  A    between atoms: N_17  and  N_18
REMARK    8  A    between atoms: C_27  and  O_28
REMARK    9  A    between atoms: O_28  and  C_29
REMARK                            x       y       z     vdW  Elec       q    Type
REMARK                         _______ _______ _______ _____ _____    ______ ____
ROOT
ATOM      1  N   UNL     1       1.281   8.826  19.548  0.00  0.00    +0.000 N 
ATOM      2  C   UNL     1       1.398   8.038  20.683  0.00  0.00    +0.000 C 
ATOM      3  O   UNL     1       0.936   8.336  21.784  0.00  0.00    +0.000 OA
ATOM      4  N   UNL     1       2.098   6.871  20.566  0.00  0.00    +0.000 N 
ATOM      5  C   UNL     1       2.874   6.470  19.516  0.00  0.00    +0.000 C 
ATOM      6  O   UNL     1       3.532   5.434  19.562  0.00  0.00    +0.000 OA
ATOM      7  C   UNL     1       2.867   7.388  18.380  0.00  0.00    +0.000 C 
ATOM      8  C   UNL     1       3.675   7.190  17.319  0.00  0.00    +0.000 C 
ATOM      9  C   UNL     1       2.015   8.599  18.388  0.00  0.00    +0.000 C 
ATOM     10  O   UNL     1       1.999   9.337  17.406  0.00  0.00    +0.000 OA
ATOM     11  H   UNL     1       2.160   6.314  21.408  0.00  0.00    +0.000 HD
ENDROOT
BRANCH   8  12
ATOM     12  N   UNL     1       4.557   6.169  17.061  0.00  0.00    +0.000 N 
ATOM     13  H   UNL     1       4.262   5.213  17.300  0.00  0.00    +0.000 HD
BRANCH  12  14
ATOM     14  N   UNL     1       5.762   6.459  16.430  0.00  0.00    +0.000 NA
ATOM     15  C   UNL     1       6.076   5.471  15.384  0.00  0.00    +0.000 C 
ATOM     16  C   UNL     1       6.757   4.190  15.886  0.00  0.00    +0.000 C 
ATOM     17  O   UNL     1       7.891   4.480  16.712  0.00  0.00    +0.000 OA
ATOM     18  C   UNL     1       7.485   5.261  17.841  0.00  0.00    +0.000 C 
ATOM     19  C   UNL     1       6.868   6.593  17.397  0.00  0.00    +0.000 C 
ENDBRANCH  12  14
ENDBRANCH   8  12
BRANCH   1  20
ATOM     20  C   UNL     1       0.541  10.096  19.713  0.00  0.00    +0.000 C 
BRANCH  20  21
ATOM     21  C   UNL     1       0.165  10.845  18.428  0.00  0.00    +0.000 C 
BRANCH  21  25
ATOM     22  C   UNL     1      -4.125  10.943  17.915  0.00  0.00    +0.000 A 
ATOM     23  C   UNL     1      -3.316  10.162  17.075  0.00  0.00    +0.000 A 
ATOM     24  C   UNL     1      -1.932  10.151  17.226  0.00  0.00    +0.000 A 
ATOM     25  C   UNL     1      -1.320  10.956  18.188  0.00  0.00    +0.000 A 
ATOM     26  C   UNL     1      -2.119  11.807  18.956  0.00  0.00    +0.000 A 
ATOM     27  C   UNL     1      -3.517  11.818  18.828  0.00  0.00    +0.000 A 
BRANCH  22  29
ATOM     28  C   UNL     1      -6.113  10.204  18.955  0.00  0.00    +0.000 C 
ATOM     29  O   UNL     1      -5.491  10.860  17.847  0.00  0.00    +0.000 OA
ENDBRANCH  22  29
BRANCH  27  30
ATOM     30  O   UNL     1      -4.089  12.712  19.692  0.00  0.00    +0.000 OA
ATOM     31  C   UNL     1      -3.451  12.992  20.925  0.00  0.00    +0.000 C 
ENDBRANCH  27  30
ENDBRANCH  21  25
ENDBRANCH  20  21
ENDBRANCH   1  20
TORSDOF 7
ENDMDL
MODEL 9
REMARK VINA RESULT:      -7.8      2.573      8.991
REMARK  Name = 
REMARK  9 active torsions:
REMARK  status: ('A' for Active; 'I' for Inactive)
REMARK    1  A    between atoms: C_1  and  O_2
REMARK    2  A    between atoms: O_2  and  C_3
REMARK    3  A    between atoms: C_6  and  C_7
REMARK    4  A    between atoms: C_7  and  C_8
REMARK    5  A    between atoms: C_8  and  N_9
REMARK    6  A    between atoms: C_16  and  N_17
REMARK    7  A    between atoms: N_17  and  N_18
REMARK    8  A    between atoms: C_27  and  O_28
REMARK    9  A    between atoms: O_28  and  C_29
REMARK                            x       y       z     vdW  Elec       q    Type
REMARK                         _______ _______ _______ _____ _____    ______ ____
ROOT
ATOM      1  N   UNL     1       2.718   5.458  19.281  0.00  0.00    +0.000 N 
ATOM      2  C   UNL     1       2.126   5.166  20.500  0.00  0.00    +0.000 C 
ATOM      3  O   UNL     1       1.982   4.028  20.945  0.00  0.00    +0.000 OA
ATOM      4  N   UNL     1       1.649   6.215  21.233  0.00  0.00    +0.000 N 
ATOM      5  C   UNL     1       1.501   7.512  20.828  0.00  0.00    +0.000 C 
ATOM      6  O   UNL     1       0.974   8.354  21.549  0.00  0.00    +0.000 OA
ATOM      7  C   UNL     1       1.989   7.777  19.476  0.00  0.00    +0.000 C 
ATOM      8  C   UNL     1       1.805   8.979  18.892  0.00  0.00    +0.000 C 
ATOM      9  C   UNL     1       2.648   6.713  18.685  0.00  0.00    +0.000 C 
ATOM     10  O   UNL     1       3.082   6.970  17.565  0.00  0.00    +0.000 OA
ATOM     11  H   UNL     1       1.230   5.973  22.120  0.00  0.00    +0.000 HD
ENDROOT
BRANCH   8  12
ATOM     12  N   UNL     1       1.227  10.120  19.390  0.00  0.00    +0.000 N 
ATOM     13  H   UNL     1       1.288  10.283  20.403  0.00  0.00    +0.000 HD
BRANCH  12  14
ATOM     14  N   UNL     1       0.657  11.031  18.506  0.00  0.00    +0.000 NA
ATOM     15  C   UNL     1       1.018  12.416  18.848  0.00  0.00    +0.000 C 
ATOM     16  C   UNL     1       0.144  13.065  19.930  0.00  0.00    +0.000 C 
ATOM     17  O   UNL     1      -1.251  12.928  19.638  0.00  0.00    +0.000 OA
ATOM     18  C   UNL     1      -1.595  11.543  19.536  0.00  0.00    +0.000 C 
ATOM     19  C   UNL     1      -0.805  10.860  18.413  0.00  0.00    +0.000 C 
ENDBRANCH  12  14
ENDBRANCH   8  12
BRANCH   1  20
ATOM     20  C   UNL     1       3.200   4.299  18.499  0.00  0.00    +0.000 C 
BRANCH  20  21
ATOM     21  C   UNL     1       4.690   3.954  18.626  0.00  0.00    +0.000 C 
BRANCH  21  25
ATOM     22  C   UNL     1       6.830   5.135  15.062  0.00  0.00    +0.000 A 
ATOM     23  C   UNL     1       6.040   3.976  15.078  0.00  0.00    +0.000 A 
ATOM     24  C   UNL     1       5.371   3.583  16.234  0.00  0.00    +0.000 A 
ATOM     25  C   UNL     1       5.513   4.313  17.415  0.00  0.00    +0.000 A 
ATOM     26  C   UNL     1       6.379   5.410  17.424  0.00  0.00    +0.000 A 
ATOM     27  C   UNL     1       7.048   5.829  16.263  0.00  0.00    +0.000 A 
BRANCH  22  29
ATOM     28  C   UNL     1       7.434   4.630  12.835  0.00  0.00    +0.000 C 
ATOM     29  O   UNL     1       7.387   5.588  13.895  0.00  0.00    +0.000 OA
ENDBRANCH  22  29
BRANCH  27  30
ATOM     30  O   UNL     1       7.822   6.931  16.505  0.00  0.00    +0.000 OA
ATOM     31  C   UNL     1       7.436   7.843  17.517  0.00  0.00    +0.000 C 
ENDBRANCH  27  30
ENDBRANCH  21  25
ENDBRANCH  20  21
ENDBRANCH   1  20
TORSDOF 7
ENDMDL
