MODEL 1
REMARK VINA RESULT:      -7.5      0.000      0.000
REMARK  Name = 
REMARK  7 active torsions:
REMARK  status: ('A' for Active; 'I' for Inactive)
REMARK    1  A    between atoms: C_1  and  O_2
REMARK    2  A    between atoms: O_2  and  C_3
REMARK    3  A    between atoms: C_7  and  C_8
REMARK    4  A    between atoms: C_20  and  C_21
REMARK    5  A    between atoms: C_21  and  C_22
REMARK    6  A    between atoms: C_21  and  C_23
REMARK    7  A    between atoms: C_21  and  C_24
REMARK                            x       y       z     vdW  Elec       q    Type
REMARK                         _______ _______ _______ _____ _____    ______ ____
ROOT
ATOM      1  C   UNL     1      -0.809  11.656  18.739  0.00  0.00    +0.000 A 
ATOM      2  C   UNL     1      -1.189  10.412  18.172  0.00  0.00    +0.000 A 
ATOM      3 BR   UNL     1      -2.945   9.906  17.623  0.00  0.00    +0.000 Br
ATOM      4  C   UNL     1      -0.229   9.440  17.875  0.00  0.00    +0.000 A 
ATOM      5  C   UNL     1       1.118   9.704  18.066  0.00  0.00    +0.000 A 
ATOM      6  C   UNL     1       1.508  10.936  18.590  0.00  0.00    +0.000 A 
ATOM      7  C   UNL     1       0.575  11.930  18.978  0.00  0.00    +0.000 A 
ENDROOT
BRANCH   5   8
ATOM      8  C   UNL     1       2.115   8.710  17.670  0.00  0.00    +0.000 C 
ATOM      9  C   UNL     1       2.538   7.719  18.469  0.00  0.00    +0.000 C 
ATOM     10  C   UNL     1       2.085   7.417  19.876  0.00  0.00    +0.000 C 
ATOM     11  O   UNL     1       1.259   7.998  20.554  0.00  0.00    +0.000 OA
ATOM     12  N   UNL     1       2.817   6.302  20.255  0.00  0.00    +0.000 N 
ATOM     13  C   UNL     1       3.672   5.887  19.240  0.00  0.00    +0.000 A 
ATOM     14  C   UNL     1       4.538   4.814  19.278  0.00  0.00    +0.000 A 
ATOM     15  C   UNL     1       5.317   4.580  18.144  0.00  0.00    +0.000 A 
ATOM     16  C   UNL     1       5.211   5.413  17.014  0.00  0.00    +0.000 A 
ATOM     17  C   UNL     1       4.322   6.494  16.996  0.00  0.00    +0.000 A 
ATOM     18  C   UNL     1       3.551   6.717  18.121  0.00  0.00    +0.000 A 
ATOM     19  H   UNL     1       2.715   5.869  21.160  0.00  0.00    +0.000 HD
ENDBRANCH   5   8
BRANCH   7  20
ATOM     20  C   UNL     1       1.134  13.256  19.578  0.00  0.00    +0.000 C 
ATOM     21  C   UNL     1       2.658  13.311  19.355  0.00  0.00    +0.000 C 
ATOM     22  C   UNL     1       0.496  14.538  18.992  0.00  0.00    +0.000 C 
ATOM     23  C   UNL     1       0.891  13.369  21.113  0.00  0.00    +0.000 C 
ENDBRANCH   7  20
BRANCH   1  25
ATOM     24  C   UNL     1      -2.548  12.623  20.094  0.00  0.00    +0.000 C 
ATOM     25  O   UNL     1      -1.666  12.698  18.981  0.00  0.00    +0.000 OA
ENDBRANCH   1  25
TORSDOF 3
ENDMDL
MODEL 2
REMARK VINA RESULT:      -7.4      2.690      7.443
REMARK  Name = 
REMARK  7 active torsions:
REMARK  status: ('A' for Active; 'I' for Inactive)
REMARK    1  A    between atoms: C_1  and  O_2
REMARK    2  A    between atoms: O_2  and  C_3
REMARK    3  A    between atoms: C_7  and  C_8
REMARK    4  A    between atoms: C_20  and  C_21
REMARK    5  A    between atoms: C_21  and  C_22
REMARK    6  A    between atoms: C_21  and  C_23
REMARK    7  A    between atoms: C_21  and  C_24
REMARK                            x       y       z     vdW  Elec       q    Type
REMARK                         _______ _______ _______ _____ _____    ______ ____
ROOT
ATOM      1  C   UNL     1       3.946   4.521  18.057  0.00  0.00    +0.000 A 
ATOM      2  C   UNL     1       2.535   4.647  18.132  0.00  0.00    +0.000 A 
ATOM      3 BR   UNL     1       1.283   3.233  18.406  0.00  0.00    +0.000 Br
ATOM      4  C   UNL     1       1.928   5.906  18.093  0.00  0.00    +0.000 A 
ATOM      5  C   UNL     1       2.700   7.055  18.053  0.00  0.00    +0.000 A 
ATOM      6  C   UNL     1       4.091   6.947  18.015  0.00  0.00    +0.000 A 
ATOM      7  C   UNL     1       4.757   5.697  17.977  0.00  0.00    +0.000 A 
ENDROOT
BRANCH   5   8
ATOM      8  C   UNL     1       2.054   8.366  18.100  0.00  0.00    +0.000 C 
ATOM      9  C   UNL     1       1.487   8.880  19.202  0.00  0.00    +0.000 C 
ATOM     10  C   UNL     1       1.414   8.253  20.573  0.00  0.00    +0.000 C 
ATOM     11  O   UNL     1       1.849   7.181  20.947  0.00  0.00    +0.000 OA
ATOM     12  N   UNL     1       0.736   9.180  21.352  0.00  0.00    +0.000 N 
ATOM     13  C   UNL     1       0.382  10.302  20.613  0.00  0.00    +0.000 A 
ATOM     14  C   UNL     1      -0.297  11.412  21.072  0.00  0.00    +0.000 A 
ATOM     15  C   UNL     1      -0.560  12.428  20.152  0.00  0.00    +0.000 A 
ATOM     16  C   UNL     1      -0.142  12.311  18.812  0.00  0.00    +0.000 A 
ATOM     17  C   UNL     1       0.549  11.177  18.369  0.00  0.00    +0.000 A 
ATOM     18  C   UNL     1       0.809  10.177  19.287  0.00  0.00    +0.000 A 
ATOM     19  H   UNL     1       0.545   9.027  22.330  0.00  0.00    +0.000 HD
ENDBRANCH   5   8
BRANCH   7  20
ATOM     20  C   UNL     1       6.315   5.706  17.907  0.00  0.00    +0.000 C 
ATOM     21  C   UNL     1       6.886   5.498  19.324  0.00  0.00    +0.000 C 
ATOM     22  C   UNL     1       6.917   4.638  16.964  0.00  0.00    +0.000 C 
ATOM     23  C   UNL     1       6.884   7.056  17.377  0.00  0.00    +0.000 C 
ENDBRANCH   7  20
BRANCH   1  25
ATOM     24  C   UNL     1       4.591   2.638  19.412  0.00  0.00    +0.000 C 
ATOM     25  O   UNL     1       4.631   3.340  18.175  0.00  0.00    +0.000 OA
ENDBRANCH   1  25
TORSDOF 3
ENDMDL
MODEL 3
REMARK VINA RESULT:      -7.2      1.612      3.067
REMARK  Name = 
REMARK  7 active torsions:
REMARK  status: ('A' for Active; 'I' for Inactive)
REMARK    1  A    between atoms: C_1  and  O_2
REMARK    2  A    between atoms: O_2  and  C_3
REMARK    3  A    between atoms: C_7  and  C_8
REMARK    4  A    between atoms: C_20  and  C_21
REMARK    5  A    between atoms: C_21  and  C_22
REMARK    6  A    between atoms: C_21  and  C_23
REMARK    7  A    between atoms: C_21  and  C_24
REMARK                            x       y       z     vdW  Elec       q    Type
REMARK                         _______ _______ _______ _____ _____    ______ ____
ROOT
ATOM      1  C   UNL     1      -1.057  11.629  18.852  0.00  0.00    +0.000 A 
ATOM      2  C   UNL     1       0.265  11.723  19.357  0.00  0.00    +0.000 A 
ATOM      3 BR   UNL     1       0.883  12.930  20.700  0.00  0.00    +0.000 Br
ATOM      4  C   UNL     1       1.253  10.825  18.942  0.00  0.00    +0.000 A 
ATOM      5  C   UNL     1       0.937   9.784  18.085  0.00  0.00    +0.000 A 
ATOM      6  C   UNL     1      -0.368   9.658  17.609  0.00  0.00    +0.000 A 
ATOM      7  C   UNL     1      -1.391  10.582  17.937  0.00  0.00    +0.000 A 
ENDROOT
BRANCH   5   8
ATOM      8  C   UNL     1       1.961   8.802  17.728  0.00  0.00    +0.000 C 
ATOM      9  C   UNL     1       2.374   7.823  18.547  0.00  0.00    +0.000 C 
ATOM     10  C   UNL     1       1.881   7.525  19.942  0.00  0.00    +0.000 C 
ATOM     11  O   UNL     1       1.026   8.099  20.589  0.00  0.00    +0.000 OA
ATOM     12  N   UNL     1       2.618   6.423  20.352  0.00  0.00    +0.000 N 
ATOM     13  C   UNL     1       3.509   6.014  19.367  0.00  0.00    +0.000 A 
ATOM     14  C   UNL     1       4.390   4.954  19.440  0.00  0.00    +0.000 A 
ATOM     15  C   UNL     1       5.206   4.723  18.332  0.00  0.00    +0.000 A 
ATOM     16  C   UNL     1       5.124   5.546  17.193  0.00  0.00    +0.000 A 
ATOM     17  C   UNL     1       4.220   6.614  17.139  0.00  0.00    +0.000 A 
ATOM     18  C   UNL     1       3.411   6.834  18.239  0.00  0.00    +0.000 A 
ATOM     19  H   UNL     1       2.494   5.996  21.257  0.00  0.00    +0.000 HD
ENDBRANCH   5   8
BRANCH   7  20
ATOM     20  C   UNL     1      -2.805  10.351  17.319  0.00  0.00    +0.000 C 
ATOM     21  C   UNL     1      -3.577   9.338  18.188  0.00  0.00    +0.000 C 
ATOM     22  C   UNL     1      -3.654  11.635  17.173  0.00  0.00    +0.000 C 
ATOM     23  C   UNL     1      -2.740   9.763  15.878  0.00  0.00    +0.000 C 
ENDBRANCH   7  20
BRANCH   1  25
ATOM     24  C   UNL     1      -2.539  12.323  20.619  0.00  0.00    +0.000 C 
ATOM     25  O   UNL     1      -2.107  12.407  19.266  0.00  0.00    +0.000 OA
ENDBRANCH   1  25
TORSDOF 3
ENDMDL
MODEL 4
REMARK VINA RESULT:      -7.2      2.924      7.656
REMARK  Name = 
REMARK  7 active torsions:
REMARK  status: ('A' for Active; 'I' for Inactive)
REMARK    1  A    between atoms: C_1  and  O_2
REMARK    2  A    between atoms: O_2  and  C_3
REMARK    3  A    between atoms: C_7  and  C_8
REMARK    4  A    between atoms: C_20  and  C_21
REMARK    5  A    between atoms: C_21  and  C_22
REMARK    6  A    between atoms: C_21  and  C_23
REMARK    7  A    between atoms: C_21  and  C_24
REMARK                            x       y       z     vdW  Elec       q    Type
REMARK                         _______ _______ _______ _____ _____    ______ ____
ROOT
ATOM      1  C   UNL     1       3.340   4.105  19.280  0.00  0.00    +0.000 A 
ATOM      2  C   UNL     1       2.272   4.155  20.212  0.00  0.00    +0.000 A 
ATOM      3 BR   UNL     1       1.546   2.683  21.185  0.00  0.00    +0.000 Br
ATOM      4  C   UNL     1       1.696   5.377  20.572  0.00  0.00    +0.000 A 
ATOM      5  C   UNL     1       2.206   6.565  20.076  0.00  0.00    +0.000 A 
ATOM      6  C   UNL     1       3.280   6.533  19.185  0.00  0.00    +0.000 A 
ATOM      7  C   UNL     1       3.855   5.321  18.729  0.00  0.00    +0.000 A 
ENDROOT
BRANCH   5   8
ATOM      8  C   UNL     1       1.649   7.840  20.528  0.00  0.00    +0.000 C 
ATOM      9  C   UNL     1       1.330   8.849  19.704  0.00  0.00    +0.000 C 
ATOM     10  C   UNL     1       1.453   8.880  18.200  0.00  0.00    +0.000 C 
ATOM     11  O   UNL     1       1.856   8.013  17.449  0.00  0.00    +0.000 OA
ATOM     12  N   UNL     1       0.994  10.136  17.832  0.00  0.00    +0.000 N 
ATOM     13  C   UNL     1       0.605  10.880  18.939  0.00  0.00    +0.000 A 
ATOM     14  C   UNL     1       0.101  12.164  18.935  0.00  0.00    +0.000 A 
ATOM     15  C   UNL     1      -0.218  12.730  20.170  0.00  0.00    +0.000 A 
ATOM     16  C   UNL     1      -0.028  12.008  21.364  0.00  0.00    +0.000 A 
ATOM     17  C   UNL     1       0.481  10.704  21.344  0.00  0.00    +0.000 A 
ATOM     18  C   UNL     1       0.792  10.149  20.117  0.00  0.00    +0.000 A 
ATOM     19  H   UNL     1       0.957  10.437  16.870  0.00  0.00    +0.000 HD
ENDBRANCH   5   8
BRANCH   7  20
ATOM     20  C   UNL     1       5.033   5.413  17.712  0.00  0.00    +0.000 C 
ATOM     21  C   UNL     1       6.336   4.967  18.404  0.00  0.00    +0.000 C 
ATOM     22  C   UNL     1       4.835   4.572  16.429  0.00  0.00    +0.000 C 
ATOM     23  C   UNL     1       5.264   6.864  17.192  0.00  0.00    +0.000 C 
ENDBRANCH   7  20
BRANCH   1  25
ATOM     24  C   UNL     1       3.329   1.923  18.262  0.00  0.00    +0.000 C 
ATOM     25  O   UNL     1       4.022   2.967  18.935  0.00  0.00    +0.000 OA
ENDBRANCH   1  25
TORSDOF 3
ENDMDL
MODEL 5
REMARK VINA RESULT:      -7.0      3.085      7.833
REMARK  Name = 
REMARK  7 active torsions:
REMARK  status: ('A' for Active; 'I' for Inactive)
REMARK    1  A    between atoms: C_1  and  O_2
REMARK    2  A    between atoms: O_2  and  C_3
REMARK    3  A    between atoms: C_7  and  C_8
REMARK    4  A    between atoms: C_20  and  C_21
REMARK    5  A    between atoms: C_21  and  C_22
REMARK    6  A    between atoms: C_21  and  C_23
REMARK    7  A    between atoms: C_21  and  C_24
REMARK                            x       y       z     vdW  Elec       q    Type
REMARK                         _______ _______ _______ _____ _____    ______ ____
ROOT
ATOM      1  C   UNL     1       4.427   5.189  17.987  0.00  0.00    +0.000 A 
ATOM      2  C   UNL     1       4.826   6.512  17.667  0.00  0.00    +0.000 A 
ATOM      3 BR   UNL     1       6.543   7.057  17.034  0.00  0.00    +0.000 Br
ATOM      4  C   UNL     1       3.908   7.565  17.713  0.00  0.00    +0.000 A 
ATOM      5  C   UNL     1       2.576   7.322  18.003  0.00  0.00    +0.000 A 
ATOM      6  C   UNL     1       2.162   6.020  18.285  0.00  0.00    +0.000 A 
ATOM      7  C   UNL     1       3.062   4.926  18.326  0.00  0.00    +0.000 A 
ENDROOT
BRANCH   5   8
ATOM      8  C   UNL     1       1.612   8.420  17.962  0.00  0.00    +0.000 C 
ATOM      9  C   UNL     1       1.073   8.982  19.056  0.00  0.00    +0.000 C 
ATOM     10  C   UNL     1       1.347   8.631  20.497  0.00  0.00    +0.000 C 
ATOM     11  O   UNL     1       2.098   7.787  20.949  0.00  0.00    +0.000 OA
ATOM     12  N   UNL     1       0.550   9.496  21.232  0.00  0.00    +0.000 N 
ATOM     13  C   UNL     1      -0.186  10.335  20.404  0.00  0.00    +0.000 A 
ATOM     14  C   UNL     1      -1.074  11.313  20.800  0.00  0.00    +0.000 A 
ATOM     15  C   UNL     1      -1.716  12.040  19.796  0.00  0.00    +0.000 A 
ATOM     16  C   UNL     1      -1.457  11.774  18.438  0.00  0.00    +0.000 A 
ATOM     17  C   UNL     1      -0.548  10.779  18.059  0.00  0.00    +0.000 A 
ATOM     18  C   UNL     1       0.087  10.067  19.059  0.00  0.00    +0.000 A 
ATOM     19  H   UNL     1       0.533   9.491  22.240  0.00  0.00    +0.000 HD
ENDBRANCH   5   8
BRANCH   7  20
ATOM     20  C   UNL     1       2.484   3.522  18.682  0.00  0.00    +0.000 C 
ATOM     21  C   UNL     1       1.071   3.692  19.274  0.00  0.00    +0.000 C 
ATOM     22  C   UNL     1       2.411   2.542  17.487  0.00  0.00    +0.000 C 
ATOM     23  C   UNL     1       3.341   2.773  19.746  0.00  0.00    +0.000 C 
ENDBRANCH   7  20
BRANCH   1  25
ATOM     24  C   UNL     1       5.675   3.668  16.600  0.00  0.00    +0.000 C 
ATOM     25  O   UNL     1       5.232   4.085  17.886  0.00  0.00    +0.000 OA
ENDBRANCH   1  25
TORSDOF 3
ENDMDL
MODEL 6
REMARK VINA RESULT:      -6.8      3.021      7.736
REMARK  Name = 
REMARK  7 active torsions:
REMARK  status: ('A' for Active; 'I' for Inactive)
REMARK    1  A    between atoms: C_1  and  O_2
REMARK    2  A    between atoms: O_2  and  C_3
REMARK    3  A    between atoms: C_7  and  C_8
REMARK    4  A    between atoms: C_20  and  C_21
REMARK    5  A    between atoms: C_21  and  C_22
REMARK    6  A    between atoms: C_21  and  C_23
REMARK    7  A    between atoms: C_21  and  C_24
REMARK                            x       y       z     vdW  Elec       q    Type
REMARK                         _______ _______ _______ _____ _____    ______ ____
ROOT
ATOM      1  C   UNL     1       4.093   5.256  18.196  0.00  0.00    +0.000 A 
ATOM      2  C   UNL     1       4.512   6.515  17.693  0.00  0.00    +0.000 A 
ATOM      3 BR   UNL     1       6.177   6.899  16.844  0.00  0.00    +0.000 Br
ATOM      4  C   UNL     1       3.647   7.613  17.707  0.00  0.00    +0.000 A 
ATOM      5  C   UNL     1       2.341   7.470  18.147  0.00  0.00    +0.000 A 
ATOM      6  C   UNL     1       1.904   6.229  18.611  0.00  0.00    +0.000 A 
ATOM      7  C   UNL     1       2.759   5.101  18.689  0.00  0.00    +0.000 A 
ENDROOT
BRANCH   5   8
ATOM      8  C   UNL     1       1.423   8.607  18.075  0.00  0.00    +0.000 C 
ATOM      9  C   UNL     1       0.900   9.214  19.151  0.00  0.00    +0.000 C 
ATOM     10  C   UNL     1       1.150   8.884  20.602  0.00  0.00    +0.000 C 
ATOM     11  O   UNL     1       1.862   8.020  21.078  0.00  0.00    +0.000 OA
ATOM     12  N   UNL     1       0.384   9.797  21.312  0.00  0.00    +0.000 N 
ATOM     13  C   UNL     1      -0.311  10.647  20.460  0.00  0.00    +0.000 A 
ATOM     14  C   UNL     1      -1.161  11.669  20.827  0.00  0.00    +0.000 A 
ATOM     15  C   UNL     1      -1.765  12.399  19.803  0.00  0.00    +0.000 A 
ATOM     16  C   UNL     1      -1.508  12.093  18.453  0.00  0.00    +0.000 A 
ATOM     17  C   UNL     1      -0.638  11.053  18.102  0.00  0.00    +0.000 A 
ATOM     18  C   UNL     1      -0.040  10.338  19.123  0.00  0.00    +0.000 A 
ATOM     19  H   UNL     1       0.359   9.815  22.320  0.00  0.00    +0.000 HD
ENDBRANCH   5   8
BRANCH   7  20
ATOM     20  C   UNL     1       2.162   3.775  19.252  0.00  0.00    +0.000 C 
ATOM     21  C   UNL     1       3.224   3.071  20.120  0.00  0.00    +0.000 C 
ATOM     22  C   UNL     1       0.874   3.960  20.089  0.00  0.00    +0.000 C 
ATOM     23  C   UNL     1       1.753   2.777  18.127  0.00  0.00    +0.000 C 
ENDBRANCH   7  20
BRANCH   1  25
ATOM     24  C   UNL     1       5.078   3.496  16.881  0.00  0.00    +0.000 C 
ATOM     25  O   UNL     1       4.838   4.107  18.143  0.00  0.00    +0.000 OA
ENDBRANCH   1  25
TORSDOF 3
ENDMDL
MODEL 7
REMARK VINA RESULT:      -6.8      1.722      2.939
REMARK  Name = 
REMARK  7 active torsions:
REMARK  status: ('A' for Active; 'I' for Inactive)
REMARK    1  A    between atoms: C_1  and  O_2
REMARK    2  A    between atoms: O_2  and  C_3
REMARK    3  A    between atoms: C_7  and  C_8
REMARK    4  A    between atoms: C_20  and  C_21
REMARK    5  A    between atoms: C_21  and  C_22
REMARK    6  A    between atoms: C_21  and  C_23
REMARK    7  A    between atoms: C_21  and  C_24
REMARK                            x       y       z     vdW  Elec       q    Type
REMARK                         _______ _______ _______ _____ _____    ______ ____
ROOT
ATOM      1  C   UNL     1      -0.277  12.124  18.650  0.00  0.00    +0.000 A 
ATOM      2  C   UNL     1       1.117  12.076  18.905  0.00  0.00    +0.000 A 
ATOM      3 BR   UNL     1       2.155  13.408  19.795  0.00  0.00    +0.000 Br
ATOM      4  C   UNL     1       1.863  10.939  18.579  0.00  0.00    +0.000 A 
ATOM      5  C   UNL     1       1.238   9.814  18.067  0.00  0.00    +0.000 A 
ATOM      6  C   UNL     1      -0.139   9.835  17.844  0.00  0.00    +0.000 A 
ATOM      7  C   UNL     1      -0.932  10.984  18.086  0.00  0.00    +0.000 A 
ENDROOT
BRANCH   5   8
ATOM      8  C   UNL     1       2.018   8.603  17.812  0.00  0.00    +0.000 C 
ATOM      9  C   UNL     1       2.250   7.657  18.734  0.00  0.00    +0.000 C 
ATOM     10  C   UNL     1       1.762   7.628  20.162  0.00  0.00    +0.000 C 
ATOM     11  O   UNL     1       1.073   8.439  20.750  0.00  0.00    +0.000 OA
ATOM     12  N   UNL     1       2.267   6.447  20.686  0.00  0.00    +0.000 N 
ATOM     13  C   UNL     1       3.013   5.750  19.743  0.00  0.00    +0.000 A 
ATOM     14  C   UNL     1       3.654   4.543  19.926  0.00  0.00    +0.000 A 
ATOM     15  C   UNL     1       4.359   4.021  18.840  0.00  0.00    +0.000 A 
ATOM     16  C   UNL     1       4.405   4.711  17.614  0.00  0.00    +0.000 A 
ATOM     17  C   UNL     1       3.743   5.934  17.449  0.00  0.00    +0.000 A 
ATOM     18  C   UNL     1       3.044   6.442  18.527  0.00  0.00    +0.000 A 
ATOM     19  H   UNL     1       2.093   6.160  21.637  0.00  0.00    +0.000 HD
ENDBRANCH   5   8
BRANCH   7  20
ATOM     20  C   UNL     1      -2.457  10.894  17.771  0.00  0.00    +0.000 C 
ATOM     21  C   UNL     1      -2.720  11.485  16.371  0.00  0.00    +0.000 C 
ATOM     22  C   UNL     1      -3.035   9.461  17.826  0.00  0.00    +0.000 C 
ATOM     23  C   UNL     1      -3.326  11.702  18.781  0.00  0.00    +0.000 C 
ENDBRANCH   7  20
BRANCH   1  25
ATOM     24  C   UNL     1      -1.177  13.531  20.384  0.00  0.00    +0.000 C 
ATOM     25  O   UNL     1      -1.102  13.157  19.014  0.00  0.00    +0.000 OA
ENDBRANCH   1  25
TORSDOF 3
ENDMDL
MODEL 8
REMARK VINA RESULT:      -6.7      3.207      7.678
REMARK  Name = 
REMARK  7 active torsions:
REMARK  status: ('A' for Active; 'I' for Inactive)
REMARK    1  A    between atoms: C_1  and  O_2
REMARK    2  A    between atoms: O_2  and  C_3
REMARK    3  A    between atoms: C_7  and  C_8
REMARK    4  A    between atoms: C_20  and  C_21
REMARK    5  A    between atoms: C_21  and  C_22
REMARK    6  A    between atoms: C_21  and  C_23
REMARK    7  A    between atoms: C_21  and  C_24
REMARK                            x       y       z     vdW  Elec       q    Type
REMARK                         _______ _______ _______ _____ _____    ______ ____
ROOT
ATOM      1  C   UNL     1       4.732   4.517  17.469  0.00  0.00    +0.000 A 
ATOM      2  C   UNL     1       3.399   4.174  17.812  0.00  0.00    +0.000 A 
ATOM      3 BR   UNL     1       2.538   2.503  17.485  0.00  0.00    +0.000 Br
ATOM      4  C   UNL     1       2.599   5.061  18.538  0.00  0.00    +0.000 A 
ATOM      5  C   UNL     1       3.118   6.262  18.994  0.00  0.00    +0.000 A 
ATOM      6  C   UNL     1       4.439   6.596  18.693  0.00  0.00    +0.000 A 
ATOM      7  C   UNL     1       5.273   5.770  17.900  0.00  0.00    +0.000 A 
ENDROOT
BRANCH   5   8
ATOM      8  C   UNL     1       2.295   7.140  19.824  0.00  0.00    +0.000 C 
ATOM      9  C   UNL     1       1.770   8.298  19.394  0.00  0.00    +0.000 C 
ATOM     10  C   UNL     1       1.893   8.906  18.019  0.00  0.00    +0.000 C 
ATOM     11  O   UNL     1       2.479   8.477  17.043  0.00  0.00    +0.000 OA
ATOM     12  N   UNL     1       1.175  10.091  18.089  0.00  0.00    +0.000 N 
ATOM     13  C   UNL     1       0.628  10.279  19.352  0.00  0.00    +0.000 A 
ATOM     14  C   UNL     1      -0.142  11.346  19.767  0.00  0.00    +0.000 A 
ATOM     15  C   UNL     1      -0.584  11.340  21.091  0.00  0.00    +0.000 A 
ATOM     16  C   UNL     1      -0.249  10.281  21.956  0.00  0.00    +0.000 A 
ATOM     17  C   UNL     1       0.531   9.207  21.513  0.00  0.00    +0.000 A 
ATOM     18  C   UNL     1       0.961   9.218  20.199  0.00  0.00    +0.000 A 
ATOM     19  H   UNL     1       1.079  10.712  17.300  0.00  0.00    +0.000 HD
ENDBRANCH   5   8
BRANCH   7  20
ATOM     20  C   UNL     1       6.723   6.265  17.609  0.00  0.00    +0.000 C 
ATOM     21  C   UNL     1       7.674   5.702  18.683  0.00  0.00    +0.000 C 
ATOM     22  C   UNL     1       7.260   5.878  16.212  0.00  0.00    +0.000 C 
ATOM     23  C   UNL     1       6.846   7.818  17.655  0.00  0.00    +0.000 C 
ENDBRANCH   7  20
BRANCH   1  25
ATOM     24  C   UNL     1       5.499   3.481  15.435  0.00  0.00    +0.000 C 
ATOM     25  O   UNL     1       5.616   3.679  16.839  0.00  0.00    +0.000 OA
ENDBRANCH   1  25
TORSDOF 3
ENDMDL
MODEL 9
REMARK VINA RESULT:      -6.5      3.214      7.805
REMARK  Name = 
REMARK  7 active torsions:
REMARK  status: ('A' for Active; 'I' for Inactive)
REMARK    1  A    between atoms: C_1  and  O_2
REMARK    2  A    between atoms: O_2  and  C_3
REMARK    3  A    between atoms: C_7  and  C_8
REMARK    4  A    between atoms: C_20  and  C_21
REMARK    5  A    between atoms: C_21  and  C_22
REMARK    6  A    between atoms: C_21  and  C_23
REMARK    7  A    between atoms: C_21  and  C_24
REMARK                            x       y       z     vdW  Elec       q    Type
REMARK                         _______ _______ _______ _____ _____    ______ ____
ROOT
ATOM      1  C   UNL     1       4.790   4.340  17.501  0.00  0.00    +0.000 A 
ATOM      2  C   UNL     1       3.390   4.147  17.632  0.00  0.00    +0.000 A 
ATOM      3 BR   UNL     1       2.367   2.722  16.882  0.00  0.00    +0.000 Br
ATOM      4  C   UNL     1       2.627   4.992  18.443  0.00  0.00    +0.000 A 
ATOM      5  C   UNL     1       3.237   5.988  19.188  0.00  0.00    +0.000 A 
ATOM      6  C   UNL     1       4.618   6.166  19.095  0.00  0.00    +0.000 A 
ATOM      7  C   UNL     1       5.430   5.389  18.233  0.00  0.00    +0.000 A 
ENDROOT
BRANCH   5   8
ATOM      8  C   UNL     1       2.437   6.807  20.098  0.00  0.00    +0.000 C 
ATOM      9  C   UNL     1       1.883   7.980  19.754  0.00  0.00    +0.000 C 
ATOM     10  C   UNL     1       1.945   8.666  18.412  0.00  0.00    +0.000 C 
ATOM     11  O   UNL     1       2.497   8.300  17.392  0.00  0.00    +0.000 OA
ATOM     12  N   UNL     1       1.217   9.835  18.576  0.00  0.00    +0.000 N 
ATOM     13  C   UNL     1       0.717   9.945  19.868  0.00  0.00    +0.000 A 
ATOM     14  C   UNL     1      -0.048  10.977  20.372  0.00  0.00    +0.000 A 
ATOM     15  C   UNL     1      -0.439  10.890  21.708  0.00  0.00    +0.000 A 
ATOM     16  C   UNL     1      -0.059   9.789  22.499  0.00  0.00    +0.000 A 
ATOM     17  C   UNL     1       0.716   8.752  21.966  0.00  0.00    +0.000 A 
ATOM     18  C   UNL     1       1.095   8.842  20.640  0.00  0.00    +0.000 A 
ATOM     19  H   UNL     1       1.084  10.499  17.828  0.00  0.00    +0.000 HD
ENDBRANCH   5   8
BRANCH   7  20
ATOM     20  C   UNL     1       6.957   5.701  18.197  0.00  0.00    +0.000 C 
ATOM     21  C   UNL     1       7.197   6.953  17.328  0.00  0.00    +0.000 C 
ATOM     22  C   UNL     1       7.595   5.927  19.587  0.00  0.00    +0.000 C 
ATOM     23  C   UNL     1       7.791   4.543  17.571  0.00  0.00    +0.000 C 
ENDBRANCH   7  20
BRANCH   1  25
ATOM     24  C   UNL     1       5.695   3.632  15.385  0.00  0.00    +0.000 C 
ATOM     25  O   UNL     1       5.629   3.513  16.801  0.00  0.00    +0.000 OA
ENDBRANCH   1  25
TORSDOF 3
ENDMDL
