MODEL 1
REMARK VINA RESULT:      -9.6      0.000      0.000
REMARK  Name = 
REMARK  5 active torsions:
REMARK  status: ('A' for Active; 'I' for Inactive)
REMARK    1  A    between atoms: C_8  and  O_9
REMARK    2  A    between atoms: O_9  and  C_10
REMARK    3  A    between atoms: C_13  and  C_14
REMARK    4  A    between atoms: C_14  and  N_15
REMARK    5  A    between atoms: C_19  and  C_20
REMARK                            x       y       z     vdW  Elec       q    Type
REMARK                         _______ _______ _______ _____ _____    ______ ____
ROOT
ATOM      1  C   UNL     1       1.100   9.621  19.145  0.00  0.00    +0.000 A 
ATOM      2  C   UNL     1       1.816   8.928  18.162  0.00  0.00    +0.000 A 
ATOM      3  C   UNL     1       2.323   7.646  18.427  0.00  0.00    +0.000 A 
ATOM      4  C   UNL     1       2.144   7.051  19.686  0.00  0.00    +0.000 A 
ATOM      5  C   UNL     1       1.489   7.790  20.680  0.00  0.00    +0.000 A 
ATOM      6  C   UNL     1       0.973   9.058  20.414  0.00  0.00    +0.000 A 
ENDROOT
BRANCH   1   7
ATOM      7  O   UNL     1       0.584  10.854  18.798  0.00  0.00    +0.000 OA
BRANCH   7  15
ATOM      8  O   UNL     1      -5.774  11.147  17.621  0.00  0.00    +0.000 OA
ATOM      9  C   UNL     1      -4.901  11.558  18.351  0.00  0.00    +0.000 A 
ATOM     10  N   UNL     1      -4.999  12.440  19.396  0.00  0.00    +0.000 N 
ATOM     11  O   UNL     1      -3.712  12.784  19.917  0.00  0.00    +0.000 OA
ATOM     12  C   UNL     1      -2.850  11.982  19.219  0.00  0.00    +0.000 A 
ATOM     13  C   UNL     1      -1.489  11.875  19.392  0.00  0.00    +0.000 A 
ATOM     14  F   UNL     1      -0.863  12.612  20.319  0.00  0.00    +0.000 F 
ATOM     15  C   UNL     1      -0.778  10.964  18.597  0.00  0.00    +0.000 A 
ATOM     16  C   UNL     1      -1.449  10.222  17.595  0.00  0.00    +0.000 A 
ATOM     17  C   UNL     1      -2.831  10.334  17.431  0.00  0.00    +0.000 A 
ATOM     18  C   UNL     1      -3.495  11.215  18.264  0.00  0.00    +0.000 A 
ATOM     19  H   UNL     1      -5.794  13.031  19.581  0.00  0.00    +0.000 HD
ENDBRANCH   7  15
ENDBRANCH   1   7
BRANCH   4  20
ATOM     20  C   UNL     1       2.561   5.622  19.976  0.00  0.00    +0.000 C 
BRANCH  20  21
ATOM     21  N   UNL     1       2.981   4.765  18.864  0.00  0.00    +0.000 NA
ATOM     22  C   UNL     1       2.021   3.739  18.462  0.00  0.00    +0.000 C 
ATOM     23  C   UNL     1       2.495   2.463  19.121  0.00  0.00    +0.000 C 
ATOM     24  C   UNL     1       4.004   2.612  19.163  0.00  0.00    +0.000 C 
ATOM     25  C   UNL     1       4.292   4.120  19.029  0.00  0.00    +0.000 C 
BRANCH  25  26
ATOM     26  C   UNL     1       5.248   4.344  17.858  0.00  0.00    +0.000 A 
ATOM     27  C   UNL     1       6.601   4.622  18.138  0.00  0.00    +0.000 A 
ATOM     28  C   UNL     1       7.552   4.674  17.118  0.00  0.00    +0.000 A 
ATOM     29  C   UNL     1       7.163   4.475  15.796  0.00  0.00    +0.000 A 
ATOM     30  C   UNL     1       5.820   4.256  15.499  0.00  0.00    +0.000 A 
ATOM     31 CL   UNL     1       5.341   4.018  13.862  0.00  0.00    +0.000 Cl
ATOM     32  C   UNL     1       4.865   4.197  16.516  0.00  0.00    +0.000 A 
ENDBRANCH  25  26
ENDBRANCH  20  21
ENDBRANCH   4  20
TORSDOF 5
ENDMDL
MODEL 2
REMARK VINA RESULT:      -9.5      1.058      1.494
REMARK  Name = 
REMARK  5 active torsions:
REMARK  status: ('A' for Active; 'I' for Inactive)
REMARK    1  A    between atoms: C_8  and  O_9
REMARK    2  A    between atoms: O_9  and  C_10
REMARK    3  A    between atoms: C_13  and  C_14
REMARK    4  A    between atoms: C_14  and  N_15
REMARK    5  A    between atoms: C_19  and  C_20
REMARK                            x       y       z     vdW  Elec       q    Type
REMARK                         _______ _______ _______ _____ _____    ______ ____
ROOT
ATOM      1  C   UNL     1       1.143   9.814  19.088  0.00  0.00    +0.000 A 
ATOM      2  C   UNL     1       1.856   9.086  18.129  0.00  0.00    +0.000 A 
ATOM      3  C   UNL     1       2.305   7.788  18.414  0.00  0.00    +0.000 A 
ATOM      4  C   UNL     1       2.070   7.209  19.672  0.00  0.00    +0.000 A 
ATOM      5  C   UNL     1       1.417   7.980  20.644  0.00  0.00    +0.000 A 
ATOM      6  C   UNL     1       0.959   9.266  20.357  0.00  0.00    +0.000 A 
ENDROOT
BRANCH   1   7
ATOM      7  O   UNL     1       0.685  11.064  18.720  0.00  0.00    +0.000 OA
BRANCH   7  15
ATOM      8  O   UNL     1      -5.572  12.520  19.512  0.00  0.00    +0.000 OA
ATOM      9  C   UNL     1      -4.799  11.896  18.820  0.00  0.00    +0.000 A 
ATOM     10  N   UNL     1      -5.067  11.092  17.743  0.00  0.00    +0.000 N 
ATOM     11  O   UNL     1      -3.893  10.414  17.287  0.00  0.00    +0.000 OA
ATOM     12  C   UNL     1      -2.892  10.936  18.061  0.00  0.00    +0.000 A 
ATOM     13  C   UNL     1      -1.545  10.666  17.972  0.00  0.00    +0.000 A 
ATOM     14  F   UNL     1      -1.086   9.799  17.059  0.00  0.00    +0.000 F 
ATOM     15  C   UNL     1      -0.665  11.331  18.837  0.00  0.00    +0.000 A 
ATOM     16  C   UNL     1      -1.171  12.214  19.822  0.00  0.00    +0.000 A 
ATOM     17  C   UNL     1      -2.538  12.485  19.902  0.00  0.00    +0.000 A 
ATOM     18  C   UNL     1      -3.363  11.836  19.002  0.00  0.00    +0.000 A 
ATOM     19  H   UNL     1      -5.980  10.748  17.492  0.00  0.00    +0.000 HD
ENDBRANCH   7  15
ENDBRANCH   1   7
BRANCH   4  20
ATOM     20  C   UNL     1       2.422   5.767  19.981  0.00  0.00    +0.000 C 
BRANCH  20  21
ATOM     21  N   UNL     1       2.868   4.894  18.892  0.00  0.00    +0.000 NA
ATOM     22  C   UNL     1       1.903   3.887  18.454  0.00  0.00    +0.000 C 
ATOM     23  C   UNL     1       2.322   2.605  19.139  0.00  0.00    +0.000 C 
ATOM     24  C   UNL     1       3.831   2.722  19.242  0.00  0.00    +0.000 C 
ATOM     25  C   UNL     1       4.157   4.223  19.114  0.00  0.00    +0.000 C 
BRANCH  25  26
ATOM     26  C   UNL     1       5.165   4.419  17.982  0.00  0.00    +0.000 A 
ATOM     27  C   UNL     1       6.513   4.660  18.317  0.00  0.00    +0.000 A 
ATOM     28  C   UNL     1       7.506   4.685  17.335  0.00  0.00    +0.000 A 
ATOM     29  C   UNL     1       7.164   4.497  15.999  0.00  0.00    +0.000 A 
ATOM     30  C   UNL     1       5.828   4.316  15.647  0.00  0.00    +0.000 A 
ATOM     31 CL   UNL     1       5.410   4.091  13.992  0.00  0.00    +0.000 Cl
ATOM     32  C   UNL     1       4.833   4.284  16.625  0.00  0.00    +0.000 A 
ENDBRANCH  25  26
ENDBRANCH  20  21
ENDBRANCH   4  20
TORSDOF 5
ENDMDL
MODEL 3
REMARK VINA RESULT:      -9.4      1.156      1.372
REMARK  Name = 
REMARK  5 active torsions:
REMARK  status: ('A' for Active; 'I' for Inactive)
REMARK    1  A    between atoms: C_8  and  O_9
REMARK    2  A    between atoms: O_9  and  C_10
REMARK    3  A    between atoms: C_13  and  C_14
REMARK    4  A    between atoms: C_14  and  N_15
REMARK    5  A    between atoms: C_19  and  C_20
REMARK                            x       y       z     vdW  Elec       q    Type
REMARK                         _______ _______ _______ _____ _____    ______ ____
ROOT
ATOM      1  C   UNL     1       1.093   9.486  19.563  0.00  0.00    +0.000 A 
ATOM      2  C   UNL     1       1.873   8.839  18.597  0.00  0.00    +0.000 A 
ATOM      3  C   UNL     1       2.303   7.519  18.801  0.00  0.00    +0.000 A 
ATOM      4  C   UNL     1       1.981   6.836  19.985  0.00  0.00    +0.000 A 
ATOM      5  C   UNL     1       1.261   7.524  20.972  0.00  0.00    +0.000 A 
ATOM      6  C   UNL     1       0.822   8.831  20.764  0.00  0.00    +0.000 A 
ENDROOT
BRANCH   1   7
ATOM      7  O   UNL     1       0.660  10.764  19.273  0.00  0.00    +0.000 OA
BRANCH   7  15
ATOM      8  O   UNL     1      -5.478  11.391  17.316  0.00  0.00    +0.000 OA
ATOM      9  C   UNL     1      -4.686  11.745  18.160  0.00  0.00    +0.000 A 
ATOM     10  N   UNL     1      -4.874  12.612  19.205  0.00  0.00    +0.000 N 
ATOM     11  O   UNL     1      -3.648  12.883  19.892  0.00  0.00    +0.000 OA
ATOM     12  C   UNL     1      -2.744  12.052  19.288  0.00  0.00    +0.000 A 
ATOM     13  C   UNL     1      -1.422  11.874  19.626  0.00  0.00    +0.000 A 
ATOM     14  F   UNL     1      -0.884  12.563  20.643  0.00  0.00    +0.000 F 
ATOM     15  C   UNL     1      -0.659  10.945  18.905  0.00  0.00    +0.000 A 
ATOM     16  C   UNL     1      -1.232  10.255  17.810  0.00  0.00    +0.000 A 
ATOM     17  C   UNL     1      -2.575  10.438  17.476  0.00  0.00    +0.000 A 
ATOM     18  C   UNL     1      -3.298  11.335  18.241  0.00  0.00    +0.000 A 
ATOM     19  H   UNL     1      -5.658  13.237  19.304  0.00  0.00    +0.000 HD
ENDBRANCH   7  15
ENDBRANCH   1   7
BRANCH   4  20
ATOM     20  C   UNL     1       2.313   5.371  20.194  0.00  0.00    +0.000 C 
BRANCH  20  21
ATOM     21  N   UNL     1       2.955   4.625  19.107  0.00  0.00    +0.000 NA
ATOM     22  C   UNL     1       2.223   3.453  18.629  0.00  0.00    +0.000 C 
ATOM     23  C   UNL     1       2.873   2.269  19.310  0.00  0.00    +0.000 C 
ATOM     24  C   UNL     1       4.324   2.684  19.459  0.00  0.00    +0.000 C 
ATOM     25  C   UNL     1       4.345   4.222  19.359  0.00  0.00    +0.000 C 
BRANCH  25  26
ATOM     26  C   UNL     1       5.324   4.637  18.260  0.00  0.00    +0.000 A 
ATOM     27  C   UNL     1       5.349   3.889  17.066  0.00  0.00    +0.000 A 
ATOM     28  C   UNL     1       6.098   4.313  15.966  0.00  0.00    +0.000 A 
ATOM     29  C   UNL     1       6.858   5.477  16.052  0.00  0.00    +0.000 A 
ATOM     30  C   UNL     1       6.887   6.194  17.246  0.00  0.00    +0.000 A 
ATOM     31 CL   UNL     1       7.834   7.629  17.350  0.00  0.00    +0.000 Cl
ATOM     32  C   UNL     1       6.135   5.778  18.346  0.00  0.00    +0.000 A 
ENDBRANCH  25  26
ENDBRANCH  20  21
ENDBRANCH   4  20
TORSDOF 5
ENDMDL
MODEL 4
REMARK VINA RESULT:      -9.3      0.782      1.182
REMARK  Name = 
REMARK  5 active torsions:
REMARK  status: ('A' for Active; 'I' for Inactive)
REMARK    1  A    between atoms: C_8  and  O_9
REMARK    2  A    between atoms: O_9  and  C_10
REMARK    3  A    between atoms: C_13  and  C_14
REMARK    4  A    between atoms: C_14  and  N_15
REMARK    5  A    between atoms: C_19  and  C_20
REMARK                            x       y       z     vdW  Elec       q    Type
REMARK                         _______ _______ _______ _____ _____    ______ ____
ROOT
ATOM      1  C   UNL     1       1.121   9.421  19.681  0.00  0.00    +0.000 A 
ATOM      2  C   UNL     1       1.001   8.527  20.751  0.00  0.00    +0.000 A 
ATOM      3  C   UNL     1       1.583   7.251  20.677  0.00  0.00    +0.000 A 
ATOM      4  C   UNL     1       2.269   6.843  19.522  0.00  0.00    +0.000 A 
ATOM      5  C   UNL     1       2.316   7.725  18.433  0.00  0.00    +0.000 A 
ATOM      6  C   UNL     1       1.750   8.997  18.511  0.00  0.00    +0.000 A 
ENDROOT
BRANCH   1   7
ATOM      7  O   UNL     1       0.571  10.677  19.843  0.00  0.00    +0.000 OA
BRANCH   7  15
ATOM      8  O   UNL     1      -5.222  11.617  17.112  0.00  0.00    +0.000 OA
ATOM      9  C   UNL     1      -4.547  11.890  18.080  0.00  0.00    +0.000 A 
ATOM     10  N   UNL     1      -4.861  12.690  19.147  0.00  0.00    +0.000 N 
ATOM     11  O   UNL     1      -3.737  12.878  20.013  0.00  0.00    +0.000 OA
ATOM     12  C   UNL     1      -2.775  12.062  19.482  0.00  0.00    +0.000 A 
ATOM     13  C   UNL     1      -1.517  11.823  19.985  0.00  0.00    +0.000 A 
ATOM     14  F   UNL     1      -1.111  12.425  21.112  0.00  0.00    +0.000 F 
ATOM     15  C   UNL     1      -0.680  10.921  19.312  0.00  0.00    +0.000 A 
ATOM     16  C   UNL     1      -1.110  10.324  18.102  0.00  0.00    +0.000 A 
ATOM     17  C   UNL     1      -2.389  10.569  17.601  0.00  0.00    +0.000 A 
ATOM     18  C   UNL     1      -3.193  11.434  18.321  0.00  0.00    +0.000 A 
ATOM     19  H   UNL     1      -5.638  13.331  19.181  0.00  0.00    +0.000 HD
ENDBRANCH   7  15
ENDBRANCH   1   7
BRANCH   4  20
ATOM     20  C   UNL     1       3.021   5.528  19.446  0.00  0.00    +0.000 C 
BRANCH  20  21
ATOM     21  N   UNL     1       3.207   4.890  18.140  0.00  0.00    +0.000 NA
ATOM     22  C   UNL     1       2.061   4.135  17.637  0.00  0.00    +0.000 C 
ATOM     23  C   UNL     1       2.361   2.688  17.958  0.00  0.00    +0.000 C 
ATOM     24  C   UNL     1       3.872   2.599  17.865  0.00  0.00    +0.000 C 
ATOM     25  C   UNL     1       4.399   4.039  18.021  0.00  0.00    +0.000 C 
BRANCH  25  26
ATOM     26  C   UNL     1       5.290   4.376  16.826  0.00  0.00    +0.000 A 
ATOM     27  C   UNL     1       6.468   5.115  17.053  0.00  0.00    +0.000 A 
ATOM     28  C   UNL     1       7.402   5.313  16.035  0.00  0.00    +0.000 A 
ATOM     29  C   UNL     1       7.161   4.799  14.763  0.00  0.00    +0.000 A 
ATOM     30  C   UNL     1       5.974   4.116  14.510  0.00  0.00    +0.000 A 
ATOM     31 CL   UNL     1       5.676   3.489  12.934  0.00  0.00    +0.000 Cl
ATOM     32  C   UNL     1       5.040   3.910  15.526  0.00  0.00    +0.000 A 
ENDBRANCH  25  26
ENDBRANCH  20  21
ENDBRANCH   4  20
TORSDOF 5
ENDMDL
MODEL 5
REMARK VINA RESULT:      -9.2      4.672      9.818
REMARK  Name = 
REMARK  5 active torsions:
REMARK  status: ('A' for Active; 'I' for Inactive)
REMARK    1  A    between atoms: C_8  and  O_9
REMARK    2  A    between atoms: O_9  and  C_10
REMARK    3  A    between atoms: C_13  and  C_14
REMARK    4  A    between atoms: C_14  and  N_15
REMARK    5  A    between atoms: C_19  and  C_20
REMARK                            x       y       z     vdW  Elec       q    Type
REMARK                         _______ _______ _______ _____ _____    ______ ____
ROOT
ATOM      1  C   UNL     1       2.581   5.905  19.737  0.00  0.00    +0.000 A 
ATOM      2  C   UNL     1       2.711   6.866  18.728  0.00  0.00    +0.000 A 
ATOM      3  C   UNL     1       2.151   8.142  18.888  0.00  0.00    +0.000 A 
ATOM      4  C   UNL     1       1.430   8.468  20.049  0.00  0.00    +0.000 A 
ATOM      5  C   UNL     1       1.249   7.470  21.017  0.00  0.00    +0.000 A 
ATOM      6  C   UNL     1       1.817   6.206  20.864  0.00  0.00    +0.000 A 
ENDROOT
BRANCH   1   7
ATOM      7  O   UNL     1       3.203   4.689  19.536  0.00  0.00    +0.000 OA
BRANCH   7  15
ATOM      8  O   UNL     1       6.543   3.803  14.062  0.00  0.00    +0.000 OA
ATOM      9  C   UNL     1       6.625   4.228  15.193  0.00  0.00    +0.000 A 
ATOM     10  N   UNL     1       7.711   4.764  15.833  0.00  0.00    +0.000 N 
ATOM     11  O   UNL     1       7.438   5.014  17.215  0.00  0.00    +0.000 OA
ATOM     12  C   UNL     1       6.110   4.714  17.346  0.00  0.00    +0.000 A 
ATOM     13  C   UNL     1       5.333   4.853  18.473  0.00  0.00    +0.000 A 
ATOM     14  F   UNL     1       5.867   5.318  19.612  0.00  0.00    +0.000 F 
ATOM     15  C   UNL     1       3.972   4.523  18.400  0.00  0.00    +0.000 A 
ATOM     16  C   UNL     1       3.433   3.997  17.202  0.00  0.00    +0.000 A 
ATOM     17  C   UNL     1       4.228   3.864  16.061  0.00  0.00    +0.000 A 
ATOM     18  C   UNL     1       5.554   4.240  16.170  0.00  0.00    +0.000 A 
ATOM     19  H   UNL     1       8.663   4.700  15.508  0.00  0.00    +0.000 HD
ENDBRANCH   7  15
ENDBRANCH   1   7
BRANCH   4  20
ATOM     20  C   UNL     1       0.919   9.869  20.321  0.00  0.00    +0.000 C 
BRANCH  20  21
ATOM     21  N   UNL     1       0.469  10.694  19.197  0.00  0.00    +0.000 NA
ATOM     22  C   UNL     1       1.419  11.706  18.737  0.00  0.00    +0.000 C 
ATOM     23  C   UNL     1       0.964  13.001  19.371  0.00  0.00    +0.000 C 
ATOM     24  C   UNL     1      -0.543  12.856  19.458  0.00  0.00    +0.000 C 
ATOM     25  C   UNL     1      -0.836  11.345  19.378  0.00  0.00    +0.000 C 
BRANCH  25  26
ATOM     26  C   UNL     1      -1.824  11.088  18.240  0.00  0.00    +0.000 A 
ATOM     27  C   UNL     1      -1.537  10.060  17.320  0.00  0.00    +0.000 A 
ATOM     28  C   UNL     1      -2.473   9.669  16.361  0.00  0.00    +0.000 A 
ATOM     29  C   UNL     1      -3.703  10.318  16.288  0.00  0.00    +0.000 A 
ATOM     30  C   UNL     1      -3.977  11.375  17.154  0.00  0.00    +0.000 A 
ATOM     31 CL   UNL     1      -5.497  12.180  17.055  0.00  0.00    +0.000 Cl
ATOM     32  C   UNL     1      -3.047  11.765  18.119  0.00  0.00    +0.000 A 
ENDBRANCH  25  26
ENDBRANCH  20  21
ENDBRANCH   4  20
TORSDOF 5
ENDMDL
MODEL 6
REMARK VINA RESULT:      -9.2      1.534      1.997
REMARK  Name = 
REMARK  5 active torsions:
REMARK  status: ('A' for Active; 'I' for Inactive)
REMARK    1  A    between atoms: C_8  and  O_9
REMARK    2  A    between atoms: O_9  and  C_10
REMARK    3  A    between atoms: C_13  and  C_14
REMARK    4  A    between atoms: C_14  and  N_15
REMARK    5  A    between atoms: C_19  and  C_20
REMARK                            x       y       z     vdW  Elec       q    Type
REMARK                         _______ _______ _______ _____ _____    ______ ____
ROOT
ATOM      1  C   UNL     1       0.989   9.797  19.402  0.00  0.00    +0.000 A 
ATOM      2  C   UNL     1       1.771   9.095  18.478  0.00  0.00    +0.000 A 
ATOM      3  C   UNL     1       2.191   7.785  18.755  0.00  0.00    +0.000 A 
ATOM      4  C   UNL     1       1.857   7.168  19.972  0.00  0.00    +0.000 A 
ATOM      5  C   UNL     1       1.136   7.913  20.915  0.00  0.00    +0.000 A 
ATOM      6  C   UNL     1       0.707   9.209  20.635  0.00  0.00    +0.000 A 
ENDROOT
BRANCH   1   7
ATOM      7  O   UNL     1       0.567  11.061  19.041  0.00  0.00    +0.000 OA
BRANCH   7  15
ATOM      8  O   UNL     1      -5.737  12.509  19.299  0.00  0.00    +0.000 OA
ATOM      9  C   UNL     1      -4.905  11.896  18.668  0.00  0.00    +0.000 A 
ATOM     10  N   UNL     1      -5.075  11.112  17.557  0.00  0.00    +0.000 N 
ATOM     11  O   UNL     1      -3.865  10.441  17.195  0.00  0.00    +0.000 OA
ATOM     12  C   UNL     1      -2.937  10.948  18.064  0.00  0.00    +0.000 A 
ATOM     13  C   UNL     1      -1.588  10.678  18.091  0.00  0.00    +0.000 A 
ATOM     14  F   UNL     1      -1.048   9.828  17.206  0.00  0.00    +0.000 F 
ATOM     15  C   UNL     1      -0.789  11.327  19.043  0.00  0.00    +0.000 A 
ATOM     16  C   UNL     1      -1.381  12.192  19.994  0.00  0.00    +0.000 A 
ATOM     17  C   UNL     1      -2.749  12.464  19.957  0.00  0.00    +0.000 A 
ATOM     18  C   UNL     1      -3.490  11.832  18.975  0.00  0.00    +0.000 A 
ATOM     19  H   UNL     1      -5.962  10.773  17.219  0.00  0.00    +0.000 HD
ENDBRANCH   7  15
ENDBRANCH   1   7
BRANCH   4  20
ATOM     20  C   UNL     1       2.178   5.714  20.260  0.00  0.00    +0.000 C 
BRANCH  20  21
ATOM     21  N   UNL     1       2.746   4.886  19.194  0.00  0.00    +0.000 NA
ATOM     22  C   UNL     1       1.930   3.747  18.777  0.00  0.00    +0.000 C 
ATOM     23  C   UNL     1       2.516   2.550  19.493  0.00  0.00    +0.000 C 
ATOM     24  C   UNL     1       3.993   2.874  19.598  0.00  0.00    +0.000 C 
ATOM     25  C   UNL     1       4.113   4.402  19.435  0.00  0.00    +0.000 C 
BRANCH  25  26
ATOM     26  C   UNL     1       5.092   4.708  18.302  0.00  0.00    +0.000 A 
ATOM     27  C   UNL     1       5.033   3.924  17.133  0.00  0.00    +0.000 A 
ATOM     28  C   UNL     1       5.784   4.255  16.004  0.00  0.00    +0.000 A 
ATOM     29  C   UNL     1       6.630   5.361  16.034  0.00  0.00    +0.000 A 
ATOM     30  C   UNL     1       6.742   6.111  17.202  0.00  0.00    +0.000 A 
ATOM     31 CL   UNL     1       7.794   7.474  17.238  0.00  0.00    +0.000 Cl
ATOM     32  C   UNL     1       5.988   5.787  18.332  0.00  0.00    +0.000 A 
ENDBRANCH  25  26
ENDBRANCH  20  21
ENDBRANCH   4  20
TORSDOF 5
ENDMDL
MODEL 7
REMARK VINA RESULT:      -9.0      3.132      4.202
REMARK  Name = 
REMARK  5 active torsions:
REMARK  status: ('A' for Active; 'I' for Inactive)
REMARK    1  A    between atoms: C_8  and  O_9
REMARK    2  A    between atoms: O_9  and  C_10
REMARK    3  A    between atoms: C_13  and  C_14
REMARK    4  A    between atoms: C_14  and  N_15
REMARK    5  A    between atoms: C_19  and  C_20
REMARK                            x       y       z     vdW  Elec       q    Type
REMARK                         _______ _______ _______ _____ _____    ______ ____
ROOT
ATOM      1  C   UNL     1       1.155   9.813  19.181  0.00  0.00    +0.000 A 
ATOM      2  C   UNL     1       1.794   9.211  18.092  0.00  0.00    +0.000 A 
ATOM      3  C   UNL     1       2.270   7.894  18.189  0.00  0.00    +0.000 A 
ATOM      4  C   UNL     1       2.137   7.171  19.385  0.00  0.00    +0.000 A 
ATOM      5  C   UNL     1       1.559   7.815  20.488  0.00  0.00    +0.000 A 
ATOM      6  C   UNL     1       1.074   9.119  20.388  0.00  0.00    +0.000 A 
ENDROOT
BRANCH   1   7
ATOM      7  O   UNL     1       0.664  11.091  18.998  0.00  0.00    +0.000 OA
BRANCH   7  15
ATOM      8  O   UNL     1       4.640  16.091  20.041  0.00  0.00    +0.000 OA
ATOM      9  C   UNL     1       3.769  15.419  20.547  0.00  0.00    +0.000 A 
ATOM     10  N   UNL     1       3.235  15.512  21.806  0.00  0.00    +0.000 N 
ATOM     11  O   UNL     1       2.327  14.439  22.073  0.00  0.00    +0.000 OA
ATOM     12  C   UNL     1       2.251  13.770  20.882  0.00  0.00    +0.000 A 
ATOM     13  C   UNL     1       1.451  12.690  20.583  0.00  0.00    +0.000 A 
ATOM     14  F   UNL     1       0.636  12.173  21.513  0.00  0.00    +0.000 F 
ATOM     15  C   UNL     1       1.489  12.161  19.286  0.00  0.00    +0.000 A 
ATOM     16  C   UNL     1       2.384  12.694  18.328  0.00  0.00    +0.000 A 
ATOM     17  C   UNL     1       3.188  13.792  18.637  0.00  0.00    +0.000 A 
ATOM     18  C   UNL     1       3.087  14.306  19.917  0.00  0.00    +0.000 A 
ATOM     19  H   UNL     1       3.637  16.036  22.567  0.00  0.00    +0.000 HD
ENDBRANCH   7  15
ENDBRANCH   1   7
BRANCH   4  20
ATOM     20  C   UNL     1       2.519   5.708  19.496  0.00  0.00    +0.000 C 
BRANCH  20  21
ATOM     21  N   UNL     1       2.871   4.970  18.280  0.00  0.00    +0.000 NA
ATOM     22  C   UNL     1       1.784   4.209  17.667  0.00  0.00    +0.000 C 
ATOM     23  C   UNL     1       1.982   2.782  18.129  0.00  0.00    +0.000 C 
ATOM     24  C   UNL     1       3.486   2.648  18.268  0.00  0.00    +0.000 C 
ATOM     25  C   UNL     1       4.036   4.082  18.400  0.00  0.00    +0.000 C 
BRANCH  25  26
ATOM     26  C   UNL     1       5.104   4.307  17.329  0.00  0.00    +0.000 A 
ATOM     27  C   UNL     1       6.391   4.709  17.738  0.00  0.00    +0.000 A 
ATOM     28  C   UNL     1       7.449   4.772  16.828  0.00  0.00    +0.000 A 
ATOM     29  C   UNL     1       7.231   4.460  15.489  0.00  0.00    +0.000 A 
ATOM     30  C   UNL     1       5.951   4.118  15.060  0.00  0.00    +0.000 A 
ATOM     31 CL   UNL     1       5.684   3.741  13.401  0.00  0.00    +0.000 Cl
ATOM     32  C   UNL     1       4.891   4.047  15.967  0.00  0.00    +0.000 A 
ENDBRANCH  25  26
ENDBRANCH  20  21
ENDBRANCH   4  20
TORSDOF 5
ENDMDL
MODEL 8
REMARK VINA RESULT:      -9.0      4.493     10.195
REMARK  Name = 
REMARK  5 active torsions:
REMARK  status: ('A' for Active; 'I' for Inactive)
REMARK    1  A    between atoms: C_8  and  O_9
REMARK    2  A    between atoms: O_9  and  C_10
REMARK    3  A    between atoms: C_13  and  C_14
REMARK    4  A    between atoms: C_14  and  N_15
REMARK    5  A    between atoms: C_19  and  C_20
REMARK                            x       y       z     vdW  Elec       q    Type
REMARK                         _______ _______ _______ _____ _____    ______ ____
ROOT
ATOM      1  C   UNL     1       1.644   8.500  19.607  0.00  0.00    +0.000 A 
ATOM      2  C   UNL     1       0.735   8.973  20.560  0.00  0.00    +0.000 A 
ATOM      3  C   UNL     1      -0.244   9.912  20.201  0.00  0.00    +0.000 A 
ATOM      4  C   UNL     1      -0.311  10.411  18.890  0.00  0.00    +0.000 A 
ATOM      5  C   UNL     1       0.653   9.980  17.968  0.00  0.00    +0.000 A 
ATOM      6  C   UNL     1       1.618   9.037  18.321  0.00  0.00    +0.000 A 
ENDROOT
BRANCH   1   7
ATOM      7  O   UNL     1       2.545   7.538  20.017  0.00  0.00    +0.000 OA
BRANCH   7  15
ATOM      8  O   UNL     1       2.593   1.847  16.933  0.00  0.00    +0.000 OA
ATOM      9  C   UNL     1       2.155   2.423  17.903  0.00  0.00    +0.000 A 
ATOM     10  N   UNL     1       1.314   1.950  18.876  0.00  0.00    +0.000 N 
ATOM     11  O   UNL     1       0.911   2.988  19.774  0.00  0.00    +0.000 OA
ATOM     12  C   UNL     1       1.638   4.074  19.368  0.00  0.00    +0.000 A 
ATOM     13  C   UNL     1       1.670   5.320  19.952  0.00  0.00    +0.000 A 
ATOM     14  F   UNL     1       0.926   5.579  21.037  0.00  0.00    +0.000 F 
ATOM     15  C   UNL     1       2.510   6.300  19.405  0.00  0.00    +0.000 A 
ATOM     16  C   UNL     1       3.258   6.021  18.236  0.00  0.00    +0.000 A 
ATOM     17  C   UNL     1       3.223   4.753  17.653  0.00  0.00    +0.000 A 
ATOM     18  C   UNL     1       2.411   3.807  18.251  0.00  0.00    +0.000 A 
ATOM     19  H   UNL     1       0.778   1.099  18.813  0.00  0.00    +0.000 HD
ENDBRANCH   7  15
ENDBRANCH   1   7
BRANCH   4  20
ATOM     20  C   UNL     1      -1.427  11.326  18.425  0.00  0.00    +0.000 C 
BRANCH  20  21
ATOM     21  N   UNL     1      -2.781  10.783  18.286  0.00  0.00    +0.000 NA
ATOM     22  C   UNL     1      -2.912   9.638  17.387  0.00  0.00    +0.000 C 
ATOM     23  C   UNL     1      -3.421  10.208  16.082  0.00  0.00    +0.000 C 
ATOM     24  C   UNL     1      -4.276  11.386  16.506  0.00  0.00    +0.000 C 
ATOM     25  C   UNL     1      -3.817  11.762  17.928  0.00  0.00    +0.000 C 
BRANCH  25  26
ATOM     26  C   UNL     1      -5.027  11.758  18.861  0.00  0.00    +0.000 A 
ATOM     27  C   UNL     1      -6.144  10.973  18.510  0.00  0.00    +0.000 A 
ATOM     28  C   UNL     1      -7.209  10.799  19.396  0.00  0.00    +0.000 A 
ATOM     29  C   UNL     1      -7.189  11.429  20.637  0.00  0.00    +0.000 A 
ATOM     30  C   UNL     1      -6.119  12.255  20.974  0.00  0.00    +0.000 A 
ATOM     31 CL   UNL     1      -6.102  13.038  22.507  0.00  0.00    +0.000 Cl
ATOM     32  C   UNL     1      -5.048  12.427  20.095  0.00  0.00    +0.000 A 
ENDBRANCH  25  26
ENDBRANCH  20  21
ENDBRANCH   4  20
TORSDOF 5
ENDMDL
MODEL 9
REMARK VINA RESULT:      -9.0      4.229      9.826
REMARK  Name = 
REMARK  5 active torsions:
REMARK  status: ('A' for Active; 'I' for Inactive)
REMARK    1  A    between atoms: C_8  and  O_9
REMARK    2  A    between atoms: O_9  and  C_10
REMARK    3  A    between atoms: C_13  and  C_14
REMARK    4  A    between atoms: C_14  and  N_15
REMARK    5  A    between atoms: C_19  and  C_20
REMARK                            x       y       z     vdW  Elec       q    Type
REMARK                         _______ _______ _______ _____ _____    ______ ____
ROOT
ATOM      1  C   UNL     1       2.414   6.136  19.713  0.00  0.00    +0.000 A 
ATOM      2  C   UNL     1       1.764   6.382  20.928  0.00  0.00    +0.000 A 
ATOM      3  C   UNL     1       1.163   7.626  21.171  0.00  0.00    +0.000 A 
ATOM      4  C   UNL     1       1.225   8.651  20.213  0.00  0.00    +0.000 A 
ATOM      5  C   UNL     1       1.942   8.412  19.033  0.00  0.00    +0.000 A 
ATOM      6  C   UNL     1       2.529   7.171  18.785  0.00  0.00    +0.000 A 
ENDROOT
BRANCH   1   7
ATOM      7  O   UNL     1       2.937   4.873  19.520  0.00  0.00    +0.000 OA
BRANCH   7  15
ATOM      8  O   UNL     1       6.658   3.813  14.331  0.00  0.00    +0.000 OA
ATOM      9  C   UNL     1       6.668   4.242  15.463  0.00  0.00    +0.000 A 
ATOM     10  N   UNL     1       7.722   4.738  16.185  0.00  0.00    +0.000 N 
ATOM     11  O   UNL     1       7.352   5.008  17.540  0.00  0.00    +0.000 OA
ATOM     12  C   UNL     1       6.005   4.764  17.567  0.00  0.00    +0.000 A 
ATOM     13  C   UNL     1       5.148   4.942  18.629  0.00  0.00    +0.000 A 
ATOM     14  F   UNL     1       5.610   5.393  19.804  0.00  0.00    +0.000 F 
ATOM     15  C   UNL     1       3.785   4.668  18.450  0.00  0.00    +0.000 A 
ATOM     16  C   UNL     1       3.322   4.156  17.214  0.00  0.00    +0.000 A 
ATOM     17  C   UNL     1       4.197   3.982  16.141  0.00  0.00    +0.000 A 
ATOM     18  C   UNL     1       5.525   4.305  16.352  0.00  0.00    +0.000 A 
ATOM     19  H   UNL     1       8.693   4.633  15.937  0.00  0.00    +0.000 HD
ENDBRANCH   7  15
ENDBRANCH   1   7
BRANCH   4  20
ATOM     20  C   UNL     1       0.483   9.963  20.378  0.00  0.00    +0.000 C 
BRANCH  20  21
ATOM     21  N   UNL     1       0.041  10.685  19.182  0.00  0.00    +0.000 NA
ATOM     22  C   UNL     1       1.068  11.475  18.506  0.00  0.00    +0.000 C 
ATOM     23  C   UNL     1       0.856  12.897  18.975  0.00  0.00    +0.000 C 
ATOM     24  C   UNL     1      -0.641  12.988  19.199  0.00  0.00    +0.000 C 
ATOM     25  C   UNL     1      -1.141  11.539  19.365  0.00  0.00    +0.000 C 
BRANCH  25  26
ATOM     26  C   UNL     1      -2.261  11.279  18.358  0.00  0.00    +0.000 A 
ATOM     27  C   UNL     1      -3.568  11.695  18.683  0.00  0.00    +0.000 A 
ATOM     28  C   UNL     1      -4.598  11.634  17.743  0.00  0.00    +0.000 A 
ATOM     29  C   UNL     1      -4.346  11.131  16.470  0.00  0.00    +0.000 A 
ATOM     30  C   UNL     1      -3.073  10.662  16.153  0.00  0.00    +0.000 A 
ATOM     31 CL   UNL     1      -2.768  10.033  14.580  0.00  0.00    +0.000 Cl
ATOM     32  C   UNL     1      -2.038  10.727  17.088  0.00  0.00    +0.000 A 
ENDBRANCH  25  26
ENDBRANCH  20  21
ENDBRANCH   4  20
TORSDOF 5
ENDMDL
