MODEL 1
REMARK VINA RESULT:      -7.6      0.000      0.000
REMARK  Name = 
REMARK  6 active torsions:
REMARK  status: ('A' for Active; 'I' for Inactive)
REMARK    1  A    between atoms: C_1  and  C_2
REMARK    2  A    between atoms: C_5  and  C_6
REMARK    3  A    between atoms: C_6  and  N_7
REMARK    4  A    between atoms: N_7  and  C_8
REMARK    5  A    between atoms: N_11  and  C_12
REMARK    6  A    between atoms: C_16  and  N_17
REMARK                            x       y       z     vdW  Elec       q    Type
REMARK                         _______ _______ _______ _____ _____    ______ ____
ROOT
ATOM      1  N   UNL     1       1.636   9.099  19.190  0.00  0.00    +0.000 N 
ATOM      2  C   UNL     1       1.192   8.907  20.561  0.00  0.00    +0.000 C 
ATOM      3  C   UNL     1       2.075   8.079  18.349  0.00  0.00    +0.000 C 
ATOM      4  O   UNL     1       2.498   8.330  17.220  0.00  0.00    +0.000 OA
ATOM      5  N   UNL     1       1.950   6.805  18.867  0.00  0.00    +0.000 N 
ATOM      6  H   UNL     1       1.268   6.688  19.598  0.00  0.00    +0.000 HD
ENDROOT
BRANCH   5   7
ATOM      7  C   UNL     1       2.465   5.615  18.302  0.00  0.00    +0.000 A 
ATOM      8  C   UNL     1       1.756   4.415  18.305  0.00  0.00    +0.000 A 
ATOM      9  C   UNL     1       2.292   3.281  17.702  0.00  0.00    +0.000 A 
ATOM     10  C   UNL     1       3.544   3.333  17.090  0.00  0.00    +0.000 A 
ATOM     11  C   UNL     1       4.289   4.516  17.081  0.00  0.00    +0.000 A 
ATOM     12  C   UNL     1       3.728   5.659  17.683  0.00  0.00    +0.000 A 
BRANCH  11  13
ATOM     13  N   UNL     1       5.592   4.551  16.514  0.00  0.00    +0.000 N 
ATOM     14  C   UNL     1       5.841   4.560  15.108  0.00  0.00    +0.000 C 
ATOM     15  C   UNL     1       7.298   4.940  15.026  0.00  0.00    +0.000 C 
ATOM     16  O   UNL     1       7.838   4.618  16.305  0.00  0.00    +0.000 OA
ATOM     17  C   UNL     1       6.800   4.529  17.200  0.00  0.00    +0.000 C 
ATOM     18  O   UNL     1       6.998   4.415  18.396  0.00  0.00    +0.000 OA
ENDBRANCH  11  13
ENDBRANCH   5   7
BRANCH   1  19
ATOM     19  C   UNL     1       1.486  10.435  18.613  0.00  0.00    +0.000 C 
BRANCH  19  24
ATOM     20  C   UNL     1      -3.714  11.505  18.174  0.00  0.00    +0.000 C 
ATOM     21  C   UNL     1      -2.271  11.486  18.538  0.00  0.00    +0.000 A 
ATOM     22  N   UNL     1      -1.698  12.352  19.345  0.00  0.00    +0.000 NA
ATOM     23  C   UNL     1      -0.357  12.046  19.480  0.00  0.00    +0.000 A 
ATOM     24  C   UNL     1       0.091  10.956  18.757  0.00  0.00    +0.000 A 
ATOM     25  S   UNL     1      -1.230  10.276  17.897  0.00  0.00    +0.000 S 
ENDBRANCH  19  24
ENDBRANCH   1  19
TORSDOF 4
ENDMDL
MODEL 2
REMARK VINA RESULT:      -7.6      3.208      8.621
REMARK  Name = 
REMARK  6 active torsions:
REMARK  status: ('A' for Active; 'I' for Inactive)
REMARK    1  A    between atoms: C_1  and  C_2
REMARK    2  A    between atoms: C_5  and  C_6
REMARK    3  A    between atoms: C_6  and  N_7
REMARK    4  A    between atoms: N_7  and  C_8
REMARK    5  A    between atoms: N_11  and  C_12
REMARK    6  A    between atoms: C_16  and  N_17
REMARK                            x       y       z     vdW  Elec       q    Type
REMARK                         _______ _______ _______ _____ _____    ______ ____
ROOT
ATOM      1  N   UNL     1       5.000   4.791  18.514  0.00  0.00    +0.000 N 
ATOM      2  C   UNL     1       4.311   3.688  19.164  0.00  0.00    +0.000 C 
ATOM      3  C   UNL     1       4.486   6.079  18.383  0.00  0.00    +0.000 C 
ATOM      4  O   UNL     1       5.103   6.945  17.761  0.00  0.00    +0.000 OA
ATOM      5  N   UNL     1       3.287   6.295  19.034  0.00  0.00    +0.000 N 
ATOM      6  H   UNL     1       3.077   5.671  19.796  0.00  0.00    +0.000 HD
ENDROOT
BRANCH   5   7
ATOM      7  C   UNL     1       2.471   7.446  18.930  0.00  0.00    +0.000 A 
ATOM      8  C   UNL     1       2.237   8.092  17.717  0.00  0.00    +0.000 A 
ATOM      9  C   UNL     1       1.395   9.199  17.662  0.00  0.00    +0.000 A 
ATOM     10  C   UNL     1       0.779   9.674  18.821  0.00  0.00    +0.000 A 
ATOM     11  C   UNL     1       1.003   9.059  20.056  0.00  0.00    +0.000 A 
ATOM     12  C   UNL     1       1.847   7.932  20.093  0.00  0.00    +0.000 A 
BRANCH  11  13
ATOM     13  N   UNL     1       0.427   9.583  21.244  0.00  0.00    +0.000 N 
ATOM     14  C   UNL     1      -0.463   8.845  22.082  0.00  0.00    +0.000 C 
ATOM     15  C   UNL     1      -0.512   9.677  23.339  0.00  0.00    +0.000 C 
ATOM     16  O   UNL     1      -0.099  10.980  22.937  0.00  0.00    +0.000 OA
ATOM     17  C   UNL     1       0.580  10.869  21.748  0.00  0.00    +0.000 C 
ATOM     18  O   UNL     1       1.172  11.815  21.262  0.00  0.00    +0.000 OA
ENDBRANCH  11  13
ENDBRANCH   5   7
BRANCH   1  19
ATOM     19  C   UNL     1       6.381   4.566  18.086  0.00  0.00    +0.000 C 
BRANCH  19  24
ATOM     20  C   UNL     1       6.118   3.624  12.849  0.00  0.00    +0.000 C 
ATOM     21  C   UNL     1       6.442   4.139  14.208  0.00  0.00    +0.000 A 
ATOM     22  N   UNL     1       7.365   5.040  14.459  0.00  0.00    +0.000 NA
ATOM     23  C   UNL     1       7.402   5.304  15.815  0.00  0.00    +0.000 A 
ATOM     24  C   UNL     1       6.517   4.584  16.596  0.00  0.00    +0.000 A 
ATOM     25  S   UNL     1       5.585   3.559  15.582  0.00  0.00    +0.000 S 
ENDBRANCH  19  24
ENDBRANCH   1  19
TORSDOF 4
ENDMDL
MODEL 3
REMARK VINA RESULT:      -7.5      3.125      9.043
REMARK  Name = 
REMARK  6 active torsions:
REMARK  status: ('A' for Active; 'I' for Inactive)
REMARK    1  A    between atoms: C_1  and  C_2
REMARK    2  A    between atoms: C_5  and  C_6
REMARK    3  A    between atoms: C_6  and  N_7
REMARK    4  A    between atoms: N_7  and  C_8
REMARK    5  A    between atoms: N_11  and  C_12
REMARK    6  A    between atoms: C_16  and  N_17
REMARK                            x       y       z     vdW  Elec       q    Type
REMARK                         _______ _______ _______ _____ _____    ______ ____
ROOT
ATOM      1  N   UNL     1       2.650   7.363  18.575  0.00  0.00    +0.000 N 
ATOM      2  C   UNL     1       2.250   6.677  19.792  0.00  0.00    +0.000 C 
ATOM      3  C   UNL     1       2.173   8.607  18.173  0.00  0.00    +0.000 C 
ATOM      4  O   UNL     1       2.510   9.096  17.093  0.00  0.00    +0.000 OA
ATOM      5  N   UNL     1       1.352   9.238  19.088  0.00  0.00    +0.000 N 
ATOM      6  H   UNL     1       1.450   8.946  20.047  0.00  0.00    +0.000 HD
ENDROOT
BRANCH   5   7
ATOM      7  C   UNL     1       0.604  10.419  18.871  0.00  0.00    +0.000 A 
ATOM      8  C   UNL     1       1.102  11.686  19.169  0.00  0.00    +0.000 A 
ATOM      9  C   UNL     1       0.341  12.821  18.902  0.00  0.00    +0.000 A 
ATOM     10  C   UNL     1      -0.928  12.700  18.334  0.00  0.00    +0.000 A 
ATOM     11  C   UNL     1      -1.464  11.444  18.036  0.00  0.00    +0.000 A 
ATOM     12  C   UNL     1      -0.676  10.306  18.299  0.00  0.00    +0.000 A 
BRANCH  11  13
ATOM     13  N   UNL     1      -2.781  11.319  17.518  0.00  0.00    +0.000 N 
ATOM     14  C   UNL     1      -3.959  11.466  18.311  0.00  0.00    +0.000 C 
ATOM     15  C   UNL     1      -5.050  11.587  17.278  0.00  0.00    +0.000 C 
ATOM     16  O   UNL     1      -4.505  11.010  16.094  0.00  0.00    +0.000 OA
ATOM     17  C   UNL     1      -3.137  10.993  16.215  0.00  0.00    +0.000 C 
ATOM     18  O   UNL     1      -2.418  10.690  15.279  0.00  0.00    +0.000 OA
ENDBRANCH  11  13
ENDBRANCH   5   7
BRANCH   1  19
ATOM     19  C   UNL     1       3.727   6.764  17.786  0.00  0.00    +0.000 C 
BRANCH  19  24
ATOM     20  C   UNL     1       3.573   1.503  18.612  0.00  0.00    +0.000 C 
ATOM     21  C   UNL     1       3.912   2.953  18.603  0.00  0.00    +0.000 A 
ATOM     22  N   UNL     1       4.878   3.494  19.311  0.00  0.00    +0.000 NA
ATOM     23  C   UNL     1       4.934   4.852  19.064  0.00  0.00    +0.000 A 
ATOM     24  C   UNL     1       3.992   5.345  18.180  0.00  0.00    +0.000 A 
ATOM     25  S   UNL     1       3.020   4.046  17.619  0.00  0.00    +0.000 S 
ENDBRANCH  19  24
ENDBRANCH   1  19
TORSDOF 4
ENDMDL
MODEL 4
REMARK VINA RESULT:      -7.4      1.619      1.825
REMARK  Name = 
REMARK  6 active torsions:
REMARK  status: ('A' for Active; 'I' for Inactive)
REMARK    1  A    between atoms: C_1  and  C_2
REMARK    2  A    between atoms: C_5  and  C_6
REMARK    3  A    between atoms: C_6  and  N_7
REMARK    4  A    between atoms: N_7  and  C_8
REMARK    5  A    between atoms: N_11  and  C_12
REMARK    6  A    between atoms: C_16  and  N_17
REMARK                            x       y       z     vdW  Elec       q    Type
REMARK                         _______ _______ _______ _____ _____    ______ ____
ROOT
ATOM      1  N   UNL     1       1.178   9.728  19.634  0.00  0.00    +0.000 N 
ATOM      2  C   UNL     1       0.859  10.039  21.018  0.00  0.00    +0.000 C 
ATOM      3  C   UNL     1       1.660   8.500  19.188  0.00  0.00    +0.000 C 
ATOM      4  O   UNL     1       1.969   8.334  18.008  0.00  0.00    +0.000 OA
ATOM      5  N   UNL     1       1.712   7.512  20.152  0.00  0.00    +0.000 N 
ATOM      6  H   UNL     1       1.102   7.633  20.944  0.00  0.00    +0.000 HD
ENDROOT
BRANCH   5   7
ATOM      7  C   UNL     1       2.309   6.237  20.016  0.00  0.00    +0.000 A 
ATOM      8  C   UNL     1       1.760   5.088  20.584  0.00  0.00    +0.000 A 
ATOM      9  C   UNL     1       2.366   3.850  20.388  0.00  0.00    +0.000 A 
ATOM     10  C   UNL     1       3.529   3.748  19.623  0.00  0.00    +0.000 A 
ATOM     11  C   UNL     1       4.113   4.881  19.051  0.00  0.00    +0.000 A 
ATOM     12  C   UNL     1       3.481   6.125  19.246  0.00  0.00    +0.000 A 
BRANCH  11  13
ATOM     13  N   UNL     1       5.331   4.784  18.327  0.00  0.00    +0.000 N 
ATOM     14  C   UNL     1       5.415   4.311  16.982  0.00  0.00    +0.000 C 
ATOM     15  C   UNL     1       6.808   4.716  16.567  0.00  0.00    +0.000 C 
ATOM     16  O   UNL     1       7.521   4.894  17.789  0.00  0.00    +0.000 OA
ATOM     17  C   UNL     1       6.606   5.070  18.798  0.00  0.00    +0.000 C 
ATOM     18  O   UNL     1       6.951   5.395  19.920  0.00  0.00    +0.000 OA
ENDBRANCH  11  13
ENDBRANCH   5   7
BRANCH   1  19
ATOM     19  C   UNL     1       0.843  10.732  18.623  0.00  0.00    +0.000 C 
BRANCH  19  24
ATOM     20  C   UNL     1      -4.380  11.779  18.536  0.00  0.00    +0.000 C 
ATOM     21  C   UNL     1      -3.017  11.217  18.326  0.00  0.00    +0.000 A 
ATOM     22  N   UNL     1      -2.758  10.149  17.604  0.00  0.00    +0.000 NA
ATOM     23  C   UNL     1      -1.398   9.905  17.603  0.00  0.00    +0.000 A 
ATOM     24  C   UNL     1      -0.627  10.781  18.345  0.00  0.00    +0.000 A 
ATOM     25  S   UNL     1      -1.648  11.970  19.044  0.00  0.00    +0.000 S 
ENDBRANCH  19  24
ENDBRANCH   1  19
TORSDOF 4
ENDMDL
MODEL 5
REMARK VINA RESULT:      -7.4      3.301      9.019
REMARK  Name = 
REMARK  6 active torsions:
REMARK  status: ('A' for Active; 'I' for Inactive)
REMARK    1  A    between atoms: C_1  and  C_2
REMARK    2  A    between atoms: C_5  and  C_6
REMARK    3  A    between atoms: C_6  and  N_7
REMARK    4  A    between atoms: N_7  and  C_8
REMARK    5  A    between atoms: N_11  and  C_12
REMARK    6  A    between atoms: C_16  and  N_17
REMARK                            x       y       z     vdW  Elec       q    Type
REMARK                         _______ _______ _______ _____ _____    ______ ____
ROOT
ATOM      1  N   UNL     1       2.458   7.257  18.978  0.00  0.00    +0.000 N 
ATOM      2  C   UNL     1       2.117   6.716  20.284  0.00  0.00    +0.000 C 
ATOM      3  C   UNL     1       2.005   8.477  18.483  0.00  0.00    +0.000 C 
ATOM      4  O   UNL     1       2.284   8.838  17.339  0.00  0.00    +0.000 OA
ATOM      5  N   UNL     1       1.277   9.234  19.380  0.00  0.00    +0.000 N 
ATOM      6  H   UNL     1       1.431   9.035  20.355  0.00  0.00    +0.000 HD
ENDROOT
BRANCH   5   7
ATOM      7  C   UNL     1       0.565  10.422  19.093  0.00  0.00    +0.000 A 
ATOM      8  C   UNL     1       1.012  11.680  19.494  0.00  0.00    +0.000 A 
ATOM      9  C   UNL     1       0.294  12.822  19.154  0.00  0.00    +0.000 A 
ATOM     10  C   UNL     1      -0.882  12.719  18.409  0.00  0.00    +0.000 A 
ATOM     11  C   UNL     1      -1.366  11.473  18.002  0.00  0.00    +0.000 A 
ATOM     12  C   UNL     1      -0.621  10.327  18.343  0.00  0.00    +0.000 A 
BRANCH  11  13
ATOM     13  N   UNL     1      -2.596  11.365  17.299  0.00  0.00    +0.000 N 
ATOM     14  C   UNL     1      -2.686  11.063  15.907  0.00  0.00    +0.000 C 
ATOM     15  C   UNL     1      -4.146  10.727  15.726  0.00  0.00    +0.000 C 
ATOM     16  O   UNL     1      -4.805  11.338  16.833  0.00  0.00    +0.000 OA
ATOM     17  C   UNL     1      -3.870  11.579  17.810  0.00  0.00    +0.000 C 
ATOM     18  O   UNL     1      -4.194  11.955  18.923  0.00  0.00    +0.000 OA
ENDBRANCH  11  13
ENDBRANCH   5   7
BRANCH   1  19
ATOM     19  C   UNL     1       3.452   6.532  18.185  0.00  0.00    +0.000 C 
BRANCH  19  24
ATOM     20  C   UNL     1       3.646   1.213  18.413  0.00  0.00    +0.000 C 
ATOM     21  C   UNL     1       3.260   2.635  18.197  0.00  0.00    +0.000 A 
ATOM     22  N   UNL     1       2.158   3.022  17.595  0.00  0.00    +0.000 NA
ATOM     23  C   UNL     1       2.099   4.402  17.571  0.00  0.00    +0.000 A 
ATOM     24  C   UNL     1       3.172   5.063  18.141  0.00  0.00    +0.000 A 
ATOM     25  S   UNL     1       4.280   3.904  18.752  0.00  0.00    +0.000 S 
ENDBRANCH  19  24
ENDBRANCH   1  19
TORSDOF 4
ENDMDL
MODEL 6
REMARK VINA RESULT:      -7.3      1.492      1.639
REMARK  Name = 
REMARK  6 active torsions:
REMARK  status: ('A' for Active; 'I' for Inactive)
REMARK    1  A    between atoms: C_1  and  C_2
REMARK    2  A    between atoms: C_5  and  C_6
REMARK    3  A    between atoms: C_6  and  N_7
REMARK    4  A    between atoms: N_7  and  C_8
REMARK    5  A    between atoms: N_11  and  C_12
REMARK    6  A    between atoms: C_16  and  N_17
REMARK                            x       y       z     vdW  Elec       q    Type
REMARK                         _______ _______ _______ _____ _____    ______ ____
ROOT
ATOM      1  N   UNL     1       1.165   9.369  20.208  0.00  0.00    +0.000 N 
ATOM      2  C   UNL     1       0.586   9.453  21.539  0.00  0.00    +0.000 C 
ATOM      3  C   UNL     1       1.758   8.229  19.672  0.00  0.00    +0.000 C 
ATOM      4  O   UNL     1       2.286   8.255  18.560  0.00  0.00    +0.000 OA
ATOM      5  N   UNL     1       1.660   7.098  20.459  0.00  0.00    +0.000 N 
ATOM      6  H   UNL     1       0.910   7.090  21.132  0.00  0.00    +0.000 HD
ENDROOT
BRANCH   5   7
ATOM      7  C   UNL     1       2.310   5.861  20.237  0.00  0.00    +0.000 A 
ATOM      8  C   UNL     1       1.838   4.661  20.766  0.00  0.00    +0.000 A 
ATOM      9  C   UNL     1       2.493   3.465  20.487  0.00  0.00    +0.000 A 
ATOM     10  C   UNL     1       3.628   3.457  19.676  0.00  0.00    +0.000 A 
ATOM     11  C   UNL     1       4.137   4.643  19.141  0.00  0.00    +0.000 A 
ATOM     12  C   UNL     1       3.455   5.844  19.421  0.00  0.00    +0.000 A 
BRANCH  11  13
ATOM     13  N   UNL     1       5.330   4.641  18.369  0.00  0.00    +0.000 N 
ATOM     14  C   UNL     1       5.401   4.159  17.027  0.00  0.00    +0.000 C 
ATOM     15  C   UNL     1       6.736   4.675  16.552  0.00  0.00    +0.000 C 
ATOM     16  O   UNL     1       7.479   4.930  17.742  0.00  0.00    +0.000 OA
ATOM     17  C   UNL     1       6.593   5.041  18.786  0.00  0.00    +0.000 C 
ATOM     18  O   UNL     1       6.953   5.409  19.890  0.00  0.00    +0.000 OA
ENDBRANCH  11  13
ENDBRANCH   5   7
BRANCH   1  19
ATOM     19  C   UNL     1       0.993  10.523  19.324  0.00  0.00    +0.000 C 
BRANCH  19  24
ATOM     20  C   UNL     1      -3.962  10.921  17.410  0.00  0.00    +0.000 C 
ATOM     21  C   UNL     1      -2.701  11.057  18.190  0.00  0.00    +0.000 A 
ATOM     22  N   UNL     1      -2.534  11.896  19.188  0.00  0.00    +0.000 NA
ATOM     23  C   UNL     1      -1.257  11.762  19.701  0.00  0.00    +0.000 A 
ATOM     24  C   UNL     1      -0.449  10.831  19.075  0.00  0.00    +0.000 A 
ATOM     25  S   UNL     1      -1.338  10.078  17.814  0.00  0.00    +0.000 S 
ENDBRANCH  19  24
ENDBRANCH   1  19
TORSDOF 4
ENDMDL
MODEL 7
REMARK VINA RESULT:      -7.3      1.017      1.398
REMARK  Name = 
REMARK  6 active torsions:
REMARK  status: ('A' for Active; 'I' for Inactive)
REMARK    1  A    between atoms: C_1  and  C_2
REMARK    2  A    between atoms: C_5  and  C_6
REMARK    3  A    between atoms: C_6  and  N_7
REMARK    4  A    between atoms: N_7  and  C_8
REMARK    5  A    between atoms: N_11  and  C_12
REMARK    6  A    between atoms: C_16  and  N_17
REMARK                            x       y       z     vdW  Elec       q    Type
REMARK                         _______ _______ _______ _____ _____    ______ ____
ROOT
ATOM      1  N   UNL     1       1.298   9.720  19.456  0.00  0.00    +0.000 N 
ATOM      2  C   UNL     1       1.089   9.540  20.883  0.00  0.00    +0.000 C 
ATOM      3  C   UNL     1       1.702   8.715  18.580  0.00  0.00    +0.000 C 
ATOM      4  O   UNL     1       1.922   8.962  17.394  0.00  0.00    +0.000 OA
ATOM      5  N   UNL     1       1.784   7.455  19.140  0.00  0.00    +0.000 N 
ATOM      6  H   UNL     1       1.236   7.303  19.971  0.00  0.00    +0.000 HD
ENDROOT
BRANCH   5   7
ATOM      7  C   UNL     1       2.322   6.298  18.530  0.00  0.00    +0.000 A 
ATOM      8  C   UNL     1       1.537   5.200  18.183  0.00  0.00    +0.000 A 
ATOM      9  C   UNL     1       2.108   4.100  17.549  0.00  0.00    +0.000 A 
ATOM     10  C   UNL     1       3.472   4.087  17.256  0.00  0.00    +0.000 A 
ATOM     11  C   UNL     1       4.291   5.165  17.601  0.00  0.00    +0.000 A 
ATOM     12  C   UNL     1       3.696   6.276  18.230  0.00  0.00    +0.000 A 
BRANCH  11  13
ATOM     13  N   UNL     1       5.690   5.123  17.359  0.00  0.00    +0.000 N 
ATOM     14  C   UNL     1       6.644   4.664  18.318  0.00  0.00    +0.000 C 
ATOM     15  C   UNL     1       7.896   4.491  17.495  0.00  0.00    +0.000 C 
ATOM     16  O   UNL     1       7.698   5.309  16.344  0.00  0.00    +0.000 OA
ATOM     17  C   UNL     1       6.352   5.553  16.216  0.00  0.00    +0.000 C 
ATOM     18  O   UNL     1       5.895   6.100  15.228  0.00  0.00    +0.000 OA
ENDBRANCH  11  13
ENDBRANCH   5   7
BRANCH   1  19
ATOM     19  C   UNL     1       0.931  11.014  18.878  0.00  0.00    +0.000 C 
BRANCH  19  24
ATOM     20  C   UNL     1      -4.265  11.033  17.703  0.00  0.00    +0.000 C 
ATOM     21  C   UNL     1      -2.918  11.267  18.294  0.00  0.00    +0.000 A 
ATOM     22  N   UNL     1      -2.670  12.123  19.260  0.00  0.00    +0.000 NA
ATOM     23  C   UNL     1      -1.327  12.086  19.583  0.00  0.00    +0.000 A 
ATOM     24  C   UNL     1      -0.551  11.213  18.842  0.00  0.00    +0.000 A 
ATOM     25  S   UNL     1      -1.555  10.389  17.720  0.00  0.00    +0.000 S 
ENDBRANCH  19  24
ENDBRANCH   1  19
TORSDOF 4
ENDMDL
MODEL 8
REMARK VINA RESULT:      -7.3      3.134      9.034
REMARK  Name = 
REMARK  6 active torsions:
REMARK  status: ('A' for Active; 'I' for Inactive)
REMARK    1  A    between atoms: C_1  and  C_2
REMARK    2  A    between atoms: C_5  and  C_6
REMARK    3  A    between atoms: C_6  and  N_7
REMARK    4  A    between atoms: N_7  and  C_8
REMARK    5  A    between atoms: N_11  and  C_12
REMARK    6  A    between atoms: C_16  and  N_17
REMARK                            x       y       z     vdW  Elec       q    Type
REMARK                         _______ _______ _______ _____ _____    ______ ____
ROOT
ATOM      1  N   UNL     1       2.631   7.314  18.699  0.00  0.00    +0.000 N 
ATOM      2  C   UNL     1       2.280   6.603  19.917  0.00  0.00    +0.000 C 
ATOM      3  C   UNL     1       2.119   8.555  18.330  0.00  0.00    +0.000 C 
ATOM      4  O   UNL     1       2.415   9.065  17.248  0.00  0.00    +0.000 OA
ATOM      5  N   UNL     1       1.316   9.157  19.278  0.00  0.00    +0.000 N 
ATOM      6  H   UNL     1       1.448   8.854  20.229  0.00  0.00    +0.000 HD
ENDROOT
BRANCH   5   7
ATOM      7  C   UNL     1       0.541  10.328  19.102  0.00  0.00    +0.000 A 
ATOM      8  C   UNL     1       0.895  11.553  19.664  0.00  0.00    +0.000 A 
ATOM      9  C   UNL     1       0.119  12.684  19.429  0.00  0.00    +0.000 A 
ATOM     10  C   UNL     1      -1.022  12.602  18.629  0.00  0.00    +0.000 A 
ATOM     11  C   UNL     1      -1.414  11.387  18.061  0.00  0.00    +0.000 A 
ATOM     12  C   UNL     1      -0.610  10.254  18.297  0.00  0.00    +0.000 A 
BRANCH  11  13
ATOM     13  N   UNL     1      -2.610  11.292  17.301  0.00  0.00    +0.000 N 
ATOM     14  C   UNL     1      -2.635  11.006  15.902  0.00  0.00    +0.000 C 
ATOM     15  C   UNL     1      -4.086  10.678  15.650  0.00  0.00    +0.000 C 
ATOM     16  O   UNL     1      -4.794  11.278  16.732  0.00  0.00    +0.000 OA
ATOM     17  C   UNL     1      -3.905  11.504  17.754  0.00  0.00    +0.000 C 
ATOM     18  O   UNL     1      -4.279  11.869  18.855  0.00  0.00    +0.000 OA
ENDBRANCH  11  13
ENDBRANCH   5   7
BRANCH   1  19
ATOM     19  C   UNL     1       3.694   6.746  17.869  0.00  0.00    +0.000 C 
BRANCH  19  24
ATOM     20  C   UNL     1       3.600   1.464  18.555  0.00  0.00    +0.000 C 
ATOM     21  C   UNL     1       3.927   2.916  18.577  0.00  0.00    +0.000 A 
ATOM     22  N   UNL     1       4.907   3.445  19.276  0.00  0.00    +0.000 NA
ATOM     23  C   UNL     1       4.946   4.810  19.065  0.00  0.00    +0.000 A 
ATOM     24  C   UNL     1       3.979   5.319  18.218  0.00  0.00    +0.000 A 
ATOM     25  S   UNL     1       3.003   4.028  17.645  0.00  0.00    +0.000 S 
ENDBRANCH  19  24
ENDBRANCH   1  19
TORSDOF 4
ENDMDL
MODEL 9
REMARK VINA RESULT:      -7.2      1.748      2.105
REMARK  Name = 
REMARK  6 active torsions:
REMARK  status: ('A' for Active; 'I' for Inactive)
REMARK    1  A    between atoms: C_1  and  C_2
REMARK    2  A    between atoms: C_5  and  C_6
REMARK    3  A    between atoms: C_6  and  N_7
REMARK    4  A    between atoms: N_7  and  C_8
REMARK    5  A    between atoms: N_11  and  C_12
REMARK    6  A    between atoms: C_16  and  N_17
REMARK                            x       y       z     vdW  Elec       q    Type
REMARK                         _______ _______ _______ _____ _____    ______ ____
ROOT
ATOM      1  N   UNL     1       1.540   8.686  19.914  0.00  0.00    +0.000 N 
ATOM      2  C   UNL     1       1.227   8.779  21.330  0.00  0.00    +0.000 C 
ATOM      3  C   UNL     1       2.136   7.585  19.304  0.00  0.00    +0.000 C 
ATOM      4  O   UNL     1       2.431   7.607  18.108  0.00  0.00    +0.000 OA
ATOM      5  N   UNL     1       2.314   6.491  20.128  0.00  0.00    +0.000 N 
ATOM      6  H   UNL     1       1.716   6.442  20.936  0.00  0.00    +0.000 HD
ENDROOT
BRANCH   5   7
ATOM      7  C   UNL     1       3.037   5.315  19.817  0.00  0.00    +0.000 A 
ATOM      8  C   UNL     1       2.770   4.089  20.424  0.00  0.00    +0.000 A 
ATOM      9  C   UNL     1       3.484   2.953  20.056  0.00  0.00    +0.000 A 
ATOM     10  C   UNL     1       4.475   3.030  19.077  0.00  0.00    +0.000 A 
ATOM     11  C   UNL     1       4.778   4.246  18.458  0.00  0.00    +0.000 A 
ATOM     12  C   UNL     1       4.037   5.384  18.831  0.00  0.00    +0.000 A 
BRANCH  11  13
ATOM     13  N   UNL     1       5.831   4.336  17.507  0.00  0.00    +0.000 N 
ATOM     14  C   UNL     1       5.656   4.095  16.111  0.00  0.00    +0.000 C 
ATOM     15  C   UNL     1       6.930   4.638  15.512  0.00  0.00    +0.000 C 
ATOM     16  O   UNL     1       7.867   4.651  16.587  0.00  0.00    +0.000 OA
ATOM     17  C   UNL     1       7.167   4.609  17.768  0.00  0.00    +0.000 C 
ATOM     18  O   UNL     1       7.721   4.764  18.842  0.00  0.00    +0.000 OA
ENDBRANCH  11  13
ENDBRANCH   5   7
BRANCH   1  19
ATOM     19  C   UNL     1       1.077   9.772  19.048  0.00  0.00    +0.000 C 
BRANCH  19  24
ATOM     20  C   UNL     1      -0.028  14.048  22.026  0.00  0.00    +0.000 C 
ATOM     21  C   UNL     1      -0.085  12.797  21.219  0.00  0.00    +0.000 A 
ATOM     22  N   UNL     1      -1.174  12.086  21.027  0.00  0.00    +0.000 NA
ATOM     23  C   UNL     1      -0.885  10.999  20.225  0.00  0.00    +0.000 A 
ATOM     24  C   UNL     1       0.433  10.875  19.826  0.00  0.00    +0.000 A 
ATOM     25  S   UNL     1       1.334  12.192  20.459  0.00  0.00    +0.000 S 
ENDBRANCH  19  24
ENDBRANCH   1  19
TORSDOF 4
ENDMDL
