MODEL 1
REMARK VINA RESULT:      -6.0      0.000      0.000
REMARK  Name = 
REMARK  8 active torsions:
REMARK  status: ('A' for Active; 'I' for Inactive)
REMARK    1  A    between atoms: C_1  and  C_2
REMARK    2  A    between atoms: N_6  and  C_7
REMARK    3  A    between atoms: C_11  and  N_12
REMARK    4  A    between atoms: N_12  and  C_13
REMARK    5  A    between atoms: N_12  and  C_14
REMARK    6  A    between atoms: C_16  and  N_17
REMARK    7  A    between atoms: N_17  and  C_18
REMARK    8  A    between atoms: N_17  and  C_19
REMARK                            x       y       z     vdW  Elec       q    Type
REMARK                         _______ _______ _______ _____ _____    ______ ____
ROOT
ATOM      1  C   UNL     1      -0.316  10.328  21.853  0.00  0.00    +0.000 C 
ATOM      2  C   UNL     1       0.552   9.475  20.989  0.00  0.00    +0.000 A 
ATOM      3  C   UNL     1       0.885   8.216  21.487  0.00  0.00    +0.000 A 
ATOM      4  N   UNL     1       1.555   7.268  20.826  0.00  0.00    +0.000 NA
ATOM      5  C   UNL     1       1.926   7.591  19.582  0.00  0.00    +0.000 A 
ATOM      6  N   UNL     1       2.543   6.628  18.784  0.00  0.00    +0.000 N 
ATOM      7  N   UNL     1       1.722   8.799  19.041  0.00  0.00    +0.000 NA
ATOM      8  C   UNL     1       1.014   9.765  19.700  0.00  0.00    +0.000 A 
ATOM      9  H   UNL     1       3.531   6.868  18.750  0.00  0.00    +0.000 HD
ENDROOT
BRANCH   6  10
ATOM     10  C   UNL     1       2.240   5.219  19.095  0.00  0.00    +0.000 C 
ATOM     11  C   UNL     1       1.910   4.473  17.790  0.00  0.00    +0.000 C 
ATOM     12  C   UNL     1       3.263   4.108  17.186  0.00  0.00    +0.000 C 
ATOM     13  C   UNL     1       4.281   4.261  18.317  0.00  0.00    +0.000 C 
ATOM     14  C   UNL     1       3.469   4.409  19.629  0.00  0.00    +0.000 C 
BRANCH  14  15
ATOM     15  N   UNL     1       3.108   3.077  20.214  0.00  0.00    +0.000 NA
ATOM     16  C   UNL     1       4.289   2.231  20.446  0.00  0.00    +0.000 C 
ATOM     17  C   UNL     1       2.411   3.230  21.501  0.00  0.00    +0.000 C 
ENDBRANCH  14  15
ENDBRANCH   6  10
BRANCH   8  18
ATOM     18  N   UNL     1       0.781  10.939  19.016  0.00  0.00    +0.000 N 
ATOM     19  C   UNL     1      -0.535  11.144  18.401  0.00  0.00    +0.000 C 
ATOM     20  C   UNL     1       1.687  12.054  18.795  0.00  0.00    +0.000 C 
ENDBRANCH   8  18
TORSDOF 3
ENDMDL
MODEL 2
REMARK VINA RESULT:      -5.6      1.561      7.101
REMARK  Name = 
REMARK  8 active torsions:
REMARK  status: ('A' for Active; 'I' for Inactive)
REMARK    1  A    between atoms: C_1  and  C_2
REMARK    2  A    between atoms: N_6  and  C_7
REMARK    3  A    between atoms: C_11  and  N_12
REMARK    4  A    between atoms: N_12  and  C_13
REMARK    5  A    between atoms: N_12  and  C_14
REMARK    6  A    between atoms: C_16  and  N_17
REMARK    7  A    between atoms: N_17  and  C_18
REMARK    8  A    between atoms: N_17  and  C_19
REMARK                            x       y       z     vdW  Elec       q    Type
REMARK                         _______ _______ _______ _____ _____    ______ ____
ROOT
ATOM      1  C   UNL     1       4.599   4.786  16.736  0.00  0.00    +0.000 C 
ATOM      2  C   UNL     1       3.813   5.727  17.588  0.00  0.00    +0.000 A 
ATOM      3  C   UNL     1       3.971   7.087  17.327  0.00  0.00    +0.000 A 
ATOM      4  N   UNL     1       3.280   8.076  17.900  0.00  0.00    +0.000 NA
ATOM      5  C   UNL     1       2.368   7.692  18.801  0.00  0.00    +0.000 A 
ATOM      6  N   UNL     1       1.533   8.648  19.375  0.00  0.00    +0.000 N 
ATOM      7  N   UNL     1       2.195   6.418  19.177  0.00  0.00    +0.000 NA
ATOM      8  C   UNL     1       2.878   5.398  18.576  0.00  0.00    +0.000 A 
ATOM      9  H   UNL     1       1.871   8.798  20.323  0.00  0.00    +0.000 HD
ENDROOT
BRANCH   6  10
ATOM     10  C   UNL     1       1.285   9.869  18.587  0.00  0.00    +0.000 C 
ATOM     11  C   UNL     1      -0.114   9.786  17.952  0.00  0.00    +0.000 C 
ATOM     12  C   UNL     1      -1.077  10.231  19.049  0.00  0.00    +0.000 C 
ATOM     13  C   UNL     1      -0.218  10.941  20.096  0.00  0.00    +0.000 C 
ATOM     14  C   UNL     1       1.172  11.171  19.451  0.00  0.00    +0.000 C 
BRANCH  14  15
ATOM     15  N   UNL     1       1.212  12.435  18.648  0.00  0.00    +0.000 NA
ATOM     16  C   UNL     1       0.799  13.609  19.433  0.00  0.00    +0.000 C 
ATOM     17  C   UNL     1       2.564  12.699  18.131  0.00  0.00    +0.000 C 
ENDBRANCH  14  15
ENDBRANCH   6  10
BRANCH   8  18
ATOM     18  N   UNL     1       2.557   4.117  18.973  0.00  0.00    +0.000 N 
ATOM     19  C   UNL     1       1.395   3.463  18.361  0.00  0.00    +0.000 C 
ATOM     20  C   UNL     1       3.221   3.280  19.958  0.00  0.00    +0.000 C 
ENDBRANCH   8  18
TORSDOF 3
ENDMDL
MODEL 3
REMARK VINA RESULT:      -5.6      1.247      7.006
REMARK  Name = 
REMARK  8 active torsions:
REMARK  status: ('A' for Active; 'I' for Inactive)
REMARK    1  A    between atoms: C_1  and  C_2
REMARK    2  A    between atoms: N_6  and  C_7
REMARK    3  A    between atoms: C_11  and  N_12
REMARK    4  A    between atoms: N_12  and  C_13
REMARK    5  A    between atoms: N_12  and  C_14
REMARK    6  A    between atoms: C_16  and  N_17
REMARK    7  A    between atoms: N_17  and  C_18
REMARK    8  A    between atoms: N_17  and  C_19
REMARK                            x       y       z     vdW  Elec       q    Type
REMARK                         _______ _______ _______ _____ _____    ______ ____
ROOT
ATOM      1  C   UNL     1       2.729   3.429  17.430  0.00  0.00    +0.000 C 
ATOM      2  C   UNL     1       2.636   4.471  18.496  0.00  0.00    +0.000 A 
ATOM      3  C   UNL     1       2.327   5.765  18.079  0.00  0.00    +0.000 A 
ATOM      4  N   UNL     1       2.092   6.807  18.882  0.00  0.00    +0.000 NA
ATOM      5  C   UNL     1       2.172   6.550  20.192  0.00  0.00    +0.000 A 
ATOM      6  N   UNL     1       1.846   7.553  21.104  0.00  0.00    +0.000 N 
ATOM      7  N   UNL     1       2.537   5.361  20.690  0.00  0.00    +0.000 NA
ATOM      8  C   UNL     1       2.752   4.284  19.878  0.00  0.00    +0.000 A 
ATOM      9  H   UNL     1       2.724   7.894  21.488  0.00  0.00    +0.000 HD
ENDROOT
BRANCH   6  10
ATOM     10  C   UNL     1       0.910   8.592  20.636  0.00  0.00    +0.000 C 
ATOM     11  C   UNL     1      -0.485   8.319  21.227  0.00  0.00    +0.000 C 
ATOM     12  C   UNL     1      -0.445   8.908  22.634  0.00  0.00    +0.000 C 
ATOM     13  C   UNL     1       0.764   9.844  22.660  0.00  0.00    +0.000 C 
ATOM     14  C   UNL     1       1.221  10.024  21.191  0.00  0.00    +0.000 C 
BRANCH  14  15
ATOM     15  N   UNL     1       0.465  11.118  20.501  0.00  0.00    +0.000 NA
ATOM     16  C   UNL     1       0.772  12.445  21.055  0.00  0.00    +0.000 C 
ATOM     17  C   UNL     1       0.770  11.155  19.062  0.00  0.00    +0.000 C 
ENDBRANCH  14  15
ENDBRANCH   6  10
BRANCH   8  18
ATOM     18  N   UNL     1       3.031   3.085  20.499  0.00  0.00    +0.000 N 
ATOM     19  C   UNL     1       2.048   2.535  21.438  0.00  0.00    +0.000 C 
ATOM     20  C   UNL     1       4.211   2.247  20.362  0.00  0.00    +0.000 C 
ENDBRANCH   8  18
TORSDOF 3
ENDMDL
MODEL 4
REMARK VINA RESULT:      -5.6      1.504      7.074
REMARK  Name = 
REMARK  8 active torsions:
REMARK  status: ('A' for Active; 'I' for Inactive)
REMARK    1  A    between atoms: C_1  and  C_2
REMARK    2  A    between atoms: N_6  and  C_7
REMARK    3  A    between atoms: C_11  and  N_12
REMARK    4  A    between atoms: N_12  and  C_13
REMARK    5  A    between atoms: N_12  and  C_14
REMARK    6  A    between atoms: C_16  and  N_17
REMARK    7  A    between atoms: N_17  and  C_18
REMARK    8  A    between atoms: N_17  and  C_19
REMARK                            x       y       z     vdW  Elec       q    Type
REMARK                         _______ _______ _______ _____ _____    ______ ____
ROOT
ATOM      1  C   UNL     1       3.590   4.110  17.596  0.00  0.00    +0.000 C 
ATOM      2  C   UNL     1       3.072   5.303  18.330  0.00  0.00    +0.000 A 
ATOM      3  C   UNL     1       3.381   6.551  17.791  0.00  0.00    +0.000 A 
ATOM      4  N   UNL     1       2.924   7.726  18.233  0.00  0.00    +0.000 NA
ATOM      5  C   UNL     1       2.103   7.661  19.288  0.00  0.00    +0.000 A 
ATOM      6  N   UNL     1       1.499   8.828  19.754  0.00  0.00    +0.000 N 
ATOM      7  N   UNL     1       1.807   6.519  19.923  0.00  0.00    +0.000 NA
ATOM      8  C   UNL     1       2.248   5.311  19.462  0.00  0.00    +0.000 A 
ATOM      9  H   UNL     1       1.986   9.085  20.610  0.00  0.00    +0.000 HD
ENDROOT
BRANCH   6  10
ATOM     10  C   UNL     1       1.318   9.915  18.774  0.00  0.00    +0.000 C 
ATOM     11  C   UNL     1      -0.005   9.698  18.018  0.00  0.00    +0.000 C 
ATOM     12  C   UNL     1      -1.086  10.266  18.934  0.00  0.00    +0.000 C 
ATOM     13  C   UNL     1      -0.353  11.145  19.949  0.00  0.00    +0.000 C 
ATOM     14  C   UNL     1       1.093  11.323  19.422  0.00  0.00    +0.000 C 
BRANCH  14  15
ATOM     15  N   UNL     1       1.198  12.459  18.451  0.00  0.00    +0.000 NA
ATOM     16  C   UNL     1       0.489  13.660  18.919  0.00  0.00    +0.000 C 
ATOM     17  C   UNL     1       2.601  12.835  18.216  0.00  0.00    +0.000 C 
ENDBRANCH  14  15
ENDBRANCH   6  10
BRANCH   8  18
ATOM     18  N   UNL     1       1.809   4.191  20.135  0.00  0.00    +0.000 N 
ATOM     19  C   UNL     1       2.348   3.919  21.472  0.00  0.00    +0.000 C 
ATOM     20  C   UNL     1       0.854   3.187  19.696  0.00  0.00    +0.000 C 
ENDBRANCH   8  18
TORSDOF 3
ENDMDL
MODEL 5
REMARK VINA RESULT:      -5.5      0.858      1.204
REMARK  Name = 
REMARK  8 active torsions:
REMARK  status: ('A' for Active; 'I' for Inactive)
REMARK    1  A    between atoms: C_1  and  C_2
REMARK    2  A    between atoms: N_6  and  C_7
REMARK    3  A    between atoms: C_11  and  N_12
REMARK    4  A    between atoms: N_12  and  C_13
REMARK    5  A    between atoms: N_12  and  C_14
REMARK    6  A    between atoms: C_16  and  N_17
REMARK    7  A    between atoms: N_17  and  C_18
REMARK    8  A    between atoms: N_17  and  C_19
REMARK                            x       y       z     vdW  Elec       q    Type
REMARK                         _______ _______ _______ _____ _____    ______ ____
ROOT
ATOM      1  C   UNL     1      -0.247  10.020  21.754  0.00  0.00    +0.000 C 
ATOM      2  C   UNL     1       0.679   9.151  20.968  0.00  0.00    +0.000 A 
ATOM      3  C   UNL     1       1.095   7.969  21.578  0.00  0.00    +0.000 A 
ATOM      4  N   UNL     1       1.830   7.012  21.003  0.00  0.00    +0.000 NA
ATOM      5  C   UNL     1       2.182   7.245  19.734  0.00  0.00    +0.000 A 
ATOM      6  N   UNL     1       2.864   6.258  19.025  0.00  0.00    +0.000 N 
ATOM      7  N   UNL     1       1.898   8.382  19.086  0.00  0.00    +0.000 NA
ATOM      8  C   UNL     1       1.125   9.354  19.657  0.00  0.00    +0.000 A 
ATOM      9  H   UNL     1       3.834   6.559  18.966  0.00  0.00    +0.000 HD
ENDROOT
BRANCH   6  10
ATOM     10  C   UNL     1       2.656   4.865  19.464  0.00  0.00    +0.000 C 
ATOM     11  C   UNL     1       1.238   4.417  19.068  0.00  0.00    +0.000 C 
ATOM     12  C   UNL     1       1.345   3.999  17.604  0.00  0.00    +0.000 C 
ATOM     13  C   UNL     1       2.839   3.813  17.332  0.00  0.00    +0.000 C 
ATOM     14  C   UNL     1       3.548   3.822  18.709  0.00  0.00    +0.000 C 
BRANCH  14  15
ATOM     15  N   UNL     1       3.556   2.463  19.341  0.00  0.00    +0.000 NA
ATOM     16  C   UNL     1       3.683   1.386  18.347  0.00  0.00    +0.000 C 
ATOM     17  C   UNL     1       4.667   2.322  20.294  0.00  0.00    +0.000 C 
ENDBRANCH  14  15
ENDBRANCH   6  10
BRANCH   8  18
ATOM     18  N   UNL     1       0.815  10.443  18.870  0.00  0.00    +0.000 N 
ATOM     19  C   UNL     1      -0.421  10.410  18.081  0.00  0.00    +0.000 C 
ATOM     20  C   UNL     1       1.567  11.673  18.689  0.00  0.00    +0.000 C 
ENDBRANCH   8  18
TORSDOF 3
ENDMDL
MODEL 6
REMARK VINA RESULT:      -5.5      1.340      6.956
REMARK  Name = 
REMARK  8 active torsions:
REMARK  status: ('A' for Active; 'I' for Inactive)
REMARK    1  A    between atoms: C_1  and  C_2
REMARK    2  A    between atoms: N_6  and  C_7
REMARK    3  A    between atoms: C_11  and  N_12
REMARK    4  A    between atoms: N_12  and  C_13
REMARK    5  A    between atoms: N_12  and  C_14
REMARK    6  A    between atoms: C_16  and  N_17
REMARK    7  A    between atoms: N_17  and  C_18
REMARK    8  A    between atoms: N_17  and  C_19
REMARK                            x       y       z     vdW  Elec       q    Type
REMARK                         _______ _______ _______ _____ _____    ______ ____
ROOT
ATOM      1  C   UNL     1       3.844   4.344  16.956  0.00  0.00    +0.000 C 
ATOM      2  C   UNL     1       3.322   5.037  18.171  0.00  0.00    +0.000 A 
ATOM      3  C   UNL     1       3.111   6.411  18.064  0.00  0.00    +0.000 A 
ATOM      4  N   UNL     1       2.551   7.188  18.996  0.00  0.00    +0.000 NA
ATOM      5  C   UNL     1       2.175   6.560  20.115  0.00  0.00    +0.000 A 
ATOM      6  N   UNL     1       1.492   7.273  21.099  0.00  0.00    +0.000 N 
ATOM      7  N   UNL     1       2.404   5.260  20.345  0.00  0.00    +0.000 NA
ATOM      8  C   UNL     1       2.951   4.453  19.388  0.00  0.00    +0.000 A 
ATOM      9  H   UNL     1       2.157   7.441  21.851  0.00  0.00    +0.000 HD
ENDROOT
BRANCH   6  10
ATOM     10  C   UNL     1       0.727   8.451  20.651  0.00  0.00    +0.000 C 
ATOM     11  C   UNL     1      -0.636   8.471  21.366  0.00  0.00    +0.000 C 
ATOM     12  C   UNL     1      -0.362   9.097  22.731  0.00  0.00    +0.000 C 
ATOM     13  C   UNL     1       0.998   9.787  22.608  0.00  0.00    +0.000 C 
ATOM     14  C   UNL     1       1.347   9.818  21.099  0.00  0.00    +0.000 C 
BRANCH  14  15
ATOM     15  N   UNL     1       0.748  11.008  20.412  0.00  0.00    +0.000 NA
ATOM     16  C   UNL     1       1.388  12.268  20.818  0.00  0.00    +0.000 C 
ATOM     17  C   UNL     1       0.869  10.899  18.949  0.00  0.00    +0.000 C 
ENDBRANCH  14  15
ENDBRANCH   6  10
BRANCH   8  18
ATOM     18  N   UNL     1       3.058   3.113  19.693  0.00  0.00    +0.000 N 
ATOM     19  C   UNL     1       4.352   2.598  20.154  0.00  0.00    +0.000 C 
ATOM     20  C   UNL     1       2.036   2.082  19.615  0.00  0.00    +0.000 C 
ENDBRANCH   8  18
TORSDOF 3
ENDMDL
MODEL 7
REMARK VINA RESULT:      -5.4      1.740      3.421
REMARK  Name = 
REMARK  8 active torsions:
REMARK  status: ('A' for Active; 'I' for Inactive)
REMARK    1  A    between atoms: C_1  and  C_2
REMARK    2  A    between atoms: N_6  and  C_7
REMARK    3  A    between atoms: C_11  and  N_12
REMARK    4  A    between atoms: N_12  and  C_13
REMARK    5  A    between atoms: N_12  and  C_14
REMARK    6  A    between atoms: C_16  and  N_17
REMARK    7  A    between atoms: N_17  and  C_18
REMARK    8  A    between atoms: N_17  and  C_19
REMARK                            x       y       z     vdW  Elec       q    Type
REMARK                         _______ _______ _______ _____ _____    ______ ____
ROOT
ATOM      1  C   UNL     1       1.548  10.070  18.740  0.00  0.00    +0.000 C 
ATOM      2  C   UNL     1       1.785   8.643  19.112  0.00  0.00    +0.000 A 
ATOM      3  C   UNL     1       2.444   7.854  18.170  0.00  0.00    +0.000 A 
ATOM      4  N   UNL     1       2.845   6.593  18.354  0.00  0.00    +0.000 NA
ATOM      5  C   UNL     1       2.570   6.074  19.556  0.00  0.00    +0.000 A 
ATOM      6  N   UNL     1       3.039   4.799  19.871  0.00  0.00    +0.000 N 
ATOM      7  N   UNL     1       1.875   6.723  20.499  0.00  0.00    +0.000 NA
ATOM      8  C   UNL     1       1.485   8.022  20.330  0.00  0.00    +0.000 A 
ATOM      9  H   UNL     1       2.237   4.175  19.823  0.00  0.00    +0.000 HD
ENDROOT
BRANCH   6  10
ATOM     10  C   UNL     1       4.244   4.343  19.155  0.00  0.00    +0.000 C 
ATOM     11  C   UNL     1       4.522   2.873  19.519  0.00  0.00    +0.000 C 
ATOM     12  C   UNL     1       3.606   2.057  18.612  0.00  0.00    +0.000 C 
ATOM     13  C   UNL     1       3.164   3.009  17.499  0.00  0.00    +0.000 C 
ATOM     14  C   UNL     1       4.069   4.263  17.601  0.00  0.00    +0.000 C 
BRANCH  14  15
ATOM     15  N   UNL     1       5.356   4.084  16.855  0.00  0.00    +0.000 NA
ATOM     16  C   UNL     1       5.195   4.288  15.407  0.00  0.00    +0.000 C 
ATOM     17  C   UNL     1       6.383   5.027  17.325  0.00  0.00    +0.000 C 
ENDBRANCH  14  15
ENDBRANCH   6  10
BRANCH   8  18
ATOM     18  N   UNL     1       0.857   8.626  21.398  0.00  0.00    +0.000 N 
ATOM     19  C   UNL     1      -0.604   8.546  21.490  0.00  0.00    +0.000 C 
ATOM     20  C   UNL     1       1.452   9.373  22.495  0.00  0.00    +0.000 C 
ENDBRANCH   8  18
TORSDOF 3
ENDMDL
MODEL 8
REMARK VINA RESULT:      -5.3      1.129      1.550
REMARK  Name = 
REMARK  8 active torsions:
REMARK  status: ('A' for Active; 'I' for Inactive)
REMARK    1  A    between atoms: C_1  and  C_2
REMARK    2  A    between atoms: N_6  and  C_7
REMARK    3  A    between atoms: C_11  and  N_12
REMARK    4  A    between atoms: N_12  and  C_13
REMARK    5  A    between atoms: N_12  and  C_14
REMARK    6  A    between atoms: C_16  and  N_17
REMARK    7  A    between atoms: N_17  and  C_18
REMARK    8  A    between atoms: N_17  and  C_19
REMARK                            x       y       z     vdW  Elec       q    Type
REMARK                         _______ _______ _______ _____ _____    ______ ____
ROOT
ATOM      1  C   UNL     1      -0.170   8.681  21.880  0.00  0.00    +0.000 C 
ATOM      2  C   UNL     1       0.818   8.255  20.845  0.00  0.00    +0.000 A 
ATOM      3  C   UNL     1       1.409   7.004  21.022  0.00  0.00    +0.000 A 
ATOM      4  N   UNL     1       2.228   6.400  20.157  0.00  0.00    +0.000 NA
ATOM      5  C   UNL     1       2.485   7.085  19.037  0.00  0.00    +0.000 A 
ATOM      6  N   UNL     1       3.250   6.490  18.035  0.00  0.00    +0.000 N 
ATOM      7  N   UNL     1       2.029   8.324  18.809  0.00  0.00    +0.000 NA
ATOM      8  C   UNL     1       1.169   8.938  19.675  0.00  0.00    +0.000 A 
ATOM      9  H   UNL     1       4.170   6.922  18.077  0.00  0.00    +0.000 HD
ENDROOT
BRANCH   6  10
ATOM     10  C   UNL     1       3.241   5.017  17.984  0.00  0.00    +0.000 C 
ATOM     11  C   UNL     1       4.083   4.547  16.784  0.00  0.00    +0.000 C 
ATOM     12  C   UNL     1       5.528   4.578  17.274  0.00  0.00    +0.000 C 
ATOM     13  C   UNL     1       5.450   4.641  18.800  0.00  0.00    +0.000 C 
ATOM     14  C   UNL     1       3.981   4.334  19.184  0.00  0.00    +0.000 C 
BRANCH  14  15
ATOM     15  N   UNL     1       3.728   2.861  19.292  0.00  0.00    +0.000 NA
ATOM     16  C   UNL     1       4.522   2.236  20.361  0.00  0.00    +0.000 C 
ATOM     17  C   UNL     1       2.310   2.580  19.568  0.00  0.00    +0.000 C 
ENDBRANCH  14  15
ENDBRANCH   6  10
BRANCH   8  18
ATOM     18  N   UNL     1       0.687  10.174  19.300  0.00  0.00    +0.000 N 
ATOM     19  C   UNL     1       1.410  11.373  19.737  0.00  0.00    +0.000 C 
ATOM     20  C   UNL     1      -0.490  10.484  18.505  0.00  0.00    +0.000 C 
ENDBRANCH   8  18
TORSDOF 3
ENDMDL
MODEL 9
REMARK VINA RESULT:      -5.3      1.842      3.481
REMARK  Name = 
REMARK  8 active torsions:
REMARK  status: ('A' for Active; 'I' for Inactive)
REMARK    1  A    between atoms: C_1  and  C_2
REMARK    2  A    between atoms: N_6  and  C_7
REMARK    3  A    between atoms: C_11  and  N_12
REMARK    4  A    between atoms: N_12  and  C_13
REMARK    5  A    between atoms: N_12  and  C_14
REMARK    6  A    between atoms: C_16  and  N_17
REMARK    7  A    between atoms: N_17  and  C_18
REMARK    8  A    between atoms: N_17  and  C_19
REMARK                            x       y       z     vdW  Elec       q    Type
REMARK                         _______ _______ _______ _____ _____    ______ ____
ROOT
ATOM      1  C   UNL     1       1.288  11.050  18.504  0.00  0.00    +0.000 C 
ATOM      2  C   UNL     1       1.610   9.623  18.803  0.00  0.00    +0.000 A 
ATOM      3  C   UNL     1       2.361   8.938  17.848  0.00  0.00    +0.000 A 
ATOM      4  N   UNL     1       2.841   7.698  17.977  0.00  0.00    +0.000 NA
ATOM      5  C   UNL     1       2.554   7.090  19.133  0.00  0.00    +0.000 A 
ATOM      6  N   UNL     1       3.098   5.833  19.394  0.00  0.00    +0.000 N 
ATOM      7  N   UNL     1       1.777   7.632  20.079  0.00  0.00    +0.000 NA
ATOM      8  C   UNL     1       1.304   8.909  19.968  0.00  0.00    +0.000 A 
ATOM      9  H   UNL     1       2.345   5.160  19.274  0.00  0.00    +0.000 HD
ENDROOT
BRANCH   6  10
ATOM     10  C   UNL     1       4.361   5.504  18.709  0.00  0.00    +0.000 C 
ATOM     11  C   UNL     1       5.042   4.333  19.440  0.00  0.00    +0.000 C 
ATOM     12  C   UNL     1       4.359   3.077  18.905  0.00  0.00    +0.000 C 
ATOM     13  C   UNL     1       3.641   3.506  17.624  0.00  0.00    +0.000 C 
ATOM     14  C   UNL     1       4.169   4.919  17.269  0.00  0.00    +0.000 C 
BRANCH  14  15
ATOM     15  N   UNL     1       5.434   4.856  16.468  0.00  0.00    +0.000 NA
ATOM     16  C   UNL     1       5.192   4.450  15.074  0.00  0.00    +0.000 C 
ATOM     17  C   UNL     1       6.115   6.160  16.439  0.00  0.00    +0.000 C 
ENDBRANCH  14  15
ENDBRANCH   6  10
BRANCH   8  18
ATOM     18  N   UNL     1       0.592   9.404  21.040  0.00  0.00    +0.000 N 
ATOM     19  C   UNL     1       1.124   9.198  22.391  0.00  0.00    +0.000 C 
ATOM     20  C   UNL     1      -0.670  10.125  21.034  0.00  0.00    +0.000 C 
ENDBRANCH   8  18
TORSDOF 3
ENDMDL
