MODEL 1
REMARK VINA RESULT:      -8.6      0.000      0.000
REMARK  Name = 
REMARK  4 active torsions:
REMARK  status: ('A' for Active; 'I' for Inactive)
REMARK    1  A    between atoms: C_7  and  N_8
REMARK    2  A    between atoms: N_8  and  S_9
REMARK    3  A    between atoms: S_9  and  C_12
REMARK    4  A    between atoms: N_21  and  C_22
REMARK                            x       y       z     vdW  Elec       q    Type
REMARK                         _______ _______ _______ _____ _____    ______ ____
ROOT
ATOM      1  O   UNL     1       4.271   2.214  19.399  0.00  0.00    +0.000 OA
ATOM      2  C   UNL     1       3.666   3.271  19.573  0.00  0.00    +0.000 C 
ATOM      3  N   UNL     1       2.714   3.316  20.557  0.00  0.00    +0.000 N 
ATOM      4  C   UNL     1       2.449   4.539  21.256  0.00  0.00    +0.000 C 
ATOM      5  C   UNL     1       2.399   5.700  20.319  0.00  0.00    +0.000 A 
ATOM      6  C   UNL     1       1.706   6.864  20.670  0.00  0.00    +0.000 A 
ATOM      7  C   UNL     1       1.693   7.956  19.807  0.00  0.00    +0.000 A 
ATOM      8  C   UNL     1       2.368   7.894  18.592  0.00  0.00    +0.000 A 
ATOM      9  C   UNL     1       3.086   6.741  18.252  0.00  0.00    +0.000 A 
ATOM     10  C   UNL     1       3.130   5.640  19.124  0.00  0.00    +0.000 A 
ATOM     11  N   UNL     1       3.866   4.448  18.851  0.00  0.00    +0.000 N 
ATOM     12  H   UNL     1       2.655   2.449  21.071  0.00  0.00    +0.000 HD
ENDROOT
BRANCH  11  13
ATOM     13  C   UNL     1       4.879   4.464  17.842  0.00  0.00    +0.000 A 
ATOM     14  C   UNL     1       4.625   3.940  16.558  0.00  0.00    +0.000 A 
ATOM     15 CL   UNL     1       3.032   3.497  16.039  0.00  0.00    +0.000 Cl
ATOM     16  C   UNL     1       5.650   3.841  15.609  0.00  0.00    +0.000 A 
ATOM     17  C   UNL     1       6.935   4.281  15.912  0.00  0.00    +0.000 A 
ATOM     18  C   UNL     1       7.201   4.825  17.165  0.00  0.00    +0.000 A 
ATOM     19  C   UNL     1       6.189   4.905  18.130  0.00  0.00    +0.000 A 
ATOM     20 CL   UNL     1       6.659   5.494  19.693  0.00  0.00    +0.000 Cl
ENDBRANCH  11  13
BRANCH   7  21
ATOM     21  N   UNL     1       0.958   9.109  20.187  0.00  0.00    +0.000 N 
ATOM     22  H   UNL     1       0.307   9.504  19.509  0.00  0.00    +0.000 HD
BRANCH  21  23
ATOM     23  S   UNL     1       0.345   9.196  21.758  0.00  0.00    +0.000 S 
ATOM     24  O   UNL     1      -0.605   8.108  21.870  0.00  0.00    +0.000 OA
ATOM     25  O   UNL     1       1.446   9.319  22.688  0.00  0.00    +0.000 OA
BRANCH  23  26
ATOM     26  C   UNL     1      -0.572  10.717  21.752  0.00  0.00    +0.000 A 
ATOM     27  C   UNL     1      -0.763  11.407  20.551  0.00  0.00    +0.000 A 
ATOM     28  C   UNL     1      -1.494  12.598  20.552  0.00  0.00    +0.000 A 
ATOM     29  C   UNL     1      -2.032  13.088  21.743  0.00  0.00    +0.000 A 
ATOM     30  C   UNL     1      -1.856  12.384  22.936  0.00  0.00    +0.000 A 
ATOM     31  C   UNL     1      -1.135  11.190  22.942  0.00  0.00    +0.000 A 
ENDBRANCH  23  26
ENDBRANCH  21  23
ENDBRANCH   7  21
TORSDOF 4
ENDMDL
MODEL 2
REMARK VINA RESULT:      -8.6      0.117      1.708
REMARK  Name = 
REMARK  4 active torsions:
REMARK  status: ('A' for Active; 'I' for Inactive)
REMARK    1  A    between atoms: C_7  and  N_8
REMARK    2  A    between atoms: N_8  and  S_9
REMARK    3  A    between atoms: S_9  and  C_12
REMARK    4  A    between atoms: N_21  and  C_22
REMARK                            x       y       z     vdW  Elec       q    Type
REMARK                         _______ _______ _______ _____ _____    ______ ____
ROOT
ATOM      1  O   UNL     1       4.287   2.160  19.481  0.00  0.00    +0.000 OA
ATOM      2  C   UNL     1       3.685   3.222  19.641  0.00  0.00    +0.000 C 
ATOM      3  N   UNL     1       2.741   3.286  20.632  0.00  0.00    +0.000 N 
ATOM      4  C   UNL     1       2.484   4.522  21.310  0.00  0.00    +0.000 C 
ATOM      5  C   UNL     1       2.427   5.665  20.353  0.00  0.00    +0.000 A 
ATOM      6  C   UNL     1       1.739   6.837  20.687  0.00  0.00    +0.000 A 
ATOM      7  C   UNL     1       1.721   7.913  19.805  0.00  0.00    +0.000 A 
ATOM      8  C   UNL     1       2.386   7.828  18.586  0.00  0.00    +0.000 A 
ATOM      9  C   UNL     1       3.099   6.667  18.261  0.00  0.00    +0.000 A 
ATOM     10  C   UNL     1       3.149   5.583  19.153  0.00  0.00    +0.000 A 
ATOM     11  N   UNL     1       3.881   4.385  18.896  0.00  0.00    +0.000 N 
ATOM     12  H   UNL     1       2.684   2.428  21.162  0.00  0.00    +0.000 HD
ENDROOT
BRANCH  11  13
ATOM     13  C   UNL     1       4.886   4.381  17.879  0.00  0.00    +0.000 A 
ATOM     14  C   UNL     1       6.155   4.948  18.118  0.00  0.00    +0.000 A 
ATOM     15 CL   UNL     1       6.666   5.435  19.701  0.00  0.00    +0.000 Cl
ATOM     16  C   UNL     1       7.097   5.056  17.088  0.00  0.00    +0.000 A 
ATOM     17  C   UNL     1       6.802   4.585  15.812  0.00  0.00    +0.000 A 
ATOM     18  C   UNL     1       5.565   3.998  15.561  0.00  0.00    +0.000 A 
ATOM     19  C   UNL     1       4.606   3.907  16.578  0.00  0.00    +0.000 A 
ATOM     20 CL   UNL     1       3.061   3.263  16.126  0.00  0.00    +0.000 Cl
ENDBRANCH  11  13
BRANCH   7  21
ATOM     21  N   UNL     1       0.991   9.074  20.169  0.00  0.00    +0.000 N 
ATOM     22  H   UNL     1       0.343   9.464  19.485  0.00  0.00    +0.000 HD
BRANCH  21  23
ATOM     23  S   UNL     1       0.373   9.183  21.738  0.00  0.00    +0.000 S 
ATOM     24  O   UNL     1      -0.581   8.100  21.860  0.00  0.00    +0.000 OA
ATOM     25  O   UNL     1       1.473   9.312  22.669  0.00  0.00    +0.000 OA
BRANCH  23  26
ATOM     26  C   UNL     1      -0.537  10.707  21.711  0.00  0.00    +0.000 A 
ATOM     27  C   UNL     1      -0.711  11.391  20.504  0.00  0.00    +0.000 A 
ATOM     28  C   UNL     1      -1.436  12.584  20.488  0.00  0.00    +0.000 A 
ATOM     29  C   UNL     1      -1.987  13.084  21.670  0.00  0.00    +0.000 A 
ATOM     30  C   UNL     1      -1.828  12.387  22.869  0.00  0.00    +0.000 A 
ATOM     31  C   UNL     1      -1.112  11.190  22.892  0.00  0.00    +0.000 A 
ENDBRANCH  23  26
ENDBRANCH  21  23
ENDBRANCH   7  21
TORSDOF 4
ENDMDL
MODEL 3
REMARK VINA RESULT:      -8.4      1.974      2.997
REMARK  Name = 
REMARK  4 active torsions:
REMARK  status: ('A' for Active; 'I' for Inactive)
REMARK    1  A    between atoms: C_7  and  N_8
REMARK    2  A    between atoms: N_8  and  S_9
REMARK    3  A    between atoms: S_9  and  C_12
REMARK    4  A    between atoms: N_21  and  C_22
REMARK                            x       y       z     vdW  Elec       q    Type
REMARK                         _______ _______ _______ _____ _____    ______ ____
ROOT
ATOM      1  O   UNL     1       4.298   2.229  19.573  0.00  0.00    +0.000 OA
ATOM      2  C   UNL     1       3.706   3.304  19.672  0.00  0.00    +0.000 C 
ATOM      3  N   UNL     1       2.745   3.424  20.641  0.00  0.00    +0.000 N 
ATOM      4  C   UNL     1       2.489   4.692  21.256  0.00  0.00    +0.000 C 
ATOM      5  C   UNL     1       2.462   5.790  20.247  0.00  0.00    +0.000 A 
ATOM      6  C   UNL     1       1.781   6.983  20.514  0.00  0.00    +0.000 A 
ATOM      7  C   UNL     1       1.792   8.017  19.583  0.00  0.00    +0.000 A 
ATOM      8  C   UNL     1       2.477   7.869  18.381  0.00  0.00    +0.000 A 
ATOM      9  C   UNL     1       3.183   6.687  18.124  0.00  0.00    +0.000 A 
ATOM     10  C   UNL     1       3.205   5.645  19.066  0.00  0.00    +0.000 A 
ATOM     11  N   UNL     1       3.928   4.428  18.878  0.00  0.00    +0.000 N 
ATOM     12  H   UNL     1       2.669   2.592  21.209  0.00  0.00    +0.000 HD
ENDROOT
BRANCH  11  13
ATOM     13  C   UNL     1       4.951   4.367  17.881  0.00  0.00    +0.000 A 
ATOM     14  C   UNL     1       6.230   4.909  18.126  0.00  0.00    +0.000 A 
ATOM     15 CL   UNL     1       6.723   5.434  19.702  0.00  0.00    +0.000 Cl
ATOM     16  C   UNL     1       7.192   4.962  17.111  0.00  0.00    +0.000 A 
ATOM     17  C   UNL     1       6.909   4.457  15.846  0.00  0.00    +0.000 A 
ATOM     18  C   UNL     1       5.662   3.893  15.590  0.00  0.00    +0.000 A 
ATOM     19  C   UNL     1       4.683   3.859  16.591  0.00  0.00    +0.000 A 
ATOM     20 CL   UNL     1       3.130   3.239  16.130  0.00  0.00    +0.000 Cl
ENDBRANCH  11  13
BRANCH   7  21
ATOM     21  N   UNL     1       1.068   9.201  19.880  0.00  0.00    +0.000 N 
ATOM     22  H   UNL     1       1.135   9.577  20.825  0.00  0.00    +0.000 HD
BRANCH  21  23
ATOM     23  S   UNL     1       1.024  10.434  18.726  0.00  0.00    +0.000 S 
ATOM     24  O   UNL     1       1.461  11.631  19.413  0.00  0.00    +0.000 OA
ATOM     25  O   UNL     1       1.693   9.980  17.526  0.00  0.00    +0.000 OA
BRANCH  23  26
ATOM     26  C   UNL     1      -0.710  10.608  18.384  0.00  0.00    +0.000 A 
ATOM     27  C   UNL     1      -1.452  11.594  19.043  0.00  0.00    +0.000 A 
ATOM     28  C   UNL     1      -2.813  11.732  18.762  0.00  0.00    +0.000 A 
ATOM     29  C   UNL     1      -3.423  10.895  17.825  0.00  0.00    +0.000 A 
ATOM     30  C   UNL     1      -2.674   9.927  17.155  0.00  0.00    +0.000 A 
ATOM     31  C   UNL     1      -1.311   9.787  17.423  0.00  0.00    +0.000 A 
ENDBRANCH  23  26
ENDBRANCH  21  23
ENDBRANCH   7  21
TORSDOF 4
ENDMDL
MODEL 4
REMARK VINA RESULT:      -8.2      1.900      2.308
REMARK  Name = 
REMARK  4 active torsions:
REMARK  status: ('A' for Active; 'I' for Inactive)
REMARK    1  A    between atoms: C_7  and  N_8
REMARK    2  A    between atoms: N_8  and  S_9
REMARK    3  A    between atoms: S_9  and  C_12
REMARK    4  A    between atoms: N_21  and  C_22
REMARK                            x       y       z     vdW  Elec       q    Type
REMARK                         _______ _______ _______ _____ _____    ______ ____
ROOT
ATOM      1  O   UNL     1       4.194   2.248  19.321  0.00  0.00    +0.000 OA
ATOM      2  C   UNL     1       3.608   3.317  19.495  0.00  0.00    +0.000 C 
ATOM      3  N   UNL     1       2.654   3.377  20.476  0.00  0.00    +0.000 N 
ATOM      4  C   UNL     1       2.408   4.603  21.176  0.00  0.00    +0.000 C 
ATOM      5  C   UNL     1       2.381   5.766  20.241  0.00  0.00    +0.000 A 
ATOM      6  C   UNL     1       1.708   6.942  20.591  0.00  0.00    +0.000 A 
ATOM      7  C   UNL     1       1.718   8.035  19.730  0.00  0.00    +0.000 A 
ATOM      8  C   UNL     1       2.396   7.963  18.517  0.00  0.00    +0.000 A 
ATOM      9  C   UNL     1       3.094   6.798  18.177  0.00  0.00    +0.000 A 
ATOM     10  C   UNL     1       3.115   5.695  19.048  0.00  0.00    +0.000 A 
ATOM     11  N   UNL     1       3.831   4.490  18.776  0.00  0.00    +0.000 N 
ATOM     12  H   UNL     1       2.577   2.510  20.989  0.00  0.00    +0.000 HD
ENDROOT
BRANCH  11  13
ATOM     13  C   UNL     1       4.847   4.490  17.770  0.00  0.00    +0.000 A 
ATOM     14  C   UNL     1       4.598   3.945  16.493  0.00  0.00    +0.000 A 
ATOM     15 CL   UNL     1       3.006   3.493  15.977  0.00  0.00    +0.000 Cl
ATOM     16  C   UNL     1       5.626   3.830  15.550  0.00  0.00    +0.000 A 
ATOM     17  C   UNL     1       6.910   4.275  15.850  0.00  0.00    +0.000 A 
ATOM     18  C   UNL     1       7.171   4.840  17.095  0.00  0.00    +0.000 A 
ATOM     19  C   UNL     1       6.157   4.936  18.055  0.00  0.00    +0.000 A 
ATOM     20 CL   UNL     1       6.621   5.550  19.609  0.00  0.00    +0.000 Cl
ENDBRANCH  11  13
BRANCH   7  21
ATOM     21  N   UNL     1       1.003   9.200  20.109  0.00  0.00    +0.000 N 
ATOM     22  H   UNL     1       1.042   9.488  21.086  0.00  0.00    +0.000 HD
BRANCH  21  23
ATOM     23  S   UNL     1       1.018  10.533  19.072  0.00  0.00    +0.000 S 
ATOM     24  O   UNL     1       1.273  11.683  19.914  0.00  0.00    +0.000 OA
ATOM     25  O   UNL     1       1.868  10.239  17.939  0.00  0.00    +0.000 OA
BRANCH  23  26
ATOM     26  C   UNL     1      -0.665  10.633  18.514  0.00  0.00    +0.000 A 
ATOM     27  C   UNL     1      -1.105   9.799  17.481  0.00  0.00    +0.000 A 
ATOM     28  C   UNL     1      -2.432   9.876  17.054  0.00  0.00    +0.000 A 
ATOM     29  C   UNL     1      -3.311  10.775  17.660  0.00  0.00    +0.000 A 
ATOM     30  C   UNL     1      -2.873  11.591  18.705  0.00  0.00    +0.000 A 
ATOM     31  C   UNL     1      -1.551  11.515  19.143  0.00  0.00    +0.000 A 
ENDBRANCH  23  26
ENDBRANCH  21  23
ENDBRANCH   7  21
TORSDOF 4
ENDMDL
MODEL 5
REMARK VINA RESULT:      -8.2      3.659      7.956
REMARK  Name = 
REMARK  4 active torsions:
REMARK  status: ('A' for Active; 'I' for Inactive)
REMARK    1  A    between atoms: C_7  and  N_8
REMARK    2  A    between atoms: N_8  and  S_9
REMARK    3  A    between atoms: S_9  and  C_12
REMARK    4  A    between atoms: N_21  and  C_22
REMARK                            x       y       z     vdW  Elec       q    Type
REMARK                         _______ _______ _______ _____ _____    ______ ____
ROOT
ATOM      1  O   UNL     1      -0.055  11.090  22.356  0.00  0.00    +0.000 OA
ATOM      2  C   UNL     1       0.525  10.210  21.721  0.00  0.00    +0.000 C 
ATOM      3  N   UNL     1       0.965   9.106  22.401  0.00  0.00    +0.000 N 
ATOM      4  C   UNL     1       1.033   7.831  21.751  0.00  0.00    +0.000 C 
ATOM      5  C   UNL     1       1.599   7.953  20.375  0.00  0.00    +0.000 A 
ATOM      6  C   UNL     1       2.194   6.850  19.753  0.00  0.00    +0.000 A 
ATOM      7  C   UNL     1       2.687   6.961  18.456  0.00  0.00    +0.000 A 
ATOM      8  C   UNL     1       2.592   8.169  17.774  0.00  0.00    +0.000 A 
ATOM      9  C   UNL     1       1.971   9.266  18.384  0.00  0.00    +0.000 A 
ATOM     10  C   UNL     1       1.445   9.162  19.682  0.00  0.00    +0.000 A 
ATOM     11  N   UNL     1       0.775  10.232  20.349  0.00  0.00    +0.000 N 
ATOM     12  H   UNL     1       0.709   9.132  23.378  0.00  0.00    +0.000 HD
ENDROOT
BRANCH  11  13
ATOM     13  C   UNL     1       0.297  11.344  19.587  0.00  0.00    +0.000 A 
ATOM     14  C   UNL     1      -0.818  11.206  18.734  0.00  0.00    +0.000 A 
ATOM     15 CL   UNL     1      -1.823   9.794  18.749  0.00  0.00    +0.000 Cl
ATOM     16  C   UNL     1      -1.212  12.255  17.895  0.00  0.00    +0.000 A 
ATOM     17  C   UNL     1      -0.521  13.463  17.906  0.00  0.00    +0.000 A 
ATOM     18  C   UNL     1       0.565  13.629  18.760  0.00  0.00    +0.000 A 
ATOM     19  C   UNL     1       0.984  12.578  19.584  0.00  0.00    +0.000 A 
ATOM     20 CL   UNL     1       2.417  12.856  20.522  0.00  0.00    +0.000 Cl
ENDBRANCH  11  13
BRANCH   7  21
ATOM     21  N   UNL     1       3.306   5.827  17.870  0.00  0.00    +0.000 N 
ATOM     22  H   UNL     1       4.254   5.595  18.164  0.00  0.00    +0.000 HD
BRANCH  21  23
ATOM     23  S   UNL     1       2.380   4.437  17.620  0.00  0.00    +0.000 S 
ATOM     24  O   UNL     1       1.047   4.905  17.302  0.00  0.00    +0.000 OA
ATOM     25  O   UNL     1       3.090   3.552  16.722  0.00  0.00    +0.000 OA
BRANCH  23  26
ATOM     26  C   UNL     1       2.322   3.692  19.231  0.00  0.00    +0.000 A 
ATOM     27  C   UNL     1       1.099   3.571  19.897  0.00  0.00    +0.000 A 
ATOM     28  C   UNL     1       1.059   2.975  21.159  0.00  0.00    +0.000 A 
ATOM     29  C   UNL     1       2.234   2.501  21.746  0.00  0.00    +0.000 A 
ATOM     30  C   UNL     1       3.450   2.605  21.069  0.00  0.00    +0.000 A 
ATOM     31  C   UNL     1       3.497   3.191  19.803  0.00  0.00    +0.000 A 
ENDBRANCH  23  26
ENDBRANCH  21  23
ENDBRANCH   7  21
TORSDOF 4
ENDMDL
MODEL 6
REMARK VINA RESULT:      -8.1      3.649      8.167
REMARK  Name = 
REMARK  4 active torsions:
REMARK  status: ('A' for Active; 'I' for Inactive)
REMARK    1  A    between atoms: C_7  and  N_8
REMARK    2  A    between atoms: N_8  and  S_9
REMARK    3  A    between atoms: S_9  and  C_12
REMARK    4  A    between atoms: N_21  and  C_22
REMARK                            x       y       z     vdW  Elec       q    Type
REMARK                         _______ _______ _______ _____ _____    ______ ____
ROOT
ATOM      1  O   UNL     1      -0.133  11.193  22.281  0.00  0.00    +0.000 OA
ATOM      2  C   UNL     1       0.466  10.299  21.683  0.00  0.00    +0.000 C 
ATOM      3  N   UNL     1       0.851   9.193  22.393  0.00  0.00    +0.000 N 
ATOM      4  C   UNL     1       0.934   7.913  21.755  0.00  0.00    +0.000 C 
ATOM      5  C   UNL     1       1.576   8.016  20.412  0.00  0.00    +0.000 A 
ATOM      6  C   UNL     1       2.186   6.900  19.829  0.00  0.00    +0.000 A 
ATOM      7  C   UNL     1       2.750   6.994  18.561  0.00  0.00    +0.000 A 
ATOM      8  C   UNL     1       2.712   8.199  17.867  0.00  0.00    +0.000 A 
ATOM      9  C   UNL     1       2.077   9.310  18.435  0.00  0.00    +0.000 A 
ATOM     10  C   UNL     1       1.479   9.223  19.704  0.00  0.00    +0.000 A 
ATOM     11  N   UNL     1       0.791  10.308  20.327  0.00  0.00    +0.000 N 
ATOM     12  H   UNL     1       0.543   9.230  23.354  0.00  0.00    +0.000 HD
ENDROOT
BRANCH  11  13
ATOM     13  C   UNL     1       0.372  11.421  19.533  0.00  0.00    +0.000 A 
ATOM     14  C   UNL     1       1.041  12.660  19.620  0.00  0.00    +0.000 A 
ATOM     15 CL   UNL     1       2.541  12.843  20.468  0.00  0.00    +0.000 Cl
ATOM     16  C   UNL     1       0.558  13.784  18.939  0.00  0.00    +0.000 A 
ATOM     17  C   UNL     1      -0.582  13.691  18.145  0.00  0.00    +0.000 A 
ATOM     18  C   UNL     1      -1.242  12.471  18.025  0.00  0.00    +0.000 A 
ATOM     19  C   UNL     1      -0.782  11.347  18.722  0.00  0.00    +0.000 A 
ATOM     20 CL   UNL     1      -1.745   9.911  18.591  0.00  0.00    +0.000 Cl
ENDBRANCH  11  13
BRANCH   7  21
ATOM     21  N   UNL     1       3.382   5.847  18.015  0.00  0.00    +0.000 N 
ATOM     22  H   UNL     1       4.304   5.595  18.371  0.00  0.00    +0.000 HD
BRANCH  21  23
ATOM     23  S   UNL     1       2.445   4.477  17.703  0.00  0.00    +0.000 S 
ATOM     24  O   UNL     1       1.118   4.971  17.399  0.00  0.00    +0.000 OA
ATOM     25  O   UNL     1       3.151   3.624  16.772  0.00  0.00    +0.000 OA
BRANCH  23  26
ATOM     26  C   UNL     1       2.373   3.666  19.282  0.00  0.00    +0.000 A 
ATOM     27  C   UNL     1       3.536   3.122  19.836  0.00  0.00    +0.000 A 
ATOM     28  C   UNL     1       3.474   2.494  21.082  0.00  0.00    +0.000 A 
ATOM     29  C   UNL     1       2.261   2.417  21.768  0.00  0.00    +0.000 A 
ATOM     30  C   UNL     1       1.107   2.980  21.220  0.00  0.00    +0.000 A 
ATOM     31  C   UNL     1       1.161   3.617  19.979  0.00  0.00    +0.000 A 
ENDBRANCH  23  26
ENDBRANCH  21  23
ENDBRANCH   7  21
TORSDOF 4
ENDMDL
MODEL 7
REMARK VINA RESULT:      -8.1      3.645      8.091
REMARK  Name = 
REMARK  4 active torsions:
REMARK  status: ('A' for Active; 'I' for Inactive)
REMARK    1  A    between atoms: C_7  and  N_8
REMARK    2  A    between atoms: N_8  and  S_9
REMARK    3  A    between atoms: S_9  and  C_12
REMARK    4  A    between atoms: N_21  and  C_22
REMARK                            x       y       z     vdW  Elec       q    Type
REMARK                         _______ _______ _______ _____ _____    ______ ____
ROOT
ATOM      1  O   UNL     1       0.018  11.127  22.294  0.00  0.00    +0.000 OA
ATOM      2  C   UNL     1       0.590  10.268  21.624  0.00  0.00    +0.000 C 
ATOM      3  N   UNL     1       0.981   9.115  22.251  0.00  0.00    +0.000 N 
ATOM      4  C   UNL     1       1.032   7.877  21.531  0.00  0.00    +0.000 C 
ATOM      5  C   UNL     1       1.637   8.060  20.180  0.00  0.00    +0.000 A 
ATOM      6  C   UNL     1       2.218   6.976  19.510  0.00  0.00    +0.000 A 
ATOM      7  C   UNL     1       2.748   7.146  18.235  0.00  0.00    +0.000 A 
ATOM      8  C   UNL     1       2.705   8.393  17.620  0.00  0.00    +0.000 A 
ATOM      9  C   UNL     1       2.099   9.472  18.276  0.00  0.00    +0.000 A 
ATOM     10  C   UNL     1       1.535   9.310  19.553  0.00  0.00    +0.000 A 
ATOM     11  N   UNL     1       0.878  10.360  20.263  0.00  0.00    +0.000 N 
ATOM     12  H   UNL     1       0.701   9.093  23.221  0.00  0.00    +0.000 HD
ENDROOT
BRANCH  11  13
ATOM     13  C   UNL     1       0.450  11.526  19.553  0.00  0.00    +0.000 A 
ATOM     14  C   UNL     1       1.103  12.762  19.740  0.00  0.00    +0.000 A 
ATOM     15 CL   UNL     1       2.595  12.897  20.611  0.00  0.00    +0.000 Cl
ATOM     16  C   UNL     1       0.611  13.929  19.143  0.00  0.00    +0.000 A 
ATOM     17  C   UNL     1      -0.522  13.884  18.336  0.00  0.00    +0.000 A 
ATOM     18  C   UNL     1      -1.166  12.669  18.118  0.00  0.00    +0.000 A 
ATOM     19  C   UNL     1      -0.697  11.500  18.730  0.00  0.00    +0.000 A 
ATOM     20 CL   UNL     1      -1.641  10.066  18.481  0.00  0.00    +0.000 Cl
ENDBRANCH  11  13
BRANCH   7  21
ATOM     21  N   UNL     1       3.351   6.029  17.600  0.00  0.00    +0.000 N 
ATOM     22  H   UNL     1       3.797   6.178  16.695  0.00  0.00    +0.000 HD
BRANCH  21  23
ATOM     23  S   UNL     1       4.222   4.933  18.545  0.00  0.00    +0.000 S 
ATOM     24  O   UNL     1       4.846   4.019  17.612  0.00  0.00    +0.000 OA
ATOM     25  O   UNL     1       5.014   5.667  19.508  0.00  0.00    +0.000 OA
BRANCH  23  26
ATOM     26  C   UNL     1       2.951   4.043  19.410  0.00  0.00    +0.000 A 
ATOM     27  C   UNL     1       1.880   3.496  18.697  0.00  0.00    +0.000 A 
ATOM     28  C   UNL     1       0.889   2.788  19.381  0.00  0.00    +0.000 A 
ATOM     29  C   UNL     1       0.974   2.626  20.765  0.00  0.00    +0.000 A 
ATOM     30  C   UNL     1       2.057   3.156  21.470  0.00  0.00    +0.000 A 
ATOM     31  C   UNL     1       3.055   3.857  20.792  0.00  0.00    +0.000 A 
ENDBRANCH  23  26
ENDBRANCH  21  23
ENDBRANCH   7  21
TORSDOF 4
ENDMDL
MODEL 8
REMARK VINA RESULT:      -8.1      1.428      1.846
REMARK  Name = 
REMARK  4 active torsions:
REMARK  status: ('A' for Active; 'I' for Inactive)
REMARK    1  A    between atoms: C_7  and  N_8
REMARK    2  A    between atoms: N_8  and  S_9
REMARK    3  A    between atoms: S_9  and  C_12
REMARK    4  A    between atoms: N_21  and  C_22
REMARK                            x       y       z     vdW  Elec       q    Type
REMARK                         _______ _______ _______ _____ _____    ______ ____
ROOT
ATOM      1  O   UNL     1       4.309   2.260  19.426  0.00  0.00    +0.000 OA
ATOM      2  C   UNL     1       3.705   3.321  19.581  0.00  0.00    +0.000 C 
ATOM      3  N   UNL     1       2.748   3.384  20.559  0.00  0.00    +0.000 N 
ATOM      4  C   UNL     1       2.482   4.618  21.236  0.00  0.00    +0.000 C 
ATOM      5  C   UNL     1       2.439   5.764  20.282  0.00  0.00    +0.000 A 
ATOM      6  C   UNL     1       1.747   6.935  20.610  0.00  0.00    +0.000 A 
ATOM      7  C   UNL     1       1.742   8.013  19.731  0.00  0.00    +0.000 A 
ATOM      8  C   UNL     1       2.424   7.931  18.521  0.00  0.00    +0.000 A 
ATOM      9  C   UNL     1       3.141   6.771  18.203  0.00  0.00    +0.000 A 
ATOM     10  C   UNL     1       3.177   5.684  19.092  0.00  0.00    +0.000 A 
ATOM     11  N   UNL     1       3.912   4.486  18.842  0.00  0.00    +0.000 N 
ATOM     12  H   UNL     1       2.683   2.524  21.086  0.00  0.00    +0.000 HD
ENDROOT
BRANCH  11  13
ATOM     13  C   UNL     1       4.931   4.484  17.839  0.00  0.00    +0.000 A 
ATOM     14  C   UNL     1       4.681   3.947  16.559  0.00  0.00    +0.000 A 
ATOM     15 CL   UNL     1       3.088   3.507  16.037  0.00  0.00    +0.000 Cl
ATOM     16  C   UNL     1       5.711   3.831  15.617  0.00  0.00    +0.000 A 
ATOM     17  C   UNL     1       6.997   4.266  15.922  0.00  0.00    +0.000 A 
ATOM     18  C   UNL     1       7.259   4.824  17.171  0.00  0.00    +0.000 A 
ATOM     19  C   UNL     1       6.243   4.921  18.129  0.00  0.00    +0.000 A 
ATOM     20 CL   UNL     1       6.707   5.525  19.688  0.00  0.00    +0.000 Cl
ENDBRANCH  11  13
BRANCH   7  21
ATOM     21  N   UNL     1       1.008   9.173  20.088  0.00  0.00    +0.000 N 
ATOM     22  H   UNL     1       1.275   9.663  20.941  0.00  0.00    +0.000 HD
BRANCH  21  23
ATOM     23  S   UNL     1       0.557  10.253  18.871  0.00  0.00    +0.000 S 
ATOM     24  O   UNL     1       1.688  11.139  18.693  0.00  0.00    +0.000 OA
ATOM     25  O   UNL     1       0.016   9.507  17.756  0.00  0.00    +0.000 OA
BRANCH  23  26
ATOM     26  C   UNL     1      -0.752  11.189  19.622  0.00  0.00    +0.000 A 
ATOM     27  C   UNL     1      -0.630  11.611  20.949  0.00  0.00    +0.000 A 
ATOM     28  C   UNL     1      -1.659  12.355  21.531  0.00  0.00    +0.000 A 
ATOM     29  C   UNL     1      -2.796  12.678  20.788  0.00  0.00    +0.000 A 
ATOM     30  C   UNL     1      -2.904  12.273  19.456  0.00  0.00    +0.000 A 
ATOM     31  C   UNL     1      -1.877  11.536  18.865  0.00  0.00    +0.000 A 
ENDBRANCH  23  26
ENDBRANCH  21  23
ENDBRANCH   7  21
TORSDOF 4
ENDMDL
MODEL 9
REMARK VINA RESULT:      -8.1      3.637      7.930
REMARK  Name = 
REMARK  4 active torsions:
REMARK  status: ('A' for Active; 'I' for Inactive)
REMARK    1  A    between atoms: C_7  and  N_8
REMARK    2  A    between atoms: N_8  and  S_9
REMARK    3  A    between atoms: S_9  and  C_12
REMARK    4  A    between atoms: N_21  and  C_22
REMARK                            x       y       z     vdW  Elec       q    Type
REMARK                         _______ _______ _______ _____ _____    ______ ____
ROOT
ATOM      1  O   UNL     1      -0.018  11.030  22.400  0.00  0.00    +0.000 OA
ATOM      2  C   UNL     1       0.559  10.199  21.700  0.00  0.00    +0.000 C 
ATOM      3  N   UNL     1       0.981   9.038  22.292  0.00  0.00    +0.000 N 
ATOM      4  C   UNL     1       1.044   7.820  21.539  0.00  0.00    +0.000 C 
ATOM      5  C   UNL     1       1.626   8.048  20.184  0.00  0.00    +0.000 A 
ATOM      6  C   UNL     1       2.216   6.993  19.479  0.00  0.00    +0.000 A 
ATOM      7  C   UNL     1       2.724   7.205  18.201  0.00  0.00    +0.000 A 
ATOM      8  C   UNL     1       2.649   8.467  17.619  0.00  0.00    +0.000 A 
ATOM      9  C   UNL     1       2.033   9.517  18.311  0.00  0.00    +0.000 A 
ATOM     10  C   UNL     1       1.492   9.312  19.591  0.00  0.00    +0.000 A 
ATOM     11  N   UNL     1       0.825  10.331  20.337  0.00  0.00    +0.000 N 
ATOM     12  H   UNL     1       0.715   8.986  23.265  0.00  0.00    +0.000 HD
ENDROOT
BRANCH  11  13
ATOM     13  C   UNL     1       0.366  11.506  19.665  0.00  0.00    +0.000 A 
ATOM     14  C   UNL     1      -0.741  11.452  18.793  0.00  0.00    +0.000 A 
ATOM     15 CL   UNL     1      -1.763  10.056  18.684  0.00  0.00    +0.000 Cl
ATOM     16  C   UNL     1      -1.116  12.570  18.039  0.00  0.00    +0.000 A 
ATOM     17  C   UNL     1      -0.412  13.765  18.155  0.00  0.00    +0.000 A 
ATOM     18  C   UNL     1       0.668  13.848  19.030  0.00  0.00    +0.000 A 
ATOM     19  C   UNL     1       1.067  12.728  19.769  0.00  0.00    +0.000 A 
ATOM     20 CL   UNL     1       2.494  12.912  20.739  0.00  0.00    +0.000 Cl
ENDBRANCH  11  13
BRANCH   7  21
ATOM     21  N   UNL     1       3.338   6.117  17.529  0.00  0.00    +0.000 N 
ATOM     22  H   UNL     1       3.779   6.299  16.628  0.00  0.00    +0.000 HD
BRANCH  21  23
ATOM     23  S   UNL     1       4.225   5.001  18.436  0.00  0.00    +0.000 S 
ATOM     24  O   UNL     1       4.886   4.148  17.471  0.00  0.00    +0.000 OA
ATOM     25  O   UNL     1       4.983   5.711  19.443  0.00  0.00    +0.000 OA
BRANCH  23  26
ATOM     26  C   UNL     1       2.966   4.039  19.239  0.00  0.00    +0.000 A 
ATOM     27  C   UNL     1       1.904   3.524  18.490  0.00  0.00    +0.000 A 
ATOM     28  C   UNL     1       0.923   2.760  19.126  0.00  0.00    +0.000 A 
ATOM     29  C   UNL     1       1.010   2.509  20.497  0.00  0.00    +0.000 A 
ATOM     30  C   UNL     1       2.084   3.008  21.236  0.00  0.00    +0.000 A 
ATOM     31  C   UNL     1       3.073   3.765  20.607  0.00  0.00    +0.000 A 
ENDBRANCH  23  26
ENDBRANCH  21  23
ENDBRANCH   7  21
TORSDOF 4
ENDMDL
