MODEL 1
REMARK VINA RESULT:      -7.2      0.000      0.000
REMARK  Name = 
REMARK  2 active torsions:
REMARK  status: ('A' for Active; 'I' for Inactive)
REMARK    1  A    between atoms: C_2  and  C_3
REMARK    2  A    between atoms: C_16  and  C_17
REMARK                            x       y       z     vdW  Elec       q    Type
REMARK                         _______ _______ _______ _____ _____    ______ ____
ROOT
ATOM      1  O   UNL     1       5.472   3.061  19.929  0.00  0.00    +0.000 OA
ATOM      2  C   UNL     1       4.725   3.700  19.176  0.00  0.00    +0.000 C 
ATOM      3  N   UNL     1       5.226   4.300  18.024  0.00  0.00    +0.000 N 
ATOM      4  C   UNL     1       6.708   4.376  17.943  0.00  0.00    +0.000 C 
ATOM      5  C   UNL     1       7.167   5.663  17.266  0.00  0.00    +0.000 C 
ATOM      6  N   UNL     1       6.616   5.588  15.925  0.00  0.00    +0.000 N 
ATOM      7  N   UNL     1       7.433   5.477  14.884  0.00  0.00    +0.000 NA
ATOM      8  C   UNL     1       6.748   4.728  14.018  0.00  0.00    +0.000 A 
ATOM      9  C   UNL     1       5.418   4.490  14.457  0.00  0.00    +0.000 A 
ATOM     10  C   UNL     1       5.375   5.042  15.728  0.00  0.00    +0.000 A 
ATOM     11  C   UNL     1       4.482   4.967  16.923  0.00  0.00    +0.000 C 
ENDROOT
BRANCH   2  12
ATOM     12  C   UNL     1       3.360   3.991  19.663  0.00  0.00    +0.000 A 
ATOM     13  C   UNL     1       2.607   2.937  20.065  0.00  0.00    +0.000 A 
ATOM     14  S   UNL     1       1.084   3.419  20.817  0.00  0.00    +0.000 S 
ATOM     15  C   UNL     1       1.532   5.072  20.575  0.00  0.00    +0.000 A 
ATOM     16  C   UNL     1       1.181   6.339  20.929  0.00  0.00    +0.000 A 
ATOM     17  N   UNL     1       1.995   7.234  20.262  0.00  0.00    +0.000 NA
ATOM     18  C   UNL     1       2.823   6.495  19.546  0.00  0.00    +0.000 A 
ATOM     19  N   UNL     1       2.696   5.173  19.868  0.00  0.00    +0.000 N 
ENDBRANCH   2  12
BRANCH   8  20
ATOM     20  C   UNL     1       7.512   4.228  12.807  0.00  0.00    +0.000 C 
ATOM     21  C   UNL     1       6.858   3.511  11.651  0.00  0.00    +0.000 C 
ATOM     22  C   UNL     1       7.374   4.899  11.468  0.00  0.00    +0.000 C 
ENDBRANCH   8  20
TORSDOF 2
ENDMDL
MODEL 2
REMARK VINA RESULT:      -6.9      2.512      3.198
REMARK  Name = 
REMARK  2 active torsions:
REMARK  status: ('A' for Active; 'I' for Inactive)
REMARK    1  A    between atoms: C_2  and  C_3
REMARK    2  A    between atoms: C_16  and  C_17
REMARK                            x       y       z     vdW  Elec       q    Type
REMARK                         _______ _______ _______ _____ _____    ______ ____
ROOT
ATOM      1  O   UNL     1       2.017   5.415  19.339  0.00  0.00    +0.000 OA
ATOM      2  C   UNL     1       2.586   6.307  18.696  0.00  0.00    +0.000 C 
ATOM      3  N   UNL     1       3.722   6.022  17.944  0.00  0.00    +0.000 N 
ATOM      4  C   UNL     1       4.346   4.701  18.216  0.00  0.00    +0.000 C 
ATOM      5  C   UNL     1       5.867   4.769  18.117  0.00  0.00    +0.000 C 
ATOM      6  N   UNL     1       6.127   5.149  16.741  0.00  0.00    +0.000 N 
ATOM      7  N   UNL     1       6.730   4.292  15.924  0.00  0.00    +0.000 NA
ATOM      8  C   UNL     1       6.186   4.548  14.734  0.00  0.00    +0.000 A 
ATOM      9  C   UNL     1       5.339   5.689  14.771  0.00  0.00    +0.000 A 
ATOM     10  C   UNL     1       5.298   6.039  16.111  0.00  0.00    +0.000 A 
ATOM     11  C   UNL     1       4.452   6.899  16.991  0.00  0.00    +0.000 C 
ENDROOT
BRANCH   2  12
ATOM     12  C   UNL     1       2.157   7.700  18.944  0.00  0.00    +0.000 A 
ATOM     13  C   UNL     1       2.199   8.558  17.895  0.00  0.00    +0.000 A 
ATOM     14  S   UNL     1       1.471  10.126  18.253  0.00  0.00    +0.000 S 
ATOM     15  C   UNL     1       1.108   9.553  19.842  0.00  0.00    +0.000 A 
ATOM     16  C   UNL     1       0.386   9.864  20.954  0.00  0.00    +0.000 A 
ATOM     17  N   UNL     1       0.640   8.923  21.934  0.00  0.00    +0.000 NA
ATOM     18  C   UNL     1       1.482   8.065  21.391  0.00  0.00    +0.000 A 
ATOM     19  N   UNL     1       1.631   8.309  20.055  0.00  0.00    +0.000 N 
ENDBRANCH   2  12
BRANCH   8  20
ATOM     20  C   UNL     1       6.504   3.567  13.621  0.00  0.00    +0.000 C 
ATOM     21  C   UNL     1       5.567   3.283  12.472  0.00  0.00    +0.000 C 
ATOM     22  C   UNL     1       6.828   4.044  12.232  0.00  0.00    +0.000 C 
ENDBRANCH   8  20
TORSDOF 2
ENDMDL
MODEL 3
REMARK VINA RESULT:      -6.9      2.151      2.693
REMARK  Name = 
REMARK  2 active torsions:
REMARK  status: ('A' for Active; 'I' for Inactive)
REMARK    1  A    between atoms: C_2  and  C_3
REMARK    2  A    between atoms: C_16  and  C_17
REMARK                            x       y       z     vdW  Elec       q    Type
REMARK                         _______ _______ _______ _____ _____    ______ ____
ROOT
ATOM      1  O   UNL     1       2.597   4.508  19.876  0.00  0.00    +0.000 OA
ATOM      2  C   UNL     1       2.910   5.543  19.273  0.00  0.00    +0.000 C 
ATOM      3  N   UNL     1       4.034   5.571  18.453  0.00  0.00    +0.000 N 
ATOM      4  C   UNL     1       4.956   4.416  18.602  0.00  0.00    +0.000 C 
ATOM      5  C   UNL     1       6.413   4.837  18.440  0.00  0.00    +0.000 C 
ATOM      6  N   UNL     1       6.498   5.347  17.084  0.00  0.00    +0.000 N 
ATOM      7  N   UNL     1       7.229   4.701  16.183  0.00  0.00    +0.000 NA
ATOM      8  C   UNL     1       6.571   4.894  15.039  0.00  0.00    +0.000 A 
ATOM      9  C   UNL     1       5.491   5.805  15.194  0.00  0.00    +0.000 A 
ATOM     10  C   UNL     1       5.452   6.058  16.556  0.00  0.00    +0.000 A 
ATOM     11  C   UNL     1       4.488   6.647  17.532  0.00  0.00    +0.000 C 
ENDROOT
BRANCH   2  12
ATOM     12  C   UNL     1       2.192   6.783  19.638  0.00  0.00    +0.000 A 
ATOM     13  C   UNL     1       1.756   6.895  20.916  0.00  0.00    +0.000 A 
ATOM     14  S   UNL     1       1.103   8.491  21.289  0.00  0.00    +0.000 S 
ATOM     15  C   UNL     1       1.464   8.976  19.670  0.00  0.00    +0.000 A 
ATOM     16  C   UNL     1       1.545  10.078  18.875  0.00  0.00    +0.000 A 
ATOM     17  N   UNL     1       1.845   9.682  17.586  0.00  0.00    +0.000 NA
ATOM     18  C   UNL     1       1.959   8.368  17.636  0.00  0.00    +0.000 A 
ATOM     19  N   UNL     1       1.929   7.927  18.929  0.00  0.00    +0.000 N 
ENDBRANCH   2  12
BRANCH   8  20
ATOM     20  C   UNL     1       7.035   4.080  13.847  0.00  0.00    +0.000 C 
ATOM     21  C   UNL     1       6.101   3.560  12.781  0.00  0.00    +0.000 C 
ATOM     22  C   UNL     1       7.050   4.666  12.462  0.00  0.00    +0.000 C 
ENDBRANCH   8  20
TORSDOF 2
ENDMDL
MODEL 4
REMARK VINA RESULT:      -6.8      1.295      1.933
REMARK  Name = 
REMARK  2 active torsions:
REMARK  status: ('A' for Active; 'I' for Inactive)
REMARK    1  A    between atoms: C_2  and  C_3
REMARK    2  A    between atoms: C_16  and  C_17
REMARK                            x       y       z     vdW  Elec       q    Type
REMARK                         _______ _______ _______ _____ _____    ______ ____
ROOT
ATOM      1  O   UNL     1       5.581   3.198  19.976  0.00  0.00    +0.000 OA
ATOM      2  C   UNL     1       4.793   3.765  19.207  0.00  0.00    +0.000 C 
ATOM      3  N   UNL     1       5.252   4.358  18.035  0.00  0.00    +0.000 N 
ATOM      4  C   UNL     1       6.726   4.523  17.944  0.00  0.00    +0.000 C 
ATOM      5  C   UNL     1       7.102   5.814  17.224  0.00  0.00    +0.000 C 
ATOM      6  N   UNL     1       6.553   5.662  15.889  0.00  0.00    +0.000 N 
ATOM      7  N   UNL     1       7.372   5.570  14.847  0.00  0.00    +0.000 NA
ATOM      8  C   UNL     1       6.732   4.753  14.009  0.00  0.00    +0.000 A 
ATOM      9  C   UNL     1       5.420   4.447  14.463  0.00  0.00    +0.000 A 
ATOM     10  C   UNL     1       5.347   5.035  15.716  0.00  0.00    +0.000 A 
ATOM     11  C   UNL     1       4.465   4.943  16.917  0.00  0.00    +0.000 C 
ENDROOT
BRANCH   2  12
ATOM     12  C   UNL     1       3.414   3.986  19.692  0.00  0.00    +0.000 A 
ATOM     13  C   UNL     1       3.164   5.148  20.344  0.00  0.00    +0.000 A 
ATOM     14  S   UNL     1       1.451   5.394  20.690  0.00  0.00    +0.000 S 
ATOM     15  C   UNL     1       1.115   3.890  19.908  0.00  0.00    +0.000 A 
ATOM     16  C   UNL     1       0.086   3.141  19.424  0.00  0.00    +0.000 A 
ATOM     17  N   UNL     1       0.584   1.938  18.961  0.00  0.00    +0.000 NA
ATOM     18  C   UNL     1       1.888   1.996  19.154  0.00  0.00    +0.000 A 
ATOM     19  N   UNL     1       2.266   3.250  19.544  0.00  0.00    +0.000 N 
ENDBRANCH   2  12
BRANCH   8  20
ATOM     20  C   UNL     1       7.521   4.262  12.811  0.00  0.00    +0.000 C 
ATOM     21  C   UNL     1       6.878   3.699  11.567  0.00  0.00    +0.000 C 
ATOM     22  C   UNL     1       7.538   5.036  11.521  0.00  0.00    +0.000 C 
ENDBRANCH   8  20
TORSDOF 2
ENDMDL
MODEL 5
REMARK VINA RESULT:      -6.7      2.682      3.544
REMARK  Name = 
REMARK  2 active torsions:
REMARK  status: ('A' for Active; 'I' for Inactive)
REMARK    1  A    between atoms: C_2  and  C_3
REMARK    2  A    between atoms: C_16  and  C_17
REMARK                            x       y       z     vdW  Elec       q    Type
REMARK                         _______ _______ _______ _____ _____    ______ ____
ROOT
ATOM      1  O   UNL     1       1.787   5.426  20.333  0.00  0.00    +0.000 OA
ATOM      2  C   UNL     1       2.287   6.376  19.714  0.00  0.00    +0.000 C 
ATOM      3  N   UNL     1       3.467   6.209  18.995  0.00  0.00    +0.000 N 
ATOM      4  C   UNL     1       4.208   4.952  19.276  0.00  0.00    +0.000 C 
ATOM      5  C   UNL     1       5.717   5.167  19.225  0.00  0.00    +0.000 C 
ATOM      6  N   UNL     1       5.980   5.586  17.860  0.00  0.00    +0.000 N 
ATOM      7  N   UNL     1       6.687   4.799  17.056  0.00  0.00    +0.000 NA
ATOM      8  C   UNL     1       6.157   5.014  15.851  0.00  0.00    +0.000 A 
ATOM      9  C   UNL     1       5.203   6.067  15.871  0.00  0.00    +0.000 A 
ATOM     10  C   UNL     1       5.088   6.398  17.212  0.00  0.00    +0.000 A 
ATOM     11  C   UNL     1       4.137   7.163  18.072  0.00  0.00    +0.000 C 
ENDROOT
BRANCH   2  12
ATOM     12  C   UNL     1       1.718   7.718  19.959  0.00  0.00    +0.000 A 
ATOM     13  C   UNL     1       1.372   8.023  21.234  0.00  0.00    +0.000 A 
ATOM     14  S   UNL     1       0.903   9.711  21.441  0.00  0.00    +0.000 S 
ATOM     15  C   UNL     1       1.213   9.964  19.759  0.00  0.00    +0.000 A 
ATOM     16  C   UNL     1       1.354  10.952  18.833  0.00  0.00    +0.000 A 
ATOM     17  N   UNL     1       1.537  10.380  17.589  0.00  0.00    +0.000 NA
ATOM     18  C   UNL     1       1.523   9.077  17.793  0.00  0.00    +0.000 A 
ATOM     19  N   UNL     1       1.527   8.793  19.130  0.00  0.00    +0.000 N 
ENDBRANCH   2  12
BRANCH   8  20
ATOM     20  C   UNL     1       6.601   4.080  14.742  0.00  0.00    +0.000 C 
ATOM     21  C   UNL     1       5.795   3.837  13.489  0.00  0.00    +0.000 C 
ATOM     22  C   UNL     1       7.067   4.615  13.415  0.00  0.00    +0.000 C 
ENDBRANCH   8  20
TORSDOF 2
ENDMDL
MODEL 6
REMARK VINA RESULT:      -6.5      2.849      4.430
REMARK  Name = 
REMARK  2 active torsions:
REMARK  status: ('A' for Active; 'I' for Inactive)
REMARK    1  A    between atoms: C_2  and  C_3
REMARK    2  A    between atoms: C_16  and  C_17
REMARK                            x       y       z     vdW  Elec       q    Type
REMARK                         _______ _______ _______ _____ _____    ______ ____
ROOT
ATOM      1  O   UNL     1       1.813   6.410  17.935  0.00  0.00    +0.000 OA
ATOM      2  C   UNL     1       2.707   5.618  18.264  0.00  0.00    +0.000 C 
ATOM      3  N   UNL     1       4.032   5.863  17.919  0.00  0.00    +0.000 N 
ATOM      4  C   UNL     1       4.235   6.932  16.905  0.00  0.00    +0.000 C 
ATOM      5  C   UNL     1       5.397   6.605  15.972  0.00  0.00    +0.000 C 
ATOM      6  N   UNL     1       6.557   6.541  16.841  0.00  0.00    +0.000 N 
ATOM      7  N   UNL     1       7.521   7.447  16.719  0.00  0.00    +0.000 NA
ATOM      8  C   UNL     1       7.971   7.606  17.965  0.00  0.00    +0.000 A 
ATOM      9  C   UNL     1       7.386   6.673  18.864  0.00  0.00    +0.000 A 
ATOM     10  C   UNL     1       6.439   6.011  18.099  0.00  0.00    +0.000 A 
ATOM     11  C   UNL     1       5.256   5.133  18.343  0.00  0.00    +0.000 C 
ENDROOT
BRANCH   2  12
ATOM     12  C   UNL     1       2.285   4.314  18.820  0.00  0.00    +0.000 A 
ATOM     13  C   UNL     1       1.998   3.327  17.936  0.00  0.00    +0.000 A 
ATOM     14  S   UNL     1       1.711   1.766  18.710  0.00  0.00    +0.000 S 
ATOM     15  C   UNL     1       2.013   2.512  20.240  0.00  0.00    +0.000 A 
ATOM     16  C   UNL     1       2.239   2.215  21.549  0.00  0.00    +0.000 A 
ATOM     17  N   UNL     1       2.337   3.392  22.267  0.00  0.00    +0.000 NA
ATOM     18  C   UNL     1       2.191   4.360  21.382  0.00  0.00    +0.000 A 
ATOM     19  N   UNL     1       2.192   3.860  20.110  0.00  0.00    +0.000 N 
ENDBRANCH   2  12
BRANCH   8  20
ATOM     20  C   UNL     1       8.932   8.757  18.194  0.00  0.00    +0.000 C 
ATOM     21  C   UNL     1       8.516  10.207  18.150  0.00  0.00    +0.000 C 
ATOM     22  C   UNL     1       8.876   9.577  19.454  0.00  0.00    +0.000 C 
ENDBRANCH   8  20
TORSDOF 2
ENDMDL
MODEL 7
REMARK VINA RESULT:      -6.3      4.794      8.037
REMARK  Name = 
REMARK  2 active torsions:
REMARK  status: ('A' for Active; 'I' for Inactive)
REMARK    1  A    between atoms: C_2  and  C_3
REMARK    2  A    between atoms: C_16  and  C_17
REMARK                            x       y       z     vdW  Elec       q    Type
REMARK                         _______ _______ _______ _____ _____    ______ ____
ROOT
ATOM      1  O   UNL     1       2.115   6.877  20.621  0.00  0.00    +0.000 OA
ATOM      2  C   UNL     1       2.311   7.323  19.483  0.00  0.00    +0.000 C 
ATOM      3  N   UNL     1       1.821   8.574  19.119  0.00  0.00    +0.000 N 
ATOM      4  C   UNL     1       0.826   9.161  20.054  0.00  0.00    +0.000 C 
ATOM      5  C   UNL     1      -0.247   9.949  19.308  0.00  0.00    +0.000 C 
ATOM      6  N   UNL     1       0.479  11.017  18.645  0.00  0.00    +0.000 N 
ATOM      7  N   UNL     1       0.274  12.277  19.013  0.00  0.00    +0.000 NA
ATOM      8  C   UNL     1       1.463  12.857  18.843  0.00  0.00    +0.000 A 
ATOM      9  C   UNL     1       2.394  11.987  18.213  0.00  0.00    +0.000 A 
ATOM     10  C   UNL     1       1.724  10.777  18.127  0.00  0.00    +0.000 A 
ATOM     11  C   UNL     1       2.075   9.347  17.875  0.00  0.00    +0.000 C 
ENDROOT
BRANCH   2  12
ATOM     12  C   UNL     1       2.869   6.393  18.478  0.00  0.00    +0.000 A 
ATOM     13  C   UNL     1       4.024   6.758  17.869  0.00  0.00    +0.000 A 
ATOM     14  S   UNL     1       4.703   5.486  16.851  0.00  0.00    +0.000 S 
ATOM     15  C   UNL     1       3.381   4.469  17.304  0.00  0.00    +0.000 A 
ATOM     16  C   UNL     1       2.956   3.176  17.251  0.00  0.00    +0.000 A 
ATOM     17  N   UNL     1       1.687   3.096  17.790  0.00  0.00    +0.000 NA
ATOM     18  C   UNL     1       1.386   4.324  18.172  0.00  0.00    +0.000 A 
ATOM     19  N   UNL     1       2.474   5.144  18.072  0.00  0.00    +0.000 N 
ENDBRANCH   2  12
BRANCH   8  20
ATOM     20  C   UNL     1       1.616  14.260  19.400  0.00  0.00    +0.000 C 
ATOM     21  C   UNL     1       2.082  15.434  18.574  0.00  0.00    +0.000 C 
ATOM     22  C   UNL     1       0.660  15.356  19.019  0.00  0.00    +0.000 C 
ENDBRANCH   8  20
TORSDOF 2
ENDMDL
MODEL 8
REMARK VINA RESULT:      -6.2      1.464      2.085
REMARK  Name = 
REMARK  2 active torsions:
REMARK  status: ('A' for Active; 'I' for Inactive)
REMARK    1  A    between atoms: C_2  and  C_3
REMARK    2  A    between atoms: C_16  and  C_17
REMARK                            x       y       z     vdW  Elec       q    Type
REMARK                         _______ _______ _______ _____ _____    ______ ____
ROOT
ATOM      1  O   UNL     1       6.046   3.569  19.326  0.00  0.00    +0.000 OA
ATOM      2  C   UNL     1       5.215   4.148  18.614  0.00  0.00    +0.000 C 
ATOM      3  N   UNL     1       5.515   4.466  17.293  0.00  0.00    +0.000 N 
ATOM      4  C   UNL     1       6.949   4.345  16.922  0.00  0.00    +0.000 C 
ATOM      5  C   UNL     1       7.363   5.424  15.927  0.00  0.00    +0.000 C 
ATOM      6  N   UNL     1       6.543   5.176  14.756  0.00  0.00    +0.000 N 
ATOM      7  N   UNL     1       7.114   4.782  13.623  0.00  0.00    +0.000 NA
ATOM      8  C   UNL     1       6.205   3.978  13.069  0.00  0.00    +0.000 A 
ATOM      9  C   UNL     1       4.979   3.987  13.788  0.00  0.00    +0.000 A 
ATOM     10  C   UNL     1       5.247   4.759  14.908  0.00  0.00    +0.000 A 
ATOM     11  C   UNL     1       4.618   5.010  16.239  0.00  0.00    +0.000 C 
ENDROOT
BRANCH   2  12
ATOM     12  C   UNL     1       4.009   4.685  19.280  0.00  0.00    +0.000 A 
ATOM     13  C   UNL     1       3.852   6.032  19.286  0.00  0.00    +0.000 A 
ATOM     14  S   UNL     1       2.286   6.543  19.919  0.00  0.00    +0.000 S 
ATOM     15  C   UNL     1       1.875   4.880  20.145  0.00  0.00    +0.000 A 
ATOM     16  C   UNL     1       0.820   4.065  20.421  0.00  0.00    +0.000 A 
ATOM     17  N   UNL     1       1.270   2.763  20.520  0.00  0.00    +0.000 NA
ATOM     18  C   UNL     1       2.567   2.817  20.283  0.00  0.00    +0.000 A 
ATOM     19  N   UNL     1       2.931   4.063  19.855  0.00  0.00    +0.000 N 
ENDBRANCH   2  12
BRANCH   8  20
ATOM     20  C   UNL     1       6.657   3.179  11.862  0.00  0.00    +0.000 C 
ATOM     21  C   UNL     1       6.885   1.687  11.892  0.00  0.00    +0.000 C 
ATOM     22  C   UNL     1       5.717   2.246  11.150  0.00  0.00    +0.000 C 
ENDBRANCH   8  20
TORSDOF 2
ENDMDL
MODEL 9
REMARK VINA RESULT:      -6.0      3.214      4.664
REMARK  Name = 
REMARK  2 active torsions:
REMARK  status: ('A' for Active; 'I' for Inactive)
REMARK    1  A    between atoms: C_2  and  C_3
REMARK    2  A    between atoms: C_16  and  C_17
REMARK                            x       y       z     vdW  Elec       q    Type
REMARK                         _______ _______ _______ _____ _____    ______ ____
ROOT
ATOM      1  O   UNL     1       1.944   6.778  19.479  0.00  0.00    +0.000 OA
ATOM      2  C   UNL     1       2.842   5.927  19.411  0.00  0.00    +0.000 C 
ATOM      3  N   UNL     1       4.033   6.209  18.749  0.00  0.00    +0.000 N 
ATOM      4  C   UNL     1       4.016   7.432  17.904  0.00  0.00    +0.000 C 
ATOM      5  C   UNL     1       4.852   7.253  16.641  0.00  0.00    +0.000 C 
ATOM      6  N   UNL     1       6.201   7.023  17.125  0.00  0.00    +0.000 N 
ATOM      7  N   UNL     1       7.148   7.922  16.882  0.00  0.00    +0.000 NA
ATOM      8  C   UNL     1       7.933   7.859  17.959  0.00  0.00    +0.000 A 
ATOM      9  C   UNL     1       7.562   6.795  18.825  0.00  0.00    +0.000 A 
ATOM     10  C   UNL     1       6.401   6.288  18.263  0.00  0.00    +0.000 A 
ATOM     11  C   UNL     1       5.278   5.398  18.687  0.00  0.00    +0.000 C 
ENDROOT
BRANCH   2  12
ATOM     12  C   UNL     1       2.510   4.554  19.846  0.00  0.00    +0.000 A 
ATOM     13  C   UNL     1       2.244   4.367  21.162  0.00  0.00    +0.000 A 
ATOM     14  S   UNL     1       1.660   2.743  21.528  0.00  0.00    +0.000 S 
ATOM     15  C   UNL     1       1.778   2.362  19.846  0.00  0.00    +0.000 A 
ATOM     16  C   UNL     1       1.416   1.418  18.934  0.00  0.00    +0.000 A 
ATOM     17  N   UNL     1       1.943   1.757  17.703  0.00  0.00    +0.000 NA
ATOM     18  C   UNL     1       2.586   2.894  17.893  0.00  0.00    +0.000 A 
ATOM     19  N   UNL     1       2.336   3.391  19.141  0.00  0.00    +0.000 N 
ENDBRANCH   2  12
BRANCH   8  20
ATOM     20  C   UNL     1       8.990   8.939  18.089  0.00  0.00    +0.000 C 
ATOM     21  C   UNL     1       8.679  10.415  18.041  0.00  0.00    +0.000 C 
ATOM     22  C   UNL     1       9.090   9.784  19.329  0.00  0.00    +0.000 C 
ENDBRANCH   8  20
TORSDOF 2
ENDMDL
