MODEL 1
REMARK VINA RESULT:      -6.2      0.000      0.000
REMARK  Name = 
REMARK  15 active torsions:
REMARK  status: ('A' for Active; 'I' for Inactive)
REMARK    1  A    between atoms: C_1  and  C_2
REMARK    2  A    between atoms: C_2  and  C_3
REMARK    3  A    between atoms: C_3  and  C_4
REMARK    4  A    between atoms: C_4  and  C_5
REMARK    5  A    between atoms: C_5  and  C_6
REMARK    6  A    between atoms: C_6  and  C_7
REMARK    7  A    between atoms: C_7  and  C_8
REMARK    8  A    between atoms: C_8  and  C_9
REMARK    9  A    between atoms: C_9  and  C_10
REMARK   10  A    between atoms: C_10  and  O_11
REMARK   11  A    between atoms: C_10  and  CA_12
REMARK   12  A    between atoms: CA_12  and  C_13
REMARK   13  A    between atoms: CA_12  and  N_15
REMARK   14  A    between atoms: C_13  and  O_14
REMARK   15  A    between atoms: C_16  and  C_17
REMARK                            x       y       z     vdW  Elec       q    Type
REMARK                         _______ _______ _______ _____ _____    ______ ____
ROOT
ATOM      1  C   UNL     1       6.368   6.644  17.309  0.00  0.00    +0.000 C 
ENDROOT
BRANCH   1   2
ATOM      2  O   UNL     1       6.983   7.902  17.002  0.00  0.00    +0.000 OA
ATOM      3  H   UNL     1       7.340   8.285  17.820  0.00  0.00    +0.000 HD
ENDBRANCH   1   2
BRANCH   1   4
ATOM      4  C   UNL     1       4.916   6.671  16.809  0.00  0.00    +0.000 C 
BRANCH   4   5
ATOM      5  C   UNL     1       3.854   6.742  17.918  0.00  0.00    +0.000 C 
BRANCH   5   6
ATOM      6  C   UNL     1       2.852   5.588  17.847  0.00  0.00    +0.000 C 
BRANCH   6   7
ATOM      7  C   UNL     1       3.453   4.335  17.209  0.00  0.00    +0.000 C 
BRANCH   7   8
ATOM      8  C   UNL     1       2.540   3.127  17.362  0.00  0.00    +0.000 C 
BRANCH   8   9
ATOM      9  C   UNL     1       1.309   3.506  18.183  0.00  0.00    +0.000 C 
BRANCH   9  10
ATOM     10  C   UNL     1       0.990   2.425  19.210  0.00  0.00    +0.000 C 
BRANCH  10  12
ATOM     11  C   UNL     1       1.253   4.465  20.644  0.00  0.00    +0.000 C 
ATOM     12  C   UNL     1       1.163   2.948  20.632  0.00  0.00    +0.000 C 
ENDBRANCH  10  12
ENDBRANCH   9  10
ENDBRANCH   8   9
ENDBRANCH   7   8
ENDBRANCH   6   7
ENDBRANCH   5   6
ENDBRANCH   4   5
ENDBRANCH   1   4
BRANCH   1  13
ATOM     13  CA  UNL     1       7.211   5.472  16.759  0.00  0.00    +0.000 C 
BRANCH  13  14
ATOM     14  N   UNL     1       6.544   4.700  15.699  0.00  0.00    +0.000 N 
ATOM     15  C   UNL     1       6.925   4.741  14.378  0.00  0.00    +0.000 C 
ATOM     16  C   UNL     1       6.120   3.852  13.469  0.00  0.00    +0.000 C 
ATOM     17  O   UNL     1       7.826   5.455  13.956  0.00  0.00    +0.000 OA
ATOM     18  H   UNL     1       5.798   4.075  15.978  0.00  0.00    +0.000 HD
ENDBRANCH  13  14
BRANCH  13  19
ATOM     19  C   UNL     1       7.703   4.571  17.907  0.00  0.00    +0.000 C 
BRANCH  19  20
ATOM     20  O   UNL     1       6.581   4.072  18.638  0.00  0.00    +0.000 OA
ATOM     21  H   UNL     1       6.956   3.485  19.318  0.00  0.00    +0.000 HD
ENDBRANCH  19  20
ENDBRANCH  13  19
ENDBRANCH   1  13
TORSDOF 13
ENDMDL
MODEL 2
REMARK VINA RESULT:      -6.2      1.312      2.004
REMARK  Name = 
REMARK  15 active torsions:
REMARK  status: ('A' for Active; 'I' for Inactive)
REMARK    1  A    between atoms: C_1  and  C_2
REMARK    2  A    between atoms: C_2  and  C_3
REMARK    3  A    between atoms: C_3  and  C_4
REMARK    4  A    between atoms: C_4  and  C_5
REMARK    5  A    between atoms: C_5  and  C_6
REMARK    6  A    between atoms: C_6  and  C_7
REMARK    7  A    between atoms: C_7  and  C_8
REMARK    8  A    between atoms: C_8  and  C_9
REMARK    9  A    between atoms: C_9  and  C_10
REMARK   10  A    between atoms: C_10  and  O_11
REMARK   11  A    between atoms: C_10  and  CA_12
REMARK   12  A    between atoms: CA_12  and  C_13
REMARK   13  A    between atoms: CA_12  and  N_15
REMARK   14  A    between atoms: C_13  and  O_14
REMARK   15  A    between atoms: C_16  and  C_17
REMARK                            x       y       z     vdW  Elec       q    Type
REMARK                         _______ _______ _______ _____ _____    ______ ____
ROOT
ATOM      1  C   UNL     1       6.599   5.063  18.878  0.00  0.00    +0.000 C 
ENDROOT
BRANCH   1   2
ATOM      2  O   UNL     1       7.330   5.493  20.034  0.00  0.00    +0.000 OA
ATOM      3  H   UNL     1       6.798   6.148  20.515  0.00  0.00    +0.000 HD
ENDBRANCH   1   2
BRANCH   1   4
ATOM      4  C   UNL     1       5.123   4.891  19.265  0.00  0.00    +0.000 C 
BRANCH   4   5
ATOM      5  C   UNL     1       4.165   5.903  18.616  0.00  0.00    +0.000 C 
BRANCH   5   6
ATOM      6  C   UNL     1       3.186   5.245  17.642  0.00  0.00    +0.000 C 
BRANCH   6   7
ATOM      7  C   UNL     1       3.631   3.842  17.230  0.00  0.00    +0.000 C 
BRANCH   7   8
ATOM      8  C   UNL     1       2.538   2.809  17.464  0.00  0.00    +0.000 C 
BRANCH   8   9
ATOM      9  C   UNL     1       1.352   3.458  18.175  0.00  0.00    +0.000 C 
BRANCH   9  10
ATOM     10  C   UNL     1       0.810   2.543  19.267  0.00  0.00    +0.000 C 
BRANCH  10  12
ATOM     11  C   UNL     1       1.322   4.569  20.652  0.00  0.00    +0.000 C 
ATOM     12  C   UNL     1       1.185   3.055  20.653  0.00  0.00    +0.000 C 
ENDBRANCH  10  12
ENDBRANCH   9  10
ENDBRANCH   8   9
ENDBRANCH   7   8
ENDBRANCH   6   7
ENDBRANCH   5   6
ENDBRANCH   4   5
ENDBRANCH   1   4
BRANCH   1  13
ATOM     13  CA  UNL     1       6.840   6.020  17.689  0.00  0.00    +0.000 C 
BRANCH  13  14
ATOM     14  N   UNL     1       7.180   5.337  16.430  0.00  0.00    +0.000 N 
ATOM     15  C   UNL     1       6.458   5.487  15.269  0.00  0.00    +0.000 C 
ATOM     16  C   UNL     1       6.998   4.716  14.095  0.00  0.00    +0.000 C 
ATOM     17  O   UNL     1       5.444   6.169  15.187  0.00  0.00    +0.000 OA
ATOM     18  H   UNL     1       8.016   4.767  16.421  0.00  0.00    +0.000 HD
ENDBRANCH  13  14
BRANCH  13  19
ATOM     19  C   UNL     1       7.878   7.095  18.060  0.00  0.00    +0.000 C 
BRANCH  19  20
ATOM     20  O   UNL     1       7.683   8.251  17.242  0.00  0.00    +0.000 OA
ATOM     21  H   UNL     1       6.736   8.249  17.014  0.00  0.00    +0.000 HD
ENDBRANCH  19  20
ENDBRANCH  13  19
ENDBRANCH   1  13
TORSDOF 13
ENDMDL
MODEL 3
REMARK VINA RESULT:      -5.8      1.673      3.408
REMARK  Name = 
REMARK  15 active torsions:
REMARK  status: ('A' for Active; 'I' for Inactive)
REMARK    1  A    between atoms: C_1  and  C_2
REMARK    2  A    between atoms: C_2  and  C_3
REMARK    3  A    between atoms: C_3  and  C_4
REMARK    4  A    between atoms: C_4  and  C_5
REMARK    5  A    between atoms: C_5  and  C_6
REMARK    6  A    between atoms: C_6  and  C_7
REMARK    7  A    between atoms: C_7  and  C_8
REMARK    8  A    between atoms: C_8  and  C_9
REMARK    9  A    between atoms: C_9  and  C_10
REMARK   10  A    between atoms: C_10  and  O_11
REMARK   11  A    between atoms: C_10  and  CA_12
REMARK   12  A    between atoms: CA_12  and  C_13
REMARK   13  A    between atoms: CA_12  and  N_15
REMARK   14  A    between atoms: C_13  and  O_14
REMARK   15  A    between atoms: C_16  and  C_17
REMARK                            x       y       z     vdW  Elec       q    Type
REMARK                         _______ _______ _______ _____ _____    ______ ____
ROOT
ATOM      1  C   UNL     1       5.884   4.666  17.609  0.00  0.00    +0.000 C 
ENDROOT
BRANCH   1   2
ATOM      2  O   UNL     1       6.425   3.978  18.745  0.00  0.00    +0.000 OA
ATOM      3  H   UNL     1       5.816   4.082  19.494  0.00  0.00    +0.000 HD
ENDBRANCH   1   2
BRANCH   1   4
ATOM      4  C   UNL     1       4.883   5.720  18.103  0.00  0.00    +0.000 C 
BRANCH   4   5
ATOM      5  C   UNL     1       3.412   5.410  17.784  0.00  0.00    +0.000 C 
BRANCH   5   6
ATOM      6  C   UNL     1       2.445   6.069  18.771  0.00  0.00    +0.000 C 
BRANCH   6   7
ATOM      7  C   UNL     1       2.036   5.125  19.902  0.00  0.00    +0.000 C 
BRANCH   7   8
ATOM      8  C   UNL     1       1.136   4.003  19.407  0.00  0.00    +0.000 C 
BRANCH   8   9
ATOM      9  C   UNL     1       1.614   2.666  19.970  0.00  0.00    +0.000 C 
BRANCH   9  10
ATOM     10  C   UNL     1       3.001   2.803  20.587  0.00  0.00    +0.000 C 
BRANCH  10  12
ATOM     11  C   UNL     1       3.439   1.550  18.460  0.00  0.00    +0.000 C 
ATOM     12  C   UNL     1       4.068   2.183  19.690  0.00  0.00    +0.000 C 
ENDBRANCH  10  12
ENDBRANCH   9  10
ENDBRANCH   8   9
ENDBRANCH   7   8
ENDBRANCH   6   7
ENDBRANCH   5   6
ENDBRANCH   4   5
ENDBRANCH   1   4
BRANCH   1  13
ATOM     13  CA  UNL     1       7.015   5.227  16.717  0.00  0.00    +0.000 C 
BRANCH  13  14
ATOM     14  N   UNL     1       7.174   6.687  16.800  0.00  0.00    +0.000 N 
ATOM     15  C   UNL     1       7.790   7.323  17.852  0.00  0.00    +0.000 C 
ATOM     16  C   UNL     1       7.865   8.820  17.718  0.00  0.00    +0.000 C 
ATOM     17  O   UNL     1       8.225   6.737  18.836  0.00  0.00    +0.000 OA
ATOM     18  H   UNL     1       6.850   7.235  16.013  0.00  0.00    +0.000 HD
ENDBRANCH  13  14
BRANCH  13  19
ATOM     19  C   UNL     1       6.850   4.745  15.264  0.00  0.00    +0.000 C 
BRANCH  19  20
ATOM     20  O   UNL     1       7.762   5.451  14.419  0.00  0.00    +0.000 OA
ATOM     21  H   UNL     1       7.589   5.121  13.520  0.00  0.00    +0.000 HD
ENDBRANCH  19  20
ENDBRANCH  13  19
ENDBRANCH   1  13
TORSDOF 13
ENDMDL
MODEL 4
REMARK VINA RESULT:      -5.8      1.351      1.576
REMARK  Name = 
REMARK  15 active torsions:
REMARK  status: ('A' for Active; 'I' for Inactive)
REMARK    1  A    between atoms: C_1  and  C_2
REMARK    2  A    between atoms: C_2  and  C_3
REMARK    3  A    between atoms: C_3  and  C_4
REMARK    4  A    between atoms: C_4  and  C_5
REMARK    5  A    between atoms: C_5  and  C_6
REMARK    6  A    between atoms: C_6  and  C_7
REMARK    7  A    between atoms: C_7  and  C_8
REMARK    8  A    between atoms: C_8  and  C_9
REMARK    9  A    between atoms: C_9  and  C_10
REMARK   10  A    between atoms: C_10  and  O_11
REMARK   11  A    between atoms: C_10  and  CA_12
REMARK   12  A    between atoms: CA_12  and  C_13
REMARK   13  A    between atoms: CA_12  and  N_15
REMARK   14  A    between atoms: C_13  and  O_14
REMARK   15  A    between atoms: C_16  and  C_17
REMARK                            x       y       z     vdW  Elec       q    Type
REMARK                         _______ _______ _______ _____ _____    ______ ____
ROOT
ATOM      1  C   UNL     1       5.395   6.413  17.382  0.00  0.00    +0.000 C 
ENDROOT
BRANCH   1   2
ATOM      2  O   UNL     1       4.642   7.000  16.312  0.00  0.00    +0.000 OA
ATOM      3  H   UNL     1       5.080   7.821  16.034  0.00  0.00    +0.000 HD
ENDBRANCH   1   2
BRANCH   1   4
ATOM      4  C   UNL     1       4.424   5.704  18.336  0.00  0.00    +0.000 C 
BRANCH   4   5
ATOM      5  C   UNL     1       3.119   6.469  18.612  0.00  0.00    +0.000 C 
BRANCH   5   6
ATOM      6  C   UNL     1       1.878   5.694  18.164  0.00  0.00    +0.000 C 
BRANCH   6   7
ATOM      7  C   UNL     1       2.210   4.269  17.722  0.00  0.00    +0.000 C 
BRANCH   7   8
ATOM      8  C   UNL     1       1.203   3.260  18.254  0.00  0.00    +0.000 C 
BRANCH   8   9
ATOM      9  C   UNL     1       0.959   3.505  19.742  0.00  0.00    +0.000 C 
BRANCH   9  10
ATOM     10  C   UNL     1       1.658   2.445  20.586  0.00  0.00    +0.000 C 
BRANCH  10  12
ATOM     11  C   UNL     1       4.144   2.374  20.273  0.00  0.00    +0.000 C 
ATOM     12  C   UNL     1       3.004   2.947  21.098  0.00  0.00    +0.000 C 
ENDBRANCH  10  12
ENDBRANCH   9  10
ENDBRANCH   8   9
ENDBRANCH   7   8
ENDBRANCH   6   7
ENDBRANCH   5   6
ENDBRANCH   4   5
ENDBRANCH   1   4
BRANCH   1  13
ATOM     13  CA  UNL     1       6.521   5.510  16.829  0.00  0.00    +0.000 C 
BRANCH  13  14
ATOM     14  N   UNL     1       6.118   4.688  15.677  0.00  0.00    +0.000 N 
ATOM     15  C   UNL     1       6.763   4.718  14.462  0.00  0.00    +0.000 C 
ATOM     16  C   UNL     1       6.198   3.777  13.433  0.00  0.00    +0.000 C 
ATOM     17  O   UNL     1       7.706   5.460  14.216  0.00  0.00    +0.000 OA
ATOM     18  H   UNL     1       5.353   4.039  15.813  0.00  0.00    +0.000 HD
ENDBRANCH  13  14
BRANCH  13  19
ATOM     19  C   UNL     1       7.138   4.661  17.955  0.00  0.00    +0.000 C 
BRANCH  19  20
ATOM     20  O   UNL     1       8.323   4.019  17.477  0.00  0.00    +0.000 OA
ATOM     21  H   UNL     1       8.011   3.294  16.906  0.00  0.00    +0.000 HD
ENDBRANCH  19  20
ENDBRANCH  13  19
ENDBRANCH   1  13
TORSDOF 13
ENDMDL
MODEL 5
REMARK VINA RESULT:      -5.7      1.312      2.198
REMARK  Name = 
REMARK  15 active torsions:
REMARK  status: ('A' for Active; 'I' for Inactive)
REMARK    1  A    between atoms: C_1  and  C_2
REMARK    2  A    between atoms: C_2  and  C_3
REMARK    3  A    between atoms: C_3  and  C_4
REMARK    4  A    between atoms: C_4  and  C_5
REMARK    5  A    between atoms: C_5  and  C_6
REMARK    6  A    between atoms: C_6  and  C_7
REMARK    7  A    between atoms: C_7  and  C_8
REMARK    8  A    between atoms: C_8  and  C_9
REMARK    9  A    between atoms: C_9  and  C_10
REMARK   10  A    between atoms: C_10  and  O_11
REMARK   11  A    between atoms: C_10  and  CA_12
REMARK   12  A    between atoms: CA_12  and  C_13
REMARK   13  A    between atoms: CA_12  and  N_15
REMARK   14  A    between atoms: C_13  and  O_14
REMARK   15  A    between atoms: C_16  and  C_17
REMARK                            x       y       z     vdW  Elec       q    Type
REMARK                         _______ _______ _______ _____ _____    ______ ____
ROOT
ATOM      1  C   UNL     1       4.741   6.301  17.580  0.00  0.00    +0.000 C 
ENDROOT
BRANCH   1   2
ATOM      2  O   UNL     1       4.549   7.229  16.503  0.00  0.00    +0.000 OA
ATOM      3  H   UNL     1       4.933   6.853  15.694  0.00  0.00    +0.000 HD
ENDBRANCH   1   2
BRANCH   1   4
ATOM      4  C   UNL     1       3.407   5.596  17.865  0.00  0.00    +0.000 C 
BRANCH   4   5
ATOM      5  C   UNL     1       2.312   6.501  18.452  0.00  0.00    +0.000 C 
BRANCH   5   6
ATOM      6  C   UNL     1       2.250   6.433  19.979  0.00  0.00    +0.000 C 
BRANCH   6   7
ATOM      7  C   UNL     1       2.374   5.002  20.503  0.00  0.00    +0.000 C 
BRANCH   7   8
ATOM      8  C   UNL     1       1.052   4.252  20.424  0.00  0.00    +0.000 C 
BRANCH   8   9
ATOM      9  C   UNL     1       1.312   2.761  20.217  0.00  0.00    +0.000 C 
BRANCH   9  10
ATOM     10  C   UNL     1       0.935   2.337  18.802  0.00  0.00    +0.000 C 
BRANCH  10  12
ATOM     11  C   UNL     1       3.349   1.697  18.583  0.00  0.00    +0.000 C 
ATOM     12  C   UNL     1       2.154   2.327  17.886  0.00  0.00    +0.000 C 
ENDBRANCH  10  12
ENDBRANCH   9  10
ENDBRANCH   8   9
ENDBRANCH   7   8
ENDBRANCH   6   7
ENDBRANCH   5   6
ENDBRANCH   4   5
ENDBRANCH   1   4
BRANCH   1  13
ATOM     13  CA  UNL     1       5.918   5.346  17.278  0.00  0.00    +0.000 C 
BRANCH  13  14
ATOM     14  N   UNL     1       5.775   4.600  16.019  0.00  0.00    +0.000 N 
ATOM     15  C   UNL     1       6.638   4.734  14.956  0.00  0.00    +0.000 C 
ATOM     16  C   UNL     1       6.319   3.855  13.778  0.00  0.00    +0.000 C 
ATOM     17  O   UNL     1       7.580   5.518  14.946  0.00  0.00    +0.000 OA
ATOM     18  H   UNL     1       5.026   3.921  15.962  0.00  0.00    +0.000 HD
ENDBRANCH  13  14
BRANCH  13  19
ATOM     19  C   UNL     1       6.181   4.414  18.475  0.00  0.00    +0.000 C 
BRANCH  19  20
ATOM     20  O   UNL     1       6.453   5.196  19.641  0.00  0.00    +0.000 OA
ATOM     21  H   UNL     1       7.279   5.673  19.445  0.00  0.00    +0.000 HD
ENDBRANCH  19  20
ENDBRANCH  13  19
ENDBRANCH   1  13
TORSDOF 13
ENDMDL
MODEL 6
REMARK VINA RESULT:      -5.7      1.460      3.338
REMARK  Name = 
REMARK  15 active torsions:
REMARK  status: ('A' for Active; 'I' for Inactive)
REMARK    1  A    between atoms: C_1  and  C_2
REMARK    2  A    between atoms: C_2  and  C_3
REMARK    3  A    between atoms: C_3  and  C_4
REMARK    4  A    between atoms: C_4  and  C_5
REMARK    5  A    between atoms: C_5  and  C_6
REMARK    6  A    between atoms: C_6  and  C_7
REMARK    7  A    between atoms: C_7  and  C_8
REMARK    8  A    between atoms: C_8  and  C_9
REMARK    9  A    between atoms: C_9  and  C_10
REMARK   10  A    between atoms: C_10  and  O_11
REMARK   11  A    between atoms: C_10  and  CA_12
REMARK   12  A    between atoms: CA_12  and  C_13
REMARK   13  A    between atoms: CA_12  and  N_15
REMARK   14  A    between atoms: C_13  and  O_14
REMARK   15  A    between atoms: C_16  and  C_17
REMARK                            x       y       z     vdW  Elec       q    Type
REMARK                         _______ _______ _______ _____ _____    ______ ____
ROOT
ATOM      1  C   UNL     1       5.485   4.468  16.187  0.00  0.00    +0.000 C 
ENDROOT
BRANCH   1   2
ATOM      2  O   UNL     1       5.640   3.455  17.190  0.00  0.00    +0.000 OA
ATOM      3  H   UNL     1       5.248   3.773  18.020  0.00  0.00    +0.000 HD
ENDBRANCH   1   2
BRANCH   1   4
ATOM      4  C   UNL     1       4.521   5.540  16.715  0.00  0.00    +0.000 C 
BRANCH   4   5
ATOM      5  C   UNL     1       4.224   5.453  18.221  0.00  0.00    +0.000 C 
BRANCH   5   6
ATOM      6  C   UNL     1       3.181   6.477  18.674  0.00  0.00    +0.000 C 
BRANCH   6   7
ATOM      7  C   UNL     1       1.889   5.817  19.156  0.00  0.00    +0.000 C 
BRANCH   7   8
ATOM      8  C   UNL     1       1.997   5.345  20.599  0.00  0.00    +0.000 C 
BRANCH   8   9
ATOM      9  C   UNL     1       1.995   3.818  20.648  0.00  0.00    +0.000 C 
BRANCH   9  10
ATOM     10  C   UNL     1       0.809   3.253  19.875  0.00  0.00    +0.000 C 
BRANCH  10  12
ATOM     11  C   UNL     1       2.764   2.020  18.905  0.00  0.00    +0.000 C 
ATOM     12  C   UNL     1       1.266   2.255  18.816  0.00  0.00    +0.000 C 
ENDBRANCH  10  12
ENDBRANCH   9  10
ENDBRANCH   8   9
ENDBRANCH   7   8
ENDBRANCH   6   7
ENDBRANCH   5   6
ENDBRANCH   4   5
ENDBRANCH   1   4
BRANCH   1  13
ATOM     13  CA  UNL     1       6.860   5.010  15.737  0.00  0.00    +0.000 C 
BRANCH  13  14
ATOM     14  N   UNL     1       7.154   6.369  16.219  0.00  0.00    +0.000 N 
ATOM     15  C   UNL     1       7.605   6.642  17.489  0.00  0.00    +0.000 C 
ATOM     16  C   UNL     1       7.866   8.099  17.759  0.00  0.00    +0.000 C 
ATOM     17  O   UNL     1       7.763   5.783  18.349  0.00  0.00    +0.000 OA
ATOM     18  H   UNL     1       7.060   7.128  15.555  0.00  0.00    +0.000 HD
ENDBRANCH  13  14
BRANCH  13  19
ATOM     19  C   UNL     1       7.018   4.892  14.210  0.00  0.00    +0.000 C 
BRANCH  19  20
ATOM     20  O   UNL     1       8.133   5.677  13.782  0.00  0.00    +0.000 OA
ATOM     21  H   UNL     1       7.760   6.540  13.529  0.00  0.00    +0.000 HD
ENDBRANCH  19  20
ENDBRANCH  13  19
ENDBRANCH   1  13
TORSDOF 13
ENDMDL
MODEL 7
REMARK VINA RESULT:      -5.7      1.518      3.249
REMARK  Name = 
REMARK  15 active torsions:
REMARK  status: ('A' for Active; 'I' for Inactive)
REMARK    1  A    between atoms: C_1  and  C_2
REMARK    2  A    between atoms: C_2  and  C_3
REMARK    3  A    between atoms: C_3  and  C_4
REMARK    4  A    between atoms: C_4  and  C_5
REMARK    5  A    between atoms: C_5  and  C_6
REMARK    6  A    between atoms: C_6  and  C_7
REMARK    7  A    between atoms: C_7  and  C_8
REMARK    8  A    between atoms: C_8  and  C_9
REMARK    9  A    between atoms: C_9  and  C_10
REMARK   10  A    between atoms: C_10  and  O_11
REMARK   11  A    between atoms: C_10  and  CA_12
REMARK   12  A    between atoms: CA_12  and  C_13
REMARK   13  A    between atoms: CA_12  and  N_15
REMARK   14  A    between atoms: C_13  and  O_14
REMARK   15  A    between atoms: C_16  and  C_17
REMARK                            x       y       z     vdW  Elec       q    Type
REMARK                         _______ _______ _______ _____ _____    ______ ____
ROOT
ATOM      1  C   UNL     1       5.450   4.248  17.053  0.00  0.00    +0.000 C 
ENDROOT
BRANCH   1   2
ATOM      2  O   UNL     1       6.105   3.840  18.262  0.00  0.00    +0.000 OA
ATOM      3  H   UNL     1       6.983   4.253  18.297  0.00  0.00    +0.000 HD
ENDBRANCH   1   2
BRANCH   1   4
ATOM      4  C   UNL     1       4.260   5.147  17.418  0.00  0.00    +0.000 C 
BRANCH   4   5
ATOM      5  C   UNL     1       2.887   4.457  17.355  0.00  0.00    +0.000 C 
BRANCH   5   6
ATOM      6  C   UNL     1       2.998   2.950  17.114  0.00  0.00    +0.000 C 
BRANCH   6   7
ATOM      7  C   UNL     1       2.335   2.134  18.223  0.00  0.00    +0.000 C 
BRANCH   7   8
ATOM      8  C   UNL     1       2.988   2.379  19.576  0.00  0.00    +0.000 C 
BRANCH   8   9
ATOM      9  C   UNL     1       1.917   2.671  20.625  0.00  0.00    +0.000 C 
BRANCH   9  10
ATOM     10  C   UNL     1       2.137   4.042  21.255  0.00  0.00    +0.000 C 
BRANCH  10  12
ATOM     11  C   UNL     1       2.042   6.391  20.385  0.00  0.00    +0.000 C 
ATOM     12  C   UNL     1       1.265   5.101  20.589  0.00  0.00    +0.000 C 
ENDBRANCH  10  12
ENDBRANCH   9  10
ENDBRANCH   8   9
ENDBRANCH   7   8
ENDBRANCH   6   7
ENDBRANCH   5   6
ENDBRANCH   4   5
ENDBRANCH   1   4
BRANCH   1  13
ATOM     13  CA  UNL     1       6.457   4.887  16.072  0.00  0.00    +0.000 C 
BRANCH  13  14
ATOM     14  N   UNL     1       6.778   6.291  16.373  0.00  0.00    +0.000 N 
ATOM     15  C   UNL     1       7.480   6.685  17.488  0.00  0.00    +0.000 C 
ATOM     16  C   UNL     1       7.717   8.168  17.584  0.00  0.00    +0.000 C 
ATOM     17  O   UNL     1       7.867   5.909  18.353  0.00  0.00    +0.000 OA
ATOM     18  H   UNL     1       6.501   6.988  15.693  0.00  0.00    +0.000 HD
ENDBRANCH  13  14
BRANCH  13  19
ATOM     19  C   UNL     1       5.990   4.702  14.616  0.00  0.00    +0.000 C 
BRANCH  19  20
ATOM     20  O   UNL     1       6.450   3.442  14.123  0.00  0.00    +0.000 OA
ATOM     21  H   UNL     1       6.903   3.642  13.284  0.00  0.00    +0.000 HD
ENDBRANCH  19  20
ENDBRANCH  13  19
ENDBRANCH   1  13
TORSDOF 13
ENDMDL
MODEL 8
REMARK VINA RESULT:      -5.7      1.671      3.262
REMARK  Name = 
REMARK  15 active torsions:
REMARK  status: ('A' for Active; 'I' for Inactive)
REMARK    1  A    between atoms: C_1  and  C_2
REMARK    2  A    between atoms: C_2  and  C_3
REMARK    3  A    between atoms: C_3  and  C_4
REMARK    4  A    between atoms: C_4  and  C_5
REMARK    5  A    between atoms: C_5  and  C_6
REMARK    6  A    between atoms: C_6  and  C_7
REMARK    7  A    between atoms: C_7  and  C_8
REMARK    8  A    between atoms: C_8  and  C_9
REMARK    9  A    between atoms: C_9  and  C_10
REMARK   10  A    between atoms: C_10  and  O_11
REMARK   11  A    between atoms: C_10  and  CA_12
REMARK   12  A    between atoms: CA_12  and  C_13
REMARK   13  A    between atoms: CA_12  and  N_15
REMARK   14  A    between atoms: C_13  and  O_14
REMARK   15  A    between atoms: C_16  and  C_17
REMARK                            x       y       z     vdW  Elec       q    Type
REMARK                         _______ _______ _______ _____ _____    ______ ____
ROOT
ATOM      1  C   UNL     1       5.695   4.622  17.510  0.00  0.00    +0.000 C 
ENDROOT
BRANCH   1   2
ATOM      2  O   UNL     1       6.107   3.856  18.650  0.00  0.00    +0.000 OA
ATOM      3  H   UNL     1       7.037   3.600  18.537  0.00  0.00    +0.000 HD
ENDBRANCH   1   2
BRANCH   1   4
ATOM      4  C   UNL     1       4.716   5.710  17.976  0.00  0.00    +0.000 C 
BRANCH   4   5
ATOM      5  C   UNL     1       3.258   5.495  17.539  0.00  0.00    +0.000 C 
BRANCH   5   6
ATOM      6  C   UNL     1       2.886   4.014  17.444  0.00  0.00    +0.000 C 
BRANCH   6   7
ATOM      7  C   UNL     1       1.516   3.719  18.055  0.00  0.00    +0.000 C 
BRANCH   7   8
ATOM      8  C   UNL     1       1.632   2.970  19.375  0.00  0.00    +0.000 C 
BRANCH   8   9
ATOM      9  C   UNL     1       1.059   3.820  20.507  0.00  0.00    +0.000 C 
BRANCH   9  10
ATOM     10  C   UNL     1       2.000   4.969  20.851  0.00  0.00    +0.000 C 
BRANCH  10  12
ATOM     11  C   UNL     1       2.083   7.369  20.132  0.00  0.00    +0.000 C 
ATOM     12  C   UNL     1       1.266   6.305  20.845  0.00  0.00    +0.000 C 
ENDBRANCH  10  12
ENDBRANCH   9  10
ENDBRANCH   8   9
ENDBRANCH   7   8
ENDBRANCH   6   7
ENDBRANCH   5   6
ENDBRANCH   4   5
ENDBRANCH   1   4
BRANCH   1  13
ATOM     13  CA  UNL     1       6.921   5.155  16.735  0.00  0.00    +0.000 C 
BRANCH  13  14
ATOM     14  N   UNL     1       7.076   6.617  16.790  0.00  0.00    +0.000 N 
ATOM     15  C   UNL     1       7.728   7.272  17.809  0.00  0.00    +0.000 C 
ATOM     16  C   UNL     1       7.790   8.767  17.650  0.00  0.00    +0.000 C 
ATOM     17  O   UNL     1       8.204   6.702  18.783  0.00  0.00    +0.000 OA
ATOM     18  H   UNL     1       6.719   7.152  16.008  0.00  0.00    +0.000 HD
ENDBRANCH  13  14
BRANCH  13  19
ATOM     19  C   UNL     1       6.919   4.629  15.288  0.00  0.00    +0.000 C 
BRANCH  19  20
ATOM     20  O   UNL     1       5.909   3.628  15.143  0.00  0.00    +0.000 OA
ATOM     21  H   UNL     1       5.120   4.101  14.824  0.00  0.00    +0.000 HD
ENDBRANCH  19  20
ENDBRANCH  13  19
ENDBRANCH   1  13
TORSDOF 13
ENDMDL
MODEL 9
REMARK VINA RESULT:      -5.7      0.850      1.706
REMARK  Name = 
REMARK  15 active torsions:
REMARK  status: ('A' for Active; 'I' for Inactive)
REMARK    1  A    between atoms: C_1  and  C_2
REMARK    2  A    between atoms: C_2  and  C_3
REMARK    3  A    between atoms: C_3  and  C_4
REMARK    4  A    between atoms: C_4  and  C_5
REMARK    5  A    between atoms: C_5  and  C_6
REMARK    6  A    between atoms: C_6  and  C_7
REMARK    7  A    between atoms: C_7  and  C_8
REMARK    8  A    between atoms: C_8  and  C_9
REMARK    9  A    between atoms: C_9  and  C_10
REMARK   10  A    between atoms: C_10  and  O_11
REMARK   11  A    between atoms: C_10  and  CA_12
REMARK   12  A    between atoms: CA_12  and  C_13
REMARK   13  A    between atoms: CA_12  and  N_15
REMARK   14  A    between atoms: C_13  and  O_14
REMARK   15  A    between atoms: C_16  and  C_17
REMARK                            x       y       z     vdW  Elec       q    Type
REMARK                         _______ _______ _______ _____ _____    ______ ____
ROOT
ATOM      1  C   UNL     1       6.568   6.756  17.233  0.00  0.00    +0.000 C 
ENDROOT
BRANCH   1   2
ATOM      2  O   UNL     1       7.329   7.938  16.954  0.00  0.00    +0.000 OA
ATOM      3  H   UNL     1       7.373   8.481  17.758  0.00  0.00    +0.000 HD
ENDBRANCH   1   2
BRANCH   1   4
ATOM      4  C   UNL     1       5.182   6.900  16.588  0.00  0.00    +0.000 C 
BRANCH   4   5
ATOM      5  C   UNL     1       4.077   6.051  17.238  0.00  0.00    +0.000 C 
BRANCH   5   6
ATOM      6  C   UNL     1       3.080   6.894  18.035  0.00  0.00    +0.000 C 
BRANCH   6   7
ATOM      7  C   UNL     1       2.101   6.034  18.835  0.00  0.00    +0.000 C 
BRANCH   7   8
ATOM      8  C   UNL     1       2.332   6.159  20.334  0.00  0.00    +0.000 C 
BRANCH   8   9
ATOM      9  C   UNL     1       2.093   4.810  21.011  0.00  0.00    +0.000 C 
BRANCH   9  10
ATOM     10  C   UNL     1       0.954   4.059  20.332  0.00  0.00    +0.000 C 
BRANCH  10  12
ATOM     11  C   UNL     1       1.208   2.298  18.566  0.00  0.00    +0.000 C 
ATOM     12  C   UNL     1       1.341   2.611  20.047  0.00  0.00    +0.000 C 
ENDBRANCH  10  12
ENDBRANCH   9  10
ENDBRANCH   8   9
ENDBRANCH   7   8
ENDBRANCH   6   7
ENDBRANCH   5   6
ENDBRANCH   4   5
ENDBRANCH   1   4
BRANCH   1  13
ATOM     13  CA  UNL     1       7.344   5.490  16.806  0.00  0.00    +0.000 C 
BRANCH  13  14
ATOM     14  N   UNL     1       6.666   4.694  15.770  0.00  0.00    +0.000 N 
ATOM     15  C   UNL     1       6.975   4.771  14.432  0.00  0.00    +0.000 C 
ATOM     16  C   UNL     1       6.175   3.849  13.553  0.00  0.00    +0.000 C 
ATOM     17  O   UNL     1       7.813   5.539  13.976  0.00  0.00    +0.000 OA
ATOM     18  H   UNL     1       5.971   4.025  16.078  0.00  0.00    +0.000 HD
ENDBRANCH  13  14
BRANCH  13  19
ATOM     19  C   UNL     1       7.716   4.641  18.035  0.00  0.00    +0.000 C 
BRANCH  19  20
ATOM     20  O   UNL     1       6.545   4.001  18.548  0.00  0.00    +0.000 OA
ATOM     21  H   UNL     1       6.806   3.641  19.414  0.00  0.00    +0.000 HD
ENDBRANCH  19  20
ENDBRANCH  13  19
ENDBRANCH   1  13
TORSDOF 13
ENDMDL
