MODEL 1
REMARK VINA RESULT:      -6.9      0.000      0.000
REMARK  Name = 
REMARK  6 active torsions:
REMARK  status: ('A' for Active; 'I' for Inactive)
REMARK    1  A    between atoms: C_1  and  C_2
REMARK    2  A    between atoms: C_15  and  C_16
REMARK    3  A    between atoms: C_17  and  C_18
REMARK    4  A    between atoms: C_18  and  C_20
REMARK    5  A    between atoms: C_20  and  O_21
REMARK    6  A    between atoms: C_23  and  O_24
REMARK                            x       y       z     vdW  Elec       q    Type
REMARK                         _______ _______ _______ _____ _____    ______ ____
ROOT
ATOM      1  C   UNL     1       3.864   5.337  20.125  0.00  0.00    +0.000 C 
ATOM      2  C   UNL     1       2.949   4.457  19.216  0.00  0.00    +0.000 C 
ATOM      3  C   UNL     1       1.496   4.712  19.710  0.00  0.00    +0.000 C 
ATOM      4  C   UNL     1       1.318   4.340  21.190  0.00  0.00    +0.000 C 
ATOM      5  C   UNL     1       1.804   2.938  21.474  0.00  0.00    +0.000 C 
ATOM      6  O   UNL     1       1.438   2.307  22.462  0.00  0.00    +0.000 OA
ATOM      7  C   UNL     1       2.759   2.312  20.533  0.00  0.00    +0.000 C 
ATOM      8  C   UNL     1       3.245   2.965  19.459  0.00  0.00    +0.000 C 
ATOM      9  C   UNL     1       4.063   2.148  18.477  0.00  0.00    +0.000 C 
ATOM     10  C   UNL     1       3.969   2.620  17.023  0.00  0.00    +0.000 C 
ATOM     11  C   UNL     1       4.283   4.108  17.002  0.00  0.00    +0.000 C 
ATOM     12  C   UNL     1       3.113   4.888  17.682  0.00  0.00    +0.000 C 
ATOM     13  C   UNL     1       3.291   6.411  17.568  0.00  0.00    +0.000 C 
ATOM     14  C   UNL     1       3.988   6.852  16.323  0.00  0.00    +0.000 C 
ATOM     15  C   UNL     1       5.294   6.122  15.929  0.00  0.00    +0.000 C 
ATOM     16  C   UNL     1       5.627   6.923  14.605  0.00  0.00    +0.000 C 
ATOM     17  C   UNL     1       6.667   5.919  16.794  0.00  0.00    +0.000 C 
ATOM     18  C   UNL     1       7.421   5.059  15.749  0.00  0.00    +0.000 C 
ATOM     19  C   UNL     1       6.322   4.084  15.226  0.00  0.00    +0.000 C 
ATOM     20  C   UNL     1       4.919   4.657  15.662  0.00  0.00    +0.000 C 
ENDROOT
BRANCH  17  21
ATOM     21  C   UNL     1       7.035   4.983  18.064  0.00  0.00    +0.000 C 
ATOM     22  O   UNL     1       7.763   3.974  17.970  0.00  0.00    +0.000 OA
BRANCH  21  23
ATOM     23  C   UNL     1       6.642   5.376  19.459  0.00  0.00    +0.000 C 
BRANCH  23  24
ATOM     24  O   UNL     1       7.828   5.498  20.250  0.00  0.00    +0.000 OA
ATOM     25  H   UNL     1       7.778   4.784  20.923  0.00  0.00    +0.000 HD
ENDBRANCH  23  24
ENDBRANCH  21  23
ENDBRANCH  17  21
BRANCH  19  26
ATOM     26  O   UNL     1       6.469   4.057  13.804  0.00  0.00    +0.000 OA
ATOM     27  H   UNL     1       6.291   4.938  13.441  0.00  0.00    +0.000 HD
ENDBRANCH  19  26
TORSDOF 4
ENDMDL
MODEL 2
REMARK VINA RESULT:      -6.1      9.549     11.639
REMARK  Name = 
REMARK  6 active torsions:
REMARK  status: ('A' for Active; 'I' for Inactive)
REMARK    1  A    between atoms: C_1  and  C_2
REMARK    2  A    between atoms: C_15  and  C_16
REMARK    3  A    between atoms: C_17  and  C_18
REMARK    4  A    between atoms: C_18  and  C_20
REMARK    5  A    between atoms: C_20  and  O_21
REMARK    6  A    between atoms: C_23  and  O_24
REMARK                            x       y       z     vdW  Elec       q    Type
REMARK                         _______ _______ _______ _____ _____    ______ ____
ROOT
ATOM      1  C   UNL     1      11.023  12.106  19.215  0.00  0.00    +0.000 C 
ATOM      2  C   UNL     1       9.502  12.320  19.493  0.00  0.00    +0.000 C 
ATOM      3  C   UNL     1       9.108  11.233  20.535  0.00  0.00    +0.000 C 
ATOM      4  C   UNL     1       9.375   9.813  20.013  0.00  0.00    +0.000 C 
ATOM      5  C   UNL     1       8.748   9.592  18.657  0.00  0.00    +0.000 C 
ATOM      6  O   UNL     1       8.515   8.466  18.220  0.00  0.00    +0.000 OA
ATOM      7  C   UNL     1       8.411  10.769  17.827  0.00  0.00    +0.000 C 
ATOM      8  C   UNL     1       8.688  12.028  18.218  0.00  0.00    +0.000 C 
ATOM      9  C   UNL     1       8.122  13.147  17.364  0.00  0.00    +0.000 C 
ATOM     10  C   UNL     1       7.790  14.429  18.134  0.00  0.00    +0.000 C 
ATOM     11  C   UNL     1       9.027  14.822  18.927  0.00  0.00    +0.000 C 
ATOM     12  C   UNL     1       9.247  13.789  20.078  0.00  0.00    +0.000 C 
ATOM     13  C   UNL     1      10.395  14.202  21.013  0.00  0.00    +0.000 C 
ATOM     14  C   UNL     1      10.560  15.678  21.162  0.00  0.00    +0.000 C 
ATOM     15  C   UNL     1      10.573  16.537  19.875  0.00  0.00    +0.000 C 
ATOM     16  C   UNL     1      10.767  17.961  20.537  0.00  0.00    +0.000 C 
ATOM     17  C   UNL     1      11.543  16.418  18.563  0.00  0.00    +0.000 C 
ATOM     18  C   UNL     1      10.884  17.555  17.740  0.00  0.00    +0.000 C 
ATOM     19  C   UNL     1       9.358  17.333  17.979  0.00  0.00    +0.000 C 
ATOM     20  C   UNL     1       9.197  16.367  19.215  0.00  0.00    +0.000 C 
ENDROOT
BRANCH  17  21
ATOM     21  C   UNL     1      11.609  15.357  17.340  0.00  0.00    +0.000 C 
ATOM     22  O   UNL     1      11.184  15.619  16.196  0.00  0.00    +0.000 OA
BRANCH  21  23
ATOM     23  C   UNL     1      12.333  14.050  17.484  0.00  0.00    +0.000 C 
BRANCH  23  24
ATOM     24  O   UNL     1      12.244  13.340  16.245  0.00  0.00    +0.000 OA
ATOM     25  H   UNL     1      11.317  13.450  15.938  0.00  0.00    +0.000 HD
ENDBRANCH  23  24
ENDBRANCH  21  23
ENDBRANCH  17  21
BRANCH  19  26
ATOM     26  O   UNL     1       8.811  18.628  18.237  0.00  0.00    +0.000 OA
ATOM     27  H   UNL     1       9.132  18.953  19.092  0.00  0.00    +0.000 HD
ENDBRANCH  19  26
TORSDOF 4
ENDMDL
MODEL 3
REMARK VINA RESULT:      -5.8     11.727     14.632
REMARK  Name = 
REMARK  6 active torsions:
REMARK  status: ('A' for Active; 'I' for Inactive)
REMARK    1  A    between atoms: C_1  and  C_2
REMARK    2  A    between atoms: C_15  and  C_16
REMARK    3  A    between atoms: C_17  and  C_18
REMARK    4  A    between atoms: C_18  and  C_20
REMARK    5  A    between atoms: C_20  and  O_21
REMARK    6  A    between atoms: C_23  and  O_24
REMARK                            x       y       z     vdW  Elec       q    Type
REMARK                         _______ _______ _______ _____ _____    ______ ____
ROOT
ATOM      1  C   UNL     1      -2.545  14.446  20.603  0.00  0.00    +0.000 C 
ATOM      2  C   UNL     1      -2.154  14.374  22.113  0.00  0.00    +0.000 C 
ATOM      3  C   UNL     1      -0.844  15.202  22.247  0.00  0.00    +0.000 C 
ATOM      4  C   UNL     1       0.282  14.645  21.363  0.00  0.00    +0.000 C 
ATOM      5  C   UNL     1       0.488  13.166  21.591  0.00  0.00    +0.000 C 
ATOM      6  O   UNL     1       1.535  12.598  21.288  0.00  0.00    +0.000 OA
ATOM      7  C   UNL     1      -0.611  12.378  22.191  0.00  0.00    +0.000 C 
ATOM      8  C   UNL     1      -1.803  12.923  22.497  0.00  0.00    +0.000 C 
ATOM      9  C   UNL     1      -2.771  12.053  23.278  0.00  0.00    +0.000 C 
ATOM     10  C   UNL     1      -3.706  12.825  24.214  0.00  0.00    +0.000 C 
ATOM     11  C   UNL     1      -4.379  13.916  23.396  0.00  0.00    +0.000 C 
ATOM     12  C   UNL     1      -3.319  14.999  23.017  0.00  0.00    +0.000 C 
ATOM     13  C   UNL     1      -3.955  16.208  22.313  0.00  0.00    +0.000 C 
ATOM     14  C   UNL     1      -5.348  16.510  22.758  0.00  0.00    +0.000 C 
ATOM     15  C   UNL     1      -6.353  15.336  22.834  0.00  0.00    +0.000 C 
ATOM     16  C   UNL     1      -7.624  16.138  23.330  0.00  0.00    +0.000 C 
ATOM     17  C   UNL     1      -6.804  14.284  21.665  0.00  0.00    +0.000 C 
ATOM     18  C   UNL     1      -7.749  13.424  22.542  0.00  0.00    +0.000 C 
ATOM     19  C   UNL     1      -6.961  13.278  23.882  0.00  0.00    +0.000 C 
ATOM     20  C   UNL     1      -5.814  14.360  23.889  0.00  0.00    +0.000 C 
ENDROOT
BRANCH  17  21
ATOM     21  C   UNL     1      -6.051  13.030  20.969  0.00  0.00    +0.000 C 
ATOM     22  O   UNL     1      -6.086  11.875  21.441  0.00  0.00    +0.000 OA
BRANCH  21  23
ATOM     23  C   UNL     1      -5.397  13.165  19.624  0.00  0.00    +0.000 C 
BRANCH  23  24
ATOM     24  O   UNL     1      -5.881  14.360  19.001  0.00  0.00    +0.000 OA
ATOM     25  H   UNL     1      -6.837  14.209  18.834  0.00  0.00    +0.000 HD
ENDBRANCH  23  24
ENDBRANCH  21  23
ENDBRANCH  17  21
BRANCH  19  26
ATOM     26  O   UNL     1      -7.916  13.504  24.922  0.00  0.00    +0.000 OA
ATOM     27  H   UNL     1      -7.644  13.029  25.722  0.00  0.00    +0.000 HD
ENDBRANCH  19  26
TORSDOF 4
ENDMDL
MODEL 4
REMARK VINA RESULT:      -5.8      9.910     12.085
REMARK  Name = 
REMARK  6 active torsions:
REMARK  status: ('A' for Active; 'I' for Inactive)
REMARK    1  A    between atoms: C_1  and  C_2
REMARK    2  A    between atoms: C_15  and  C_16
REMARK    3  A    between atoms: C_17  and  C_18
REMARK    4  A    between atoms: C_18  and  C_20
REMARK    5  A    between atoms: C_20  and  O_21
REMARK    6  A    between atoms: C_23  and  O_24
REMARK                            x       y       z     vdW  Elec       q    Type
REMARK                         _______ _______ _______ _____ _____    ______ ____
ROOT
ATOM      1  C   UNL     1       7.498  15.049  21.841  0.00  0.00    +0.000 C 
ATOM      2  C   UNL     1       8.955  15.028  22.404  0.00  0.00    +0.000 C 
ATOM      3  C   UNL     1       8.806  15.017  23.953  0.00  0.00    +0.000 C 
ATOM      4  C   UNL     1       8.038  16.245  24.466  0.00  0.00    +0.000 C 
ATOM      5  C   UNL     1       8.627  17.531  23.934  0.00  0.00    +0.000 C 
ATOM      6  O   UNL     1       8.427  18.615  24.478  0.00  0.00    +0.000 OA
ATOM      7  C   UNL     1       9.464  17.481  22.715  0.00  0.00    +0.000 C 
ATOM      8  C   UNL     1       9.679  16.337  22.037  0.00  0.00    +0.000 C 
ATOM      9  C   UNL     1      10.705  16.390  20.920  0.00  0.00    +0.000 C 
ATOM     10  C   UNL     1      11.458  15.077  20.685  0.00  0.00    +0.000 C 
ATOM     11  C   UNL     1      10.422  13.976  20.522  0.00  0.00    +0.000 C 
ATOM     12  C   UNL     1       9.725  13.719  21.896  0.00  0.00    +0.000 C 
ATOM     13  C   UNL     1       8.768  12.518  21.843  0.00  0.00    +0.000 C 
ATOM     14  C   UNL     1       9.190  11.442  20.898  0.00  0.00    +0.000 C 
ATOM     15  C   UNL     1       9.615  11.861  19.470  0.00  0.00    +0.000 C 
ATOM     16  C   UNL     1       9.952  10.427  18.889  0.00  0.00    +0.000 C 
ATOM     17  C   UNL     1       8.780  12.711  18.351  0.00  0.00    +0.000 C 
ATOM     18  C   UNL     1       9.894  12.749  17.275  0.00  0.00    +0.000 C 
ATOM     19  C   UNL     1      11.185  13.033  18.105  0.00  0.00    +0.000 C 
ATOM     20  C   UNL     1      10.857  12.751  19.621  0.00  0.00    +0.000 C 
ENDROOT
BRANCH  17  21
ATOM     21  C   UNL     1       8.391  14.280  18.230  0.00  0.00    +0.000 C 
ATOM     22  O   UNL     1       9.176  15.136  17.775  0.00  0.00    +0.000 OA
BRANCH  21  23
ATOM     23  C   UNL     1       6.998  14.759  18.518  0.00  0.00    +0.000 C 
BRANCH  23  24
ATOM     24  O   UNL     1       6.972  16.185  18.399  0.00  0.00    +0.000 OA
ATOM     25  H   UNL     1       7.436  16.530  19.194  0.00  0.00    +0.000 HD
ENDBRANCH  23  24
ENDBRANCH  21  23
ENDBRANCH  17  21
BRANCH  19  26
ATOM     26  O   UNL     1      12.179  12.140  17.597  0.00  0.00    +0.000 OA
ATOM     27  H   UNL     1      12.483  11.553  18.306  0.00  0.00    +0.000 HD
ENDBRANCH  19  26
TORSDOF 4
ENDMDL
MODEL 5
REMARK VINA RESULT:      -5.8      7.459      9.723
REMARK  Name = 
REMARK  6 active torsions:
REMARK  status: ('A' for Active; 'I' for Inactive)
REMARK    1  A    between atoms: C_1  and  C_2
REMARK    2  A    between atoms: C_15  and  C_16
REMARK    3  A    between atoms: C_17  and  C_18
REMARK    4  A    between atoms: C_18  and  C_20
REMARK    5  A    between atoms: C_20  and  O_21
REMARK    6  A    between atoms: C_23  and  O_24
REMARK                            x       y       z     vdW  Elec       q    Type
REMARK                         _______ _______ _______ _____ _____    ______ ____
ROOT
ATOM      1  C   UNL     1       1.932   9.795  21.434  0.00  0.00    +0.000 C 
ATOM      2  C   UNL     1       0.714   9.231  20.638  0.00  0.00    +0.000 C 
ATOM      3  C   UNL     1       0.709   7.698  20.908  0.00  0.00    +0.000 C 
ATOM      4  C   UNL     1       2.017   7.031  20.454  0.00  0.00    +0.000 C 
ATOM      5  C   UNL     1       2.353   7.382  19.024  0.00  0.00    +0.000 C 
ATOM      6  O   UNL     1       3.118   6.699  18.346  0.00  0.00    +0.000 OA
ATOM      7  C   UNL     1       1.746   8.591  18.425  0.00  0.00    +0.000 C 
ATOM      8  C   UNL     1       0.943   9.414  19.126  0.00  0.00    +0.000 C 
ATOM      9  C   UNL     1       0.239  10.508  18.343  0.00  0.00    +0.000 C 
ATOM     10  C   UNL     1      -1.129  10.911  18.904  0.00  0.00    +0.000 C 
ATOM     11  C   UNL     1      -0.946  11.227  20.380  0.00  0.00    +0.000 C 
ATOM     12  C   UNL     1      -0.645   9.904  21.155  0.00  0.00    +0.000 C 
ATOM     13  C   UNL     1      -0.592  10.123  22.675  0.00  0.00    +0.000 C 
ATOM     14  C   UNL     1      -1.500  11.201  23.168  0.00  0.00    +0.000 C 
ATOM     15  C   UNL     1      -1.483  12.557  22.423  0.00  0.00    +0.000 C 
ATOM     16  C   UNL     1      -2.563  13.323  23.290  0.00  0.00    +0.000 C 
ATOM     17  C   UNL     1      -0.224  13.558  22.127  0.00  0.00    +0.000 C 
ATOM     18  C   UNL     1      -1.011  14.612  21.308  0.00  0.00    +0.000 C 
ATOM     19  C   UNL     1      -1.936  13.743  20.400  0.00  0.00    +0.000 C 
ATOM     20  C   UNL     1      -1.956  12.281  20.988  0.00  0.00    +0.000 C 
ENDROOT
BRANCH  17  21
ATOM     21  C   UNL     1       1.031  13.471  21.106  0.00  0.00    +0.000 C 
ATOM     22  O   UNL     1       1.952  12.639  21.239  0.00  0.00    +0.000 OA
BRANCH  21  23
ATOM     23  C   UNL     1       1.068  14.291  19.849  0.00  0.00    +0.000 C 
BRANCH  23  24
ATOM     24  O   UNL     1       1.814  13.575  18.859  0.00  0.00    +0.000 OA
ATOM     25  H   UNL     1       1.309  13.670  18.021  0.00  0.00    +0.000 HD
ENDBRANCH  23  24
ENDBRANCH  21  23
ENDBRANCH  17  21
BRANCH  19  26
ATOM     26  O   UNL     1      -3.225  14.359  20.453  0.00  0.00    +0.000 OA
ATOM     27  H   UNL     1      -3.187  15.147  21.016  0.00  0.00    +0.000 HD
ENDBRANCH  19  26
TORSDOF 4
ENDMDL
MODEL 6
REMARK VINA RESULT:      -5.7      9.646     11.497
REMARK  Name = 
REMARK  6 active torsions:
REMARK  status: ('A' for Active; 'I' for Inactive)
REMARK    1  A    between atoms: C_1  and  C_2
REMARK    2  A    between atoms: C_15  and  C_16
REMARK    3  A    between atoms: C_17  and  C_18
REMARK    4  A    between atoms: C_18  and  C_20
REMARK    5  A    between atoms: C_20  and  O_21
REMARK    6  A    between atoms: C_23  and  O_24
REMARK                            x       y       z     vdW  Elec       q    Type
REMARK                         _______ _______ _______ _____ _____    ______ ____
ROOT
ATOM      1  C   UNL     1       7.048  13.268  22.327  0.00  0.00    +0.000 C 
ATOM      2  C   UNL     1       8.460  13.445  22.971  0.00  0.00    +0.000 C 
ATOM      3  C   UNL     1       8.411  12.658  24.313  0.00  0.00    +0.000 C 
ATOM      4  C   UNL     1       7.312  13.185  25.248  0.00  0.00    +0.000 C 
ATOM      5  C   UNL     1       7.413  14.680  25.439  0.00  0.00    +0.000 C 
ATOM      6  O   UNL     1       6.899  15.252  26.398  0.00  0.00    +0.000 OA
ATOM      7  C   UNL     1       8.149  15.478  24.435  0.00  0.00    +0.000 C 
ATOM      8  C   UNL     1       8.691  14.924  23.333  0.00  0.00    +0.000 C 
ATOM      9  C   UNL     1       9.577  15.819  22.486  0.00  0.00    +0.000 C 
ATOM     10  C   UNL     1      10.706  15.087  21.754  0.00  0.00    +0.000 C 
ATOM     11  C   UNL     1      10.083  13.930  20.988  0.00  0.00    +0.000 C 
ATOM     12  C   UNL     1       9.588  12.850  22.003  0.00  0.00    +0.000 C 
ATOM     13  C   UNL     1       9.079  11.584  21.296  0.00  0.00    +0.000 C 
ATOM     14  C   UNL     1       9.778  11.278  20.013  0.00  0.00    +0.000 C 
ATOM     15  C   UNL     1       9.959  12.431  18.996  0.00  0.00    +0.000 C 
ATOM     16  C   UNL     1      10.716  11.631  17.859  0.00  0.00    +0.000 C 
ATOM     17  C   UNL     1       8.828  13.395  18.314  0.00  0.00    +0.000 C 
ATOM     18  C   UNL     1       9.806  14.286  17.506  0.00  0.00    +0.000 C 
ATOM     19  C   UNL     1      10.976  14.536  18.508  0.00  0.00    +0.000 C 
ATOM     20  C   UNL     1      10.845  13.485  19.676  0.00  0.00    +0.000 C 
ENDROOT
BRANCH  17  21
ATOM     21  C   UNL     1       7.939  14.620  18.891  0.00  0.00    +0.000 C 
ATOM     22  O   UNL     1       7.145  14.487  19.844  0.00  0.00    +0.000 OA
BRANCH  21  23
ATOM     23  C   UNL     1       8.144  16.025  18.403  0.00  0.00    +0.000 C 
BRANCH  23  24
ATOM     24  O   UNL     1       8.120  16.907  19.530  0.00  0.00    +0.000 OA
ATOM     25  H   UNL     1       8.421  16.372  20.297  0.00  0.00    +0.000 HD
ENDBRANCH  23  24
ENDBRANCH  21  23
ENDBRANCH  17  21
BRANCH  19  26
ATOM     26  O   UNL     1      12.178  14.354  17.757  0.00  0.00    +0.000 OA
ATOM     27  H   UNL     1      12.378  13.408  17.684  0.00  0.00    +0.000 HD
ENDBRANCH  19  26
TORSDOF 4
ENDMDL
MODEL 7
REMARK VINA RESULT:      -5.7     10.216     12.892
REMARK  Name = 
REMARK  6 active torsions:
REMARK  status: ('A' for Active; 'I' for Inactive)
REMARK    1  A    between atoms: C_1  and  C_2
REMARK    2  A    between atoms: C_15  and  C_16
REMARK    3  A    between atoms: C_17  and  C_18
REMARK    4  A    between atoms: C_18  and  C_20
REMARK    5  A    between atoms: C_20  and  O_21
REMARK    6  A    between atoms: C_23  and  O_24
REMARK                            x       y       z     vdW  Elec       q    Type
REMARK                         _______ _______ _______ _____ _____    ______ ____
ROOT
ATOM      1  C   UNL     1      -1.822  12.270  19.365  0.00  0.00    +0.000 C 
ATOM      2  C   UNL     1      -0.791  12.504  20.514  0.00  0.00    +0.000 C 
ATOM      3  C   UNL     1       0.604  12.547  19.825  0.00  0.00    +0.000 C 
ATOM      4  C   UNL     1       0.912  11.245  19.069  0.00  0.00    +0.000 C 
ATOM      5  C   UNL     1       0.721  10.032  19.948  0.00  0.00    +0.000 C 
ATOM      6  O   UNL     1       1.244   8.950  19.692  0.00  0.00    +0.000 OA
ATOM      7  C   UNL     1      -0.131  10.152  21.152  0.00  0.00    +0.000 C 
ATOM      8  C   UNL     1      -0.779  11.291  21.464  0.00  0.00    +0.000 C 
ATOM      9  C   UNL     1      -1.462  11.338  22.818  0.00  0.00    +0.000 C 
ATOM     10  C   UNL     1      -1.522  12.731  23.453  0.00  0.00    +0.000 C 
ATOM     11  C   UNL     1      -2.121  13.678  22.426  0.00  0.00    +0.000 C 
ATOM     12  C   UNL     1      -1.099  13.886  21.262  0.00  0.00    +0.000 C 
ATOM     13  C   UNL     1      -1.576  14.946  20.257  0.00  0.00    +0.000 C 
ATOM     14  C   UNL     1      -2.397  16.037  20.863  0.00  0.00    +0.000 C 
ATOM     15  C   UNL     1      -3.550  15.631  21.811  0.00  0.00    +0.000 C 
ATOM     16  C   UNL     1      -4.088  17.076  22.169  0.00  0.00    +0.000 C 
ATOM     17  C   UNL     1      -4.820  14.640  21.529  0.00  0.00    +0.000 C 
ATOM     18  C   UNL     1      -5.434  14.714  22.950  0.00  0.00    +0.000 C 
ATOM     19  C   UNL     1      -4.187  14.633  23.885  0.00  0.00    +0.000 C 
ATOM     20  C   UNL     1      -2.907  14.919  23.011  0.00  0.00    +0.000 C 
ENDROOT
BRANCH  17  21
ATOM     21  C   UNL     1      -4.945  13.030  21.389  0.00  0.00    +0.000 C 
ATOM     22  O   UNL     1      -5.078  12.275  22.373  0.00  0.00    +0.000 OA
BRANCH  21  23
ATOM     23  C   UNL     1      -5.065  12.376  20.043  0.00  0.00    +0.000 C 
BRANCH  23  24
ATOM     24  O   UNL     1      -5.211  13.397  19.050  0.00  0.00    +0.000 OA
ATOM     25  H   UNL     1      -4.561  13.182  18.345  0.00  0.00    +0.000 HD
ENDBRANCH  23  24
ENDBRANCH  21  23
ENDBRANCH  17  21
BRANCH  19  26
ATOM     26  O   UNL     1      -4.386  15.633  24.888  0.00  0.00    +0.000 OA
ATOM     27  H   UNL     1      -4.763  15.227  25.683  0.00  0.00    +0.000 HD
ENDBRANCH  19  26
TORSDOF 4
ENDMDL
MODEL 8
REMARK VINA RESULT:      -5.7      9.126     11.759
REMARK  Name = 
REMARK  6 active torsions:
REMARK  status: ('A' for Active; 'I' for Inactive)
REMARK    1  A    between atoms: C_1  and  C_2
REMARK    2  A    between atoms: C_15  and  C_16
REMARK    3  A    between atoms: C_17  and  C_18
REMARK    4  A    between atoms: C_18  and  C_20
REMARK    5  A    between atoms: C_20  and  O_21
REMARK    6  A    between atoms: C_23  and  O_24
REMARK                            x       y       z     vdW  Elec       q    Type
REMARK                         _______ _______ _______ _____ _____    ______ ____
ROOT
ATOM      1  C   UNL     1       3.323  13.949  20.454  0.00  0.00    +0.000 C 
ATOM      2  C   UNL     1       2.810  14.546  19.106  0.00  0.00    +0.000 C 
ATOM      3  C   UNL     1       4.063  14.649  18.189  0.00  0.00    +0.000 C 
ATOM      4  C   UNL     1       5.153  15.540  18.803  0.00  0.00    +0.000 C 
ATOM      5  C   UNL     1       4.605  16.887  19.213  0.00  0.00    +0.000 C 
ATOM      6  O   UNL     1       5.330  17.865  19.376  0.00  0.00    +0.000 OA
ATOM      7  C   UNL     1       3.149  17.026  19.433  0.00  0.00    +0.000 C 
ATOM      8  C   UNL     1       2.302  15.984  19.326  0.00  0.00    +0.000 C 
ATOM      9  C   UNL     1       0.820  16.301  19.390  0.00  0.00    +0.000 C 
ATOM     10  C   UNL     1      -0.068  15.356  18.573  0.00  0.00    +0.000 C 
ATOM     11  C   UNL     1       0.278  13.933  18.981  0.00  0.00    +0.000 C 
ATOM     12  C   UNL     1       1.707  13.582  18.457  0.00  0.00    +0.000 C 
ATOM     13  C   UNL     1       2.068  12.109  18.705  0.00  0.00    +0.000 C 
ATOM     14  C   UNL     1       0.901  11.178  18.659  0.00  0.00    +0.000 C 
ATOM     15  C   UNL     1      -0.366  11.569  19.457  0.00  0.00    +0.000 C 
ATOM     16  C   UNL     1      -1.268  10.317  19.102  0.00  0.00    +0.000 C 
ATOM     17  C   UNL     1      -0.521  11.909  21.049  0.00  0.00    +0.000 C 
ATOM     18  C   UNL     1      -2.032  12.250  21.020  0.00  0.00    +0.000 C 
ATOM     19  C   UNL     1      -2.185  13.093  19.716  0.00  0.00    +0.000 C 
ATOM     20  C   UNL     1      -0.890  12.875  18.844  0.00  0.00    +0.000 C 
ENDROOT
BRANCH  17  21
ATOM     21  C   UNL     1      -0.088  13.187  21.944  0.00  0.00    +0.000 C 
ATOM     22  O   UNL     1       1.101  13.537  22.091  0.00  0.00    +0.000 OA
BRANCH  21  23
ATOM     23  C   UNL     1      -1.117  14.116  22.521  0.00  0.00    +0.000 C 
BRANCH  23  24
ATOM     24  O   UNL     1      -0.783  14.374  23.888  0.00  0.00    +0.000 OA
ATOM     25  H   UNL     1      -1.181  15.247  24.103  0.00  0.00    +0.000 HD
ENDBRANCH  23  24
ENDBRANCH  21  23
ENDBRANCH  17  21
BRANCH  19  26
ATOM     26  O   UNL     1      -3.358  12.596  19.066  0.00  0.00    +0.000 OA
ATOM     27  H   UNL     1      -3.622  11.755  19.468  0.00  0.00    +0.000 HD
ENDBRANCH  19  26
TORSDOF 4
ENDMDL
MODEL 9
REMARK VINA RESULT:      -5.7     10.761     13.209
REMARK  Name = 
REMARK  6 active torsions:
REMARK  status: ('A' for Active; 'I' for Inactive)
REMARK    1  A    between atoms: C_1  and  C_2
REMARK    2  A    between atoms: C_15  and  C_16
REMARK    3  A    between atoms: C_17  and  C_18
REMARK    4  A    between atoms: C_18  and  C_20
REMARK    5  A    between atoms: C_20  and  O_21
REMARK    6  A    between atoms: C_23  and  O_24
REMARK                            x       y       z     vdW  Elec       q    Type
REMARK                         _______ _______ _______ _____ _____    ______ ____
ROOT
ATOM      1  C   UNL     1      -0.967  13.194  19.395  0.00  0.00    +0.000 C 
ATOM      2  C   UNL     1      -1.903  12.079  19.961  0.00  0.00    +0.000 C 
ATOM      3  C   UNL     1      -1.158  10.737  19.706  0.00  0.00    +0.000 C 
ATOM      4  C   UNL     1      -0.877  10.510  18.213  0.00  0.00    +0.000 C 
ATOM      5  C   UNL     1      -2.128  10.662  17.381  0.00  0.00    +0.000 C 
ATOM      6  O   UNL     1      -2.227  10.180  16.255  0.00  0.00    +0.000 OA
ATOM      7  C   UNL     1      -3.267  11.423  17.941  0.00  0.00    +0.000 C 
ATOM      8  C   UNL     1      -3.208  12.024  19.145  0.00  0.00    +0.000 C 
ATOM      9  C   UNL     1      -4.503  12.608  19.679  0.00  0.00    +0.000 C 
ATOM     10  C   UNL     1      -4.624  12.594  21.206  0.00  0.00    +0.000 C 
ATOM     11  C   UNL     1      -3.372  13.246  21.773  0.00  0.00    +0.000 C 
ATOM     12  C   UNL     1      -2.149  12.306  21.527  0.00  0.00    +0.000 C 
ATOM     13  C   UNL     1      -0.872  12.831  22.202  0.00  0.00    +0.000 C 
ATOM     14  C   UNL     1      -1.116  13.584  23.468  0.00  0.00    +0.000 C 
ATOM     15  C   UNL     1      -2.213  14.675  23.459  0.00  0.00    +0.000 C 
ATOM     16  C   UNL     1      -2.086  15.156  24.962  0.00  0.00    +0.000 C 
ATOM     17  C   UNL     1      -2.365  15.982  22.488  0.00  0.00    +0.000 C 
ATOM     18  C   UNL     1      -3.708  16.492  23.068  0.00  0.00    +0.000 C 
ATOM     19  C   UNL     1      -4.538  15.184  23.255  0.00  0.00    +0.000 C 
ATOM     20  C   UNL     1      -3.543  13.963  23.172  0.00  0.00    +0.000 C 
ENDROOT
BRANCH  17  21
ATOM     21  C   UNL     1      -2.791  16.149  20.934  0.00  0.00    +0.000 C 
ATOM     22  O   UNL     1      -3.981  16.166  20.558  0.00  0.00    +0.000 OA
BRANCH  21  23
ATOM     23  C   UNL     1      -1.769  16.452  19.876  0.00  0.00    +0.000 C 
BRANCH  23  24
ATOM     24  O   UNL     1      -2.343  17.366  18.936  0.00  0.00    +0.000 OA
ATOM     25  H   UNL     1      -3.230  17.005  18.715  0.00  0.00    +0.000 HD
ENDBRANCH  23  24
ENDBRANCH  21  23
ENDBRANCH  17  21
BRANCH  19  26
ATOM     26  O   UNL     1      -5.147  15.290  24.544  0.00  0.00    +0.000 OA
ATOM     27  H   UNL     1      -5.605  16.141  24.620  0.00  0.00    +0.000 HD
ENDBRANCH  19  26
TORSDOF 4
ENDMDL
