MODEL 1
REMARK VINA RESULT:      -8.7      0.000      0.000
REMARK  Name = 
REMARK  7 active torsions:
REMARK  status: ('A' for Active; 'I' for Inactive)
REMARK    1  A    between atoms: C_1  and  O_2
REMARK    2  A    between atoms: O_2  and  C_3
REMARK    3  A    between atoms: C_11  and  C_12
REMARK    4  A    between atoms: N_14  and  C_15
REMARK    5  A    between atoms: C_15  and  C_16
REMARK    6  A    between atoms: C_15  and  C_17
REMARK    7  A    between atoms: C_20  and  C_21
REMARK                            x       y       z     vdW  Elec       q    Type
REMARK                         _______ _______ _______ _____ _____    ______ ____
ROOT
ATOM      1  C   UNL     1      -2.055  12.924  21.221  0.00  0.00    +0.000 A 
ATOM      2  C   UNL     1      -1.829  12.339  22.469  0.00  0.00    +0.000 A 
ATOM      3  C   UNL     1      -0.970  11.241  22.585  0.00  0.00    +0.000 A 
ATOM      4  C   UNL     1      -0.334  10.735  21.450  0.00  0.00    +0.000 A 
ATOM      5  C   UNL     1       0.534   9.552  21.539  0.00  0.00    +0.000 A 
ATOM      6  O   UNL     1       0.758   8.995  22.606  0.00  0.00    +0.000 OA
ATOM      7  C   UNL     1       1.107   9.050  20.282  0.00  0.00    +0.000 A 
ATOM      8  C   UNL     1       1.889   7.881  20.272  0.00  0.00    +0.000 A 
ATOM      9  C   UNL     1       2.414   7.408  19.064  0.00  0.00    +0.000 A 
ATOM     10  C   UNL     1       2.164   8.143  17.890  0.00  0.00    +0.000 A 
ATOM     11  C   UNL     1       1.390   9.309  17.911  0.00  0.00    +0.000 A 
ATOM     12  C   UNL     1       0.847   9.759  19.110  0.00  0.00    +0.000 A 
ATOM     13  O   UNL     1       0.071  10.891  19.051  0.00  0.00    +0.000 OA
ATOM     14  C   UNL     1      -0.531  11.327  20.206  0.00  0.00    +0.000 A 
ATOM     15  C   UNL     1      -1.392  12.423  20.094  0.00  0.00    +0.000 A 
ENDROOT
BRANCH   9  16
ATOM     16  C   UNL     1       3.236   6.160  18.938  0.00  0.00    +0.000 C 
ATOM     17  O   UNL     1       2.694   5.069  19.110  0.00  0.00    +0.000 OA
ATOM     18  N   UNL     1       4.576   6.278  18.637  0.00  0.00    +0.000 N 
ATOM     19  H   UNL     1       5.020   7.179  18.573  0.00  0.00    +0.000 HD
BRANCH  18  20
ATOM     20  C   UNL     1       5.429   5.101  18.483  0.00  0.00    +0.000 C 
ATOM     21  C   UNL     1       6.738   5.256  19.260  0.00  0.00    +0.000 C 
BRANCH  20  22
ATOM     22  C   UNL     1       5.685   4.807  17.013  0.00  0.00    +0.000 A 
ATOM     23  C   UNL     1       4.715   4.205  16.197  0.00  0.00    +0.000 A 
ATOM     24  C   UNL     1       4.989   3.907  14.859  0.00  0.00    +0.000 A 
ATOM     25  C   UNL     1       6.235   4.212  14.303  0.00  0.00    +0.000 A 
ATOM     26  C   UNL     1       6.555   3.859  12.881  0.00  0.00    +0.000 C 
ATOM     27  C   UNL     1       7.193   4.846  15.100  0.00  0.00    +0.000 A 
ATOM     28  C   UNL     1       6.922   5.137  16.441  0.00  0.00    +0.000 A 
ENDBRANCH  20  22
ENDBRANCH  18  20
ENDBRANCH   9  16
BRANCH   1  30
ATOM     29  C   UNL     1      -4.231  13.853  21.450  0.00  0.00    +0.000 C 
ATOM     30  O   UNL     1      -2.896  13.975  20.974  0.00  0.00    +0.000 OA
ENDBRANCH   1  30
TORSDOF 4
ENDMDL
MODEL 2
REMARK VINA RESULT:      -8.1      1.055      1.123
REMARK  Name = 
REMARK  7 active torsions:
REMARK  status: ('A' for Active; 'I' for Inactive)
REMARK    1  A    between atoms: C_1  and  O_2
REMARK    2  A    between atoms: O_2  and  C_3
REMARK    3  A    between atoms: C_11  and  C_12
REMARK    4  A    between atoms: N_14  and  C_15
REMARK    5  A    between atoms: C_15  and  C_16
REMARK    6  A    between atoms: C_15  and  C_17
REMARK    7  A    between atoms: C_20  and  C_21
REMARK                            x       y       z     vdW  Elec       q    Type
REMARK                         _______ _______ _______ _____ _____    ______ ____
ROOT
ATOM      1  C   UNL     1      -2.120  13.676  21.711  0.00  0.00    +0.000 A 
ATOM      2  C   UNL     1      -2.117  13.004  22.936  0.00  0.00    +0.000 A 
ATOM      3  C   UNL     1      -1.416  11.803  23.076  0.00  0.00    +0.000 A 
ATOM      4  C   UNL     1      -0.714  11.277  21.988  0.00  0.00    +0.000 A 
ATOM      5  C   UNL     1      -0.012   9.991  22.097  0.00  0.00    +0.000 A 
ATOM      6  O   UNL     1       0.014   9.357  23.144  0.00  0.00    +0.000 OA
ATOM      7  C   UNL     1       0.642   9.485  20.882  0.00  0.00    +0.000 A 
ATOM      8  C   UNL     1       1.274   8.228  20.884  0.00  0.00    +0.000 A 
ATOM      9  C   UNL     1       1.879   7.754  19.715  0.00  0.00    +0.000 A 
ATOM     10  C   UNL     1       1.861   8.573  18.571  0.00  0.00    +0.000 A 
ATOM     11  C   UNL     1       1.235   9.826  18.580  0.00  0.00    +0.000 A 
ATOM     12  C   UNL     1       0.612  10.280  19.738  0.00  0.00    +0.000 A 
ATOM     13  O   UNL     1      -0.010  11.502  19.665  0.00  0.00    +0.000 OA
ATOM     14  C   UNL     1      -0.690  11.952  20.772  0.00  0.00    +0.000 A 
ATOM     15  C   UNL     1      -1.393  13.152  20.635  0.00  0.00    +0.000 A 
ENDROOT
BRANCH   9  16
ATOM     16  C   UNL     1       2.554   6.420  19.601  0.00  0.00    +0.000 C 
ATOM     17  O   UNL     1       2.188   5.501  20.332  0.00  0.00    +0.000 OA
ATOM     18  N   UNL     1       3.569   6.269  18.680  0.00  0.00    +0.000 N 
ATOM     19  H   UNL     1       3.907   7.050  18.142  0.00  0.00    +0.000 HD
BRANCH  18  20
ATOM     20  C   UNL     1       4.256   4.990  18.506  0.00  0.00    +0.000 C 
ATOM     21  C   UNL     1       5.300   4.766  19.603  0.00  0.00    +0.000 C 
BRANCH  20  22
ATOM     22  C   UNL     1       4.873   4.892  17.120  0.00  0.00    +0.000 A 
ATOM     23  C   UNL     1       5.373   3.681  16.615  0.00  0.00    +0.000 A 
ATOM     24  C   UNL     1       5.974   3.625  15.355  0.00  0.00    +0.000 A 
ATOM     25  C   UNL     1       6.081   4.773  14.565  0.00  0.00    +0.000 A 
ATOM     26  C   UNL     1       6.760   4.734  13.228  0.00  0.00    +0.000 C 
ATOM     27  C   UNL     1       5.551   5.975  15.046  0.00  0.00    +0.000 A 
ATOM     28  C   UNL     1       4.958   6.034  16.311  0.00  0.00    +0.000 A 
ENDBRANCH  20  22
ENDBRANCH  18  20
ENDBRANCH   9  16
BRANCH   1  30
ATOM     29  C   UNL     1      -3.734  15.274  22.414  0.00  0.00    +0.000 C 
ATOM     30  O   UNL     1      -2.794  14.837  21.440  0.00  0.00    +0.000 OA
ENDBRANCH   1  30
TORSDOF 4
ENDMDL
MODEL 3
REMARK VINA RESULT:      -8.1      0.922      1.307
REMARK  Name = 
REMARK  7 active torsions:
REMARK  status: ('A' for Active; 'I' for Inactive)
REMARK    1  A    between atoms: C_1  and  O_2
REMARK    2  A    between atoms: O_2  and  C_3
REMARK    3  A    between atoms: C_11  and  C_12
REMARK    4  A    between atoms: N_14  and  C_15
REMARK    5  A    between atoms: C_15  and  C_16
REMARK    6  A    between atoms: C_15  and  C_17
REMARK    7  A    between atoms: C_20  and  C_21
REMARK                            x       y       z     vdW  Elec       q    Type
REMARK                         _______ _______ _______ _____ _____    ______ ____
ROOT
ATOM      1  C   UNL     1      -1.258  13.459  21.528  0.00  0.00    +0.000 A 
ATOM      2  C   UNL     1      -1.304  12.659  22.672  0.00  0.00    +0.000 A 
ATOM      3  C   UNL     1      -0.710  11.393  22.668  0.00  0.00    +0.000 A 
ATOM      4  C   UNL     1      -0.065  10.933  21.517  0.00  0.00    +0.000 A 
ATOM      5  C   UNL     1       0.523   9.586  21.473  0.00  0.00    +0.000 A 
ATOM      6  O   UNL     1       0.501   8.841  22.444  0.00  0.00    +0.000 OA
ATOM      7  C   UNL     1       1.120   9.163  20.199  0.00  0.00    +0.000 A 
ATOM      8  C   UNL     1       1.639   7.863  20.052  0.00  0.00    +0.000 A 
ATOM      9  C   UNL     1       2.191   7.471  18.829  0.00  0.00    +0.000 A 
ATOM     10  C   UNL     1       2.236   8.410  17.781  0.00  0.00    +0.000 A 
ATOM     11  C   UNL     1       1.723   9.703  17.938  0.00  0.00    +0.000 A 
ATOM     12  C   UNL     1       1.150  10.079  19.149  0.00  0.00    +0.000 A 
ATOM     13  O   UNL     1       0.638  11.351  19.221  0.00  0.00    +0.000 OA
ATOM     14  C   UNL     1       0.009  11.733  20.382  0.00  0.00    +0.000 A 
ATOM     15  C   UNL     1      -0.588  12.997  20.389  0.00  0.00    +0.000 A 
ENDROOT
BRANCH   9  16
ATOM     16  C   UNL     1       2.746   6.105  18.558  0.00  0.00    +0.000 C 
ATOM     17  O   UNL     1       1.974   5.149  18.494  0.00  0.00    +0.000 OA
ATOM     18  N   UNL     1       4.108   5.964  18.392  0.00  0.00    +0.000 N 
ATOM     19  H   UNL     1       4.733   6.742  18.521  0.00  0.00    +0.000 HD
BRANCH  18  20
ATOM     20  C   UNL     1       4.710   4.663  18.109  0.00  0.00    +0.000 C 
ATOM     21  C   UNL     1       5.599   4.197  19.265  0.00  0.00    +0.000 C 
BRANCH  20  22
ATOM     22  C   UNL     1       5.476   4.696  16.796  0.00  0.00    +0.000 A 
ATOM     23  C   UNL     1       6.805   5.140  16.723  0.00  0.00    +0.000 A 
ATOM     24  C   UNL     1       7.474   5.200  15.497  0.00  0.00    +0.000 A 
ATOM     25  C   UNL     1       6.834   4.809  14.317  0.00  0.00    +0.000 A 
ATOM     26  C   UNL     1       7.528   4.908  12.991  0.00  0.00    +0.000 C 
ATOM     27  C   UNL     1       5.522   4.329  14.387  0.00  0.00    +0.000 A 
ATOM     28  C   UNL     1       4.850   4.277  15.612  0.00  0.00    +0.000 A 
ENDBRANCH  20  22
ENDBRANCH  18  20
ENDBRANCH   9  16
BRANCH   1  30
ATOM     29  C   UNL     1      -1.374  15.501  20.315  0.00  0.00    +0.000 C 
ATOM     30  O   UNL     1      -1.829  14.697  21.397  0.00  0.00    +0.000 OA
ENDBRANCH   1  30
TORSDOF 4
ENDMDL
MODEL 4
REMARK VINA RESULT:      -7.9      2.726     10.577
REMARK  Name = 
REMARK  7 active torsions:
REMARK  status: ('A' for Active; 'I' for Inactive)
REMARK    1  A    between atoms: C_1  and  O_2
REMARK    2  A    between atoms: O_2  and  C_3
REMARK    3  A    between atoms: C_11  and  C_12
REMARK    4  A    between atoms: N_14  and  C_15
REMARK    5  A    between atoms: C_15  and  C_16
REMARK    6  A    between atoms: C_15  and  C_17
REMARK    7  A    between atoms: C_20  and  C_21
REMARK                            x       y       z     vdW  Elec       q    Type
REMARK                         _______ _______ _______ _____ _____    ______ ____
ROOT
ATOM      1  C   UNL     1       4.025   4.678  18.594  0.00  0.00    +0.000 A 
ATOM      2  C   UNL     1       4.210   5.449  17.445  0.00  0.00    +0.000 A 
ATOM      3  C   UNL     1       3.623   6.715  17.347  0.00  0.00    +0.000 A 
ATOM      4  C   UNL     1       2.855   7.208  18.404  0.00  0.00    +0.000 A 
ATOM      5  C   UNL     1       2.187   8.513  18.304  0.00  0.00    +0.000 A 
ATOM      6  O   UNL     1       2.308   9.225  17.315  0.00  0.00    +0.000 OA
ATOM      7  C   UNL     1       1.346   8.919  19.438  0.00  0.00    +0.000 A 
ATOM      8  C   UNL     1       0.615  10.121  19.389  0.00  0.00    +0.000 A 
ATOM      9  C   UNL     1      -0.193  10.485  20.471  0.00  0.00    +0.000 A 
ATOM     10  C   UNL     1      -0.226   9.643  21.598  0.00  0.00    +0.000 A 
ATOM     11  C   UNL     1       0.509   8.452  21.640  0.00  0.00    +0.000 A 
ATOM     12  C   UNL     1       1.289   8.081  20.550  0.00  0.00    +0.000 A 
ATOM     13  O   UNL     1       1.957   6.885  20.647  0.00  0.00    +0.000 OA
ATOM     14  C   UNL     1       2.687   6.458  19.564  0.00  0.00    +0.000 A 
ATOM     15  C   UNL     1       3.274   5.193  19.657  0.00  0.00    +0.000 A 
ENDROOT
BRANCH   9  16
ATOM     16  C   UNL     1      -1.031  11.728  20.511  0.00  0.00    +0.000 C 
ATOM     17  O   UNL     1      -1.900  11.890  19.655  0.00  0.00    +0.000 OA
ATOM     18  N   UNL     1      -0.797  12.653  21.506  0.00  0.00    +0.000 N 
ATOM     19  H   UNL     1      -0.034  12.542  22.154  0.00  0.00    +0.000 HD
BRANCH  18  20
ATOM     20  C   UNL     1      -1.590  13.876  21.612  0.00  0.00    +0.000 C 
ATOM     21  C   UNL     1      -0.799  14.995  22.294  0.00  0.00    +0.000 C 
BRANCH  20  22
ATOM     22  C   UNL     1      -2.906  13.608  22.325  0.00  0.00    +0.000 A 
ATOM     23  C   UNL     1      -2.989  12.745  23.429  0.00  0.00    +0.000 A 
ATOM     24  C   UNL     1      -4.218  12.483  24.042  0.00  0.00    +0.000 A 
ATOM     25  C   UNL     1      -5.390  13.084  23.574  0.00  0.00    +0.000 A 
ATOM     26  C   UNL     1      -6.719  12.778  24.197  0.00  0.00    +0.000 C 
ATOM     27  C   UNL     1      -5.308  13.975  22.498  0.00  0.00    +0.000 A 
ATOM     28  C   UNL     1      -4.081  14.231  21.879  0.00  0.00    +0.000 A 
ENDBRANCH  20  22
ENDBRANCH  18  20
ENDBRANCH   9  16
BRANCH   1  30
ATOM     29  C   UNL     1       4.008   2.700  19.914  0.00  0.00    +0.000 C 
ATOM     30  O   UNL     1       4.517   3.416  18.795  0.00  0.00    +0.000 OA
ENDBRANCH   1  30
TORSDOF 4
ENDMDL
MODEL 5
REMARK VINA RESULT:      -7.9      2.789     10.531
REMARK  Name = 
REMARK  7 active torsions:
REMARK  status: ('A' for Active; 'I' for Inactive)
REMARK    1  A    between atoms: C_1  and  O_2
REMARK    2  A    between atoms: O_2  and  C_3
REMARK    3  A    between atoms: C_11  and  C_12
REMARK    4  A    between atoms: N_14  and  C_15
REMARK    5  A    between atoms: C_15  and  C_16
REMARK    6  A    between atoms: C_15  and  C_17
REMARK    7  A    between atoms: C_20  and  C_21
REMARK                            x       y       z     vdW  Elec       q    Type
REMARK                         _______ _______ _______ _____ _____    ______ ____
ROOT
ATOM      1  C   UNL     1       3.789   4.040  18.901  0.00  0.00    +0.000 A 
ATOM      2  C   UNL     1       4.060   4.692  17.696  0.00  0.00    +0.000 A 
ATOM      3  C   UNL     1       3.617   6.002  17.491  0.00  0.00    +0.000 A 
ATOM      4  C   UNL     1       2.905   6.659  18.497  0.00  0.00    +0.000 A 
ATOM      5  C   UNL     1       2.385   8.018  18.286  0.00  0.00    +0.000 A 
ATOM      6  O   UNL     1       2.586   8.630  17.245  0.00  0.00    +0.000 OA
ATOM      7  C   UNL     1       1.591   8.604  19.375  0.00  0.00    +0.000 A 
ATOM      8  C   UNL     1       0.998   9.870  19.223  0.00  0.00    +0.000 A 
ATOM      9  C   UNL     1       0.233  10.406  20.263  0.00  0.00    +0.000 A 
ATOM     10  C   UNL     1       0.104   9.666  21.453  0.00  0.00    +0.000 A 
ATOM     11  C   UNL     1       0.703   8.409  21.598  0.00  0.00    +0.000 A 
ATOM     12  C   UNL     1       1.441   7.868  20.549  0.00  0.00    +0.000 A 
ATOM     13  O   UNL     1       1.972   6.618  20.749  0.00  0.00    +0.000 OA
ATOM     14  C   UNL     1       2.653   6.028  19.711  0.00  0.00    +0.000 A 
ATOM     15  C   UNL     1       3.097   4.718  19.911  0.00  0.00    +0.000 A 
ENDROOT
BRANCH   9  16
ATOM     16  C   UNL     1      -0.465  11.733  20.195  0.00  0.00    +0.000 C 
ATOM     17  O   UNL     1      -0.131  12.538  19.327  0.00  0.00    +0.000 OA
ATOM     18  N   UNL     1      -1.456  12.007  21.113  0.00  0.00    +0.000 N 
ATOM     19  H   UNL     1      -1.666  11.368  21.863  0.00  0.00    +0.000 HD
BRANCH  18  20
ATOM     20  C   UNL     1      -2.186  13.273  21.091  0.00  0.00    +0.000 C 
ATOM     21  C   UNL     1      -1.609  14.266  22.103  0.00  0.00    +0.000 C 
BRANCH  20  22
ATOM     22  C   UNL     1      -3.672  13.046  21.318  0.00  0.00    +0.000 A 
ATOM     23  C   UNL     1      -4.545  12.737  20.263  0.00  0.00    +0.000 A 
ATOM     24  C   UNL     1      -5.914  12.573  20.492  0.00  0.00    +0.000 A 
ATOM     25  C   UNL     1      -6.442  12.704  21.779  0.00  0.00    +0.000 A 
ATOM     26  C   UNL     1      -7.915  12.572  22.030  0.00  0.00    +0.000 C 
ATOM     27  C   UNL     1      -5.572  12.974  22.841  0.00  0.00    +0.000 A 
ATOM     28  C   UNL     1      -4.204  13.146  22.612  0.00  0.00    +0.000 A 
ENDBRANCH  20  22
ENDBRANCH  18  20
ENDBRANCH   9  16
BRANCH   1  30
ATOM     29  C   UNL     1       3.497   1.721  18.466  0.00  0.00    +0.000 C 
ATOM     30  O   UNL     1       4.139   2.752  19.207  0.00  0.00    +0.000 OA
ENDBRANCH   1  30
TORSDOF 4
ENDMDL
MODEL 6
REMARK VINA RESULT:      -7.9      2.819     10.676
REMARK  Name = 
REMARK  7 active torsions:
REMARK  status: ('A' for Active; 'I' for Inactive)
REMARK    1  A    between atoms: C_1  and  O_2
REMARK    2  A    between atoms: O_2  and  C_3
REMARK    3  A    between atoms: C_11  and  C_12
REMARK    4  A    between atoms: N_14  and  C_15
REMARK    5  A    between atoms: C_15  and  C_16
REMARK    6  A    between atoms: C_15  and  C_17
REMARK    7  A    between atoms: C_20  and  C_21
REMARK                            x       y       z     vdW  Elec       q    Type
REMARK                         _______ _______ _______ _____ _____    ______ ____
ROOT
ATOM      1  C   UNL     1       3.889   5.060  18.559  0.00  0.00    +0.000 A 
ATOM      2  C   UNL     1       4.024   5.851  17.415  0.00  0.00    +0.000 A 
ATOM      3  C   UNL     1       3.416   7.109  17.356  0.00  0.00    +0.000 A 
ATOM      4  C   UNL     1       2.676   7.575  18.445  0.00  0.00    +0.000 A 
ATOM      5  C   UNL     1       1.987   8.872  18.386  0.00  0.00    +0.000 A 
ATOM      6  O   UNL     1       2.065   9.599  17.404  0.00  0.00    +0.000 OA
ATOM      7  C   UNL     1       1.178   9.249  19.554  0.00  0.00    +0.000 A 
ATOM      8  C   UNL     1       0.429  10.441  19.547  0.00  0.00    +0.000 A 
ATOM      9  C   UNL     1      -0.347  10.777  20.660  0.00  0.00    +0.000 A 
ATOM     10  C   UNL     1      -0.331   9.918  21.775  0.00  0.00    +0.000 A 
ATOM     11  C   UNL     1       0.422   8.738  21.775  0.00  0.00    +0.000 A 
ATOM     12  C   UNL     1       1.171   8.394  20.654  0.00  0.00    +0.000 A 
ATOM     13  O   UNL     1       1.859   7.207  20.712  0.00  0.00    +0.000 OA
ATOM     14  C   UNL     1       2.558   6.806  19.599  0.00  0.00    +0.000 A 
ATOM     15  C   UNL     1       3.166   5.549  19.654  0.00  0.00    +0.000 A 
ENDROOT
BRANCH   9  16
ATOM     16  C   UNL     1      -1.202  12.007  20.746  0.00  0.00    +0.000 C 
ATOM     17  O   UNL     1      -2.026  12.224  19.859  0.00  0.00    +0.000 OA
ATOM     18  N   UNL     1      -1.032  12.857  21.818  0.00  0.00    +0.000 N 
ATOM     19  H   UNL     1      -0.303  12.705  22.496  0.00  0.00    +0.000 HD
BRANCH  18  20
ATOM     20  C   UNL     1      -1.844  14.063  21.971  0.00  0.00    +0.000 C 
ATOM     21  C   UNL     1      -1.146  15.095  22.859  0.00  0.00    +0.000 C 
BRANCH  20  22
ATOM     22  C   UNL     1      -3.229  13.719  22.497  0.00  0.00    +0.000 A 
ATOM     23  C   UNL     1      -4.396  14.087  21.809  0.00  0.00    +0.000 A 
ATOM     24  C   UNL     1      -5.658  13.797  22.335  0.00  0.00    +0.000 A 
ATOM     25  C   UNL     1      -5.785  13.124  23.553  0.00  0.00    +0.000 A 
ATOM     26  C   UNL     1      -7.133  12.843  24.147  0.00  0.00    +0.000 C 
ATOM     27  C   UNL     1      -4.626  12.720  24.225  0.00  0.00    +0.000 A 
ATOM     28  C   UNL     1      -3.363  13.018  23.704  0.00  0.00    +0.000 A 
ENDBRANCH  20  22
ENDBRANCH  18  20
ENDBRANCH   9  16
BRANCH   1  30
ATOM     29  C   UNL     1       3.706   2.736  18.096  0.00  0.00    +0.000 C 
ATOM     30  O   UNL     1       4.405   3.804  18.724  0.00  0.00    +0.000 OA
ENDBRANCH   1  30
TORSDOF 4
ENDMDL
MODEL 7
REMARK VINA RESULT:      -7.7      1.346      2.450
REMARK  Name = 
REMARK  7 active torsions:
REMARK  status: ('A' for Active; 'I' for Inactive)
REMARK    1  A    between atoms: C_1  and  O_2
REMARK    2  A    between atoms: O_2  and  C_3
REMARK    3  A    between atoms: C_11  and  C_12
REMARK    4  A    between atoms: N_14  and  C_15
REMARK    5  A    between atoms: C_15  and  C_16
REMARK    6  A    between atoms: C_15  and  C_17
REMARK    7  A    between atoms: C_20  and  C_21
REMARK                            x       y       z     vdW  Elec       q    Type
REMARK                         _______ _______ _______ _____ _____    ______ ____
ROOT
ATOM      1  C   UNL     1      -1.022  11.859  20.397  0.00  0.00    +0.000 A 
ATOM      2  C   UNL     1      -0.410  12.261  19.208  0.00  0.00    +0.000 A 
ATOM      3  C   UNL     1       0.494  11.412  18.561  0.00  0.00    +0.000 A 
ATOM      4  C   UNL     1       0.782  10.159  19.107  0.00  0.00    +0.000 A 
ATOM      5  C   UNL     1       1.766   9.271  18.473  0.00  0.00    +0.000 A 
ATOM      6  O   UNL     1       2.338   9.579  17.435  0.00  0.00    +0.000 OA
ATOM      7  C   UNL     1       2.053   8.001  19.154  0.00  0.00    +0.000 A 
ATOM      8  C   UNL     1       3.036   7.128  18.652  0.00  0.00    +0.000 A 
ATOM      9  C   UNL     1       3.307   5.931  19.321  0.00  0.00    +0.000 A 
ATOM     10  C   UNL     1       2.559   5.620  20.472  0.00  0.00    +0.000 A 
ATOM     11  C   UNL     1       1.579   6.492  20.962  0.00  0.00    +0.000 A 
ATOM     12  C   UNL     1       1.333   7.695  20.308  0.00  0.00    +0.000 A 
ATOM     13  O   UNL     1       0.381   8.515  20.862  0.00  0.00    +0.000 OA
ATOM     14  C   UNL     1       0.158   9.739  20.277  0.00  0.00    +0.000 A 
ATOM     15  C   UNL     1      -0.745  10.590  20.921  0.00  0.00    +0.000 A 
ENDROOT
BRANCH   9  16
ATOM     16  C   UNL     1       4.350   4.945  18.886  0.00  0.00    +0.000 C 
ATOM     17  O   UNL     1       4.224   3.763  19.205  0.00  0.00    +0.000 OA
ATOM     18  N   UNL     1       5.422   5.397  18.146  0.00  0.00    +0.000 N 
ATOM     19  H   UNL     1       5.549   6.378  17.956  0.00  0.00    +0.000 HD
BRANCH  18  20
ATOM     20  C   UNL     1       6.463   4.486  17.677  0.00  0.00    +0.000 C 
ATOM     21  C   UNL     1       7.841   4.898  18.201  0.00  0.00    +0.000 C 
BRANCH  20  22
ATOM     22  C   UNL     1       6.452   4.385  16.160  0.00  0.00    +0.000 A 
ATOM     23  C   UNL     1       5.494   3.622  15.474  0.00  0.00    +0.000 A 
ATOM     24  C   UNL     1       5.530   3.512  14.081  0.00  0.00    +0.000 A 
ATOM     25  C   UNL     1       6.516   4.168  13.340  0.00  0.00    +0.000 A 
ATOM     26  C   UNL     1       6.589   4.024  11.849  0.00  0.00    +0.000 C 
ATOM     27  C   UNL     1       7.451   4.961  14.014  0.00  0.00    +0.000 A 
ATOM     28  C   UNL     1       7.421   5.065  15.408  0.00  0.00    +0.000 A 
ENDBRANCH  20  22
ENDBRANCH  18  20
ENDBRANCH   9  16
BRANCH   1  30
ATOM     29  C   UNL     1      -2.429  13.771  20.514  0.00  0.00    +0.000 C 
ATOM     30  O   UNL     1      -1.895  12.609  21.138  0.00  0.00    +0.000 OA
ENDBRANCH   1  30
TORSDOF 4
ENDMDL
MODEL 8
REMARK VINA RESULT:      -7.5      2.450     10.083
REMARK  Name = 
REMARK  7 active torsions:
REMARK  status: ('A' for Active; 'I' for Inactive)
REMARK    1  A    between atoms: C_1  and  O_2
REMARK    2  A    between atoms: O_2  and  C_3
REMARK    3  A    between atoms: C_11  and  C_12
REMARK    4  A    between atoms: N_14  and  C_15
REMARK    5  A    between atoms: C_15  and  C_16
REMARK    6  A    between atoms: C_15  and  C_17
REMARK    7  A    between atoms: C_20  and  C_21
REMARK                            x       y       z     vdW  Elec       q    Type
REMARK                         _______ _______ _______ _____ _____    ______ ____
ROOT
ATOM      1  C   UNL     1       4.847   4.569  17.373  0.00  0.00    +0.000 A 
ATOM      2  C   UNL     1       4.373   3.991  18.553  0.00  0.00    +0.000 A 
ATOM      3  C   UNL     1       3.498   4.702  19.380  0.00  0.00    +0.000 A 
ATOM      4  C   UNL     1       3.097   5.991  19.022  0.00  0.00    +0.000 A 
ATOM      5  C   UNL     1       2.218   6.777  19.900  0.00  0.00    +0.000 A 
ATOM      6  O   UNL     1       1.782   6.321  20.950  0.00  0.00    +0.000 OA
ATOM      7  C   UNL     1       1.904   8.147  19.474  0.00  0.00    +0.000 A 
ATOM      8  C   UNL     1       1.129   8.989  20.293  0.00  0.00    +0.000 A 
ATOM      9  C   UNL     1       0.851  10.295  19.879  0.00  0.00    +0.000 A 
ATOM     10  C   UNL     1       1.336  10.721  18.629  0.00  0.00    +0.000 A 
ATOM     11  C   UNL     1       2.101   9.875  17.817  0.00  0.00    +0.000 A 
ATOM     12  C   UNL     1       2.397   8.585  18.246  0.00  0.00    +0.000 A 
ATOM     13  O   UNL     1       3.179   7.821  17.414  0.00  0.00    +0.000 OA
ATOM     14  C   UNL     1       3.543   6.565  17.836  0.00  0.00    +0.000 A 
ATOM     15  C   UNL     1       4.419   5.852  17.012  0.00  0.00    +0.000 A 
ENDROOT
BRANCH   9  16
ATOM     16  C   UNL     1       0.061  11.281  20.686  0.00  0.00    +0.000 C 
ATOM     17  O   UNL     1       0.643  11.973  21.520  0.00  0.00    +0.000 OA
ATOM     18  N   UNL     1      -1.298  11.376  20.470  0.00  0.00    +0.000 N 
ATOM     19  H   UNL     1      -1.771  10.751  19.838  0.00  0.00    +0.000 HD
BRANCH  18  20
ATOM     20  C   UNL     1      -2.123  12.328  21.210  0.00  0.00    +0.000 C 
ATOM     21  C   UNL     1      -2.147  11.999  22.705  0.00  0.00    +0.000 C 
BRANCH  20  22
ATOM     22  C   UNL     1      -3.528  12.392  20.631  0.00  0.00    +0.000 A 
ATOM     23  C   UNL     1      -3.782  12.151  19.272  0.00  0.00    +0.000 A 
ATOM     24  C   UNL     1      -5.076  12.256  18.755  0.00  0.00    +0.000 A 
ATOM     25  C   UNL     1      -6.148  12.596  19.585  0.00  0.00    +0.000 A 
ATOM     26  C   UNL     1      -7.534  12.753  19.035  0.00  0.00    +0.000 C 
ATOM     27  C   UNL     1      -5.909  12.801  20.948  0.00  0.00    +0.000 A 
ATOM     28  C   UNL     1      -4.613  12.703  21.464  0.00  0.00    +0.000 A 
ENDBRANCH  20  22
ENDBRANCH  18  20
ENDBRANCH   9  16
BRANCH   1  30
ATOM     29  C   UNL     1       5.508   4.225  15.115  0.00  0.00    +0.000 C 
ATOM     30  O   UNL     1       5.730   3.990  16.501  0.00  0.00    +0.000 OA
ENDBRANCH   1  30
TORSDOF 4
ENDMDL
MODEL 9
REMARK VINA RESULT:      -7.5      2.733     10.176
REMARK  Name = 
REMARK  7 active torsions:
REMARK  status: ('A' for Active; 'I' for Inactive)
REMARK    1  A    between atoms: C_1  and  O_2
REMARK    2  A    between atoms: O_2  and  C_3
REMARK    3  A    between atoms: C_11  and  C_12
REMARK    4  A    between atoms: N_14  and  C_15
REMARK    5  A    between atoms: C_15  and  C_16
REMARK    6  A    between atoms: C_15  and  C_17
REMARK    7  A    between atoms: C_20  and  C_21
REMARK                            x       y       z     vdW  Elec       q    Type
REMARK                         _______ _______ _______ _____ _____    ______ ____
ROOT
ATOM      1  C   UNL     1       4.694   4.650  17.040  0.00  0.00    +0.000 A 
ATOM      2  C   UNL     1       4.434   3.821  18.134  0.00  0.00    +0.000 A 
ATOM      3  C   UNL     1       3.631   4.277  19.185  0.00  0.00    +0.000 A 
ATOM      4  C   UNL     1       3.086   5.562  19.134  0.00  0.00    +0.000 A 
ATOM      5  C   UNL     1       2.281   6.081  20.249  0.00  0.00    +0.000 A 
ATOM      6  O   UNL     1       2.031   5.401  21.236  0.00  0.00    +0.000 OA
ATOM      7  C   UNL     1       1.805   7.467  20.137  0.00  0.00    +0.000 A 
ATOM      8  C   UNL     1       1.090   8.062  21.193  0.00  0.00    +0.000 A 
ATOM      9  C   UNL     1       0.657   9.387  21.076  0.00  0.00    +0.000 A 
ATOM     10  C   UNL     1       0.929  10.080  19.882  0.00  0.00    +0.000 A 
ATOM     11  C   UNL     1       1.636   9.478  18.835  0.00  0.00    +0.000 A 
ATOM     12  C   UNL     1       2.088   8.168  18.966  0.00  0.00    +0.000 A 
ATOM     13  O   UNL     1       2.802   7.653  17.913  0.00  0.00    +0.000 OA
ATOM     14  C   UNL     1       3.317   6.385  18.036  0.00  0.00    +0.000 A 
ATOM     15  C   UNL     1       4.122   5.926  16.989  0.00  0.00    +0.000 A 
ENDROOT
BRANCH   9  16
ATOM     16  C   UNL     1      -0.087  10.124  22.150  0.00  0.00    +0.000 C 
ATOM     17  O   UNL     1      -0.199   9.608  23.261  0.00  0.00    +0.000 OA
ATOM     18  N   UNL     1      -0.627  11.358  21.853  0.00  0.00    +0.000 N 
ATOM     19  H   UNL     1      -0.592  11.733  20.919  0.00  0.00    +0.000 HD
BRANCH  18  20
ATOM     20  C   UNL     1      -1.349  12.135  22.858  0.00  0.00    +0.000 C 
ATOM     21  C   UNL     1      -2.859  12.103  22.609  0.00  0.00    +0.000 C 
BRANCH  20  22
ATOM     22  C   UNL     1      -0.824  13.561  22.919  0.00  0.00    +0.000 A 
ATOM     23  C   UNL     1       0.170  14.024  22.044  0.00  0.00    +0.000 A 
ATOM     24  C   UNL     1       0.666  15.326  22.147  0.00  0.00    +0.000 A 
ATOM     25  C   UNL     1       0.174  16.200  23.121  0.00  0.00    +0.000 A 
ATOM     26  C   UNL     1       0.727  17.587  23.268  0.00  0.00    +0.000 C 
ATOM     27  C   UNL     1      -0.844  15.758  23.972  0.00  0.00    +0.000 A 
ATOM     28  C   UNL     1      -1.334  14.452  23.875  0.00  0.00    +0.000 A 
ENDBRANCH  20  22
ENDBRANCH  18  20
ENDBRANCH   9  16
BRANCH   1  30
ATOM     29  C   UNL     1       6.892   4.490  16.146  0.00  0.00    +0.000 C 
ATOM     30  O   UNL     1       5.488   4.332  15.971  0.00  0.00    +0.000 OA
ENDBRANCH   1  30
TORSDOF 4
ENDMDL
