MODEL 1
REMARK VINA RESULT:      -8.9      0.000      0.000
REMARK  Name = 
REMARK  7 active torsions:
REMARK  status: ('A' for Active; 'I' for Inactive)
REMARK    1  A    between atoms: C_1  and  C_2
REMARK    2  A    between atoms: C_2  and  S_3
REMARK    3  A    between atoms: S_3  and  C_6
REMARK    4  A    between atoms: N_12  and  C_13
REMARK    5  A    between atoms: C_13  and  C_14
REMARK    6  A    between atoms: C_13  and  C_21
REMARK    7  A    between atoms: C_14  and  C_15
REMARK                            x       y       z     vdW  Elec       q    Type
REMARK                         _______ _______ _______ _____ _____    ______ ____
ROOT
ATOM      1  C   UNL     1       0.331  11.047  19.423  0.00  0.00    +0.000 C 
ENDROOT
BRANCH   1   8
ATOM      2  C   UNL     1       3.695   5.570  19.020  0.00  0.00    +0.000 A 
ATOM      3  C   UNL     1       4.026   6.371  17.921  0.00  0.00    +0.000 A 
ATOM      4  C   UNL     1       3.330   7.561  17.705  0.00  0.00    +0.000 A 
ATOM      5  C   UNL     1       2.349   7.956  18.617  0.00  0.00    +0.000 A 
ATOM      6  C   UNL     1       1.544   9.170  18.396  0.00  0.00    +0.000 A 
ATOM      7  O   UNL     1       1.491   9.668  17.274  0.00  0.00    +0.000 OA
ATOM      8  N   UNL     1       0.865   9.665  19.499  0.00  0.00    +0.000 N 
ATOM      9  C   UNL     1       0.827   8.911  20.650  0.00  0.00    +0.000 A 
ATOM     10  N   UNL     1       1.316   7.727  20.809  0.00  0.00    +0.000 NA
ATOM     11  C   UNL     1       2.114   7.218  19.782  0.00  0.00    +0.000 A 
ATOM     12  C   UNL     1       2.749   5.995  19.957  0.00  0.00    +0.000 A 
BRANCH   2  13
ATOM     13  S   UNL     1       4.419   3.956  19.178  0.00  0.00    +0.000 S 
ATOM     14  O   UNL     1       3.681   3.260  20.217  0.00  0.00    +0.000 OA
ATOM     15  O   UNL     1       5.855   4.160  19.294  0.00  0.00    +0.000 OA
BRANCH  13  17
ATOM     16  C   UNL     1       2.600   2.887  17.460  0.00  0.00    +0.000 C 
ATOM     17  C   UNL     1       4.088   3.134  17.632  0.00  0.00    +0.000 C 
ENDBRANCH  13  17
ENDBRANCH   2  13
ENDBRANCH   1   8
BRANCH   1  18
ATOM     18  C   UNL     1       1.190  11.957  20.335  0.00  0.00    +0.000 C 
ATOM     19  O   UNL     1       1.044  11.922  21.557  0.00  0.00    +0.000 OA
ATOM     20  N   UNL     1       2.076  12.782  19.671  0.00  0.00    +0.000 N 
ATOM     21  C   UNL     1       2.895  13.630  20.369  0.00  0.00    +0.000 A 
ATOM     22  N   UNL     1       3.173  13.626  21.648  0.00  0.00    +0.000 NA
ATOM     23  C   UNL     1       3.961  14.721  21.945  0.00  0.00    +0.000 A 
ATOM     24  C   UNL     1       4.256  15.518  20.869  0.00  0.00    +0.000 A 
ATOM     25  F   UNL     1       4.944  16.626  20.941  0.00  0.00    +0.000 F 
ATOM     26  S   UNL     1       3.609  14.873  19.435  0.00  0.00    +0.000 S 
ATOM     27  H   UNL     1       2.054  12.905  18.667  0.00  0.00    +0.000 HD
ENDBRANCH   1  18
BRANCH   1  28
ATOM     28  C   UNL     1      -1.202  11.189  19.539  0.00  0.00    +0.000 C 
BRANCH  28  29
ATOM     29  C   UNL     1      -2.023  11.326  18.255  0.00  0.00    +0.000 C 
ATOM     30  C   UNL     1      -1.851  10.167  17.271  0.00  0.00    +0.000 C 
ATOM     31  C   UNL     1      -2.643  10.467  16.006  0.00  0.00    +0.000 C 
ATOM     32  C   UNL     1      -4.101  10.726  16.357  0.00  0.00    +0.000 C 
ATOM     33  C   UNL     1      -4.223  11.754  17.479  0.00  0.00    +0.000 C 
ATOM     34  O   UNL     1      -3.414  11.395  18.608  0.00  0.00    +0.000 OA
ENDBRANCH  28  29
ENDBRANCH   1  28
TORSDOF 6
ENDMDL
MODEL 2
REMARK VINA RESULT:      -8.5      1.220      1.853
REMARK  Name = 
REMARK  7 active torsions:
REMARK  status: ('A' for Active; 'I' for Inactive)
REMARK    1  A    between atoms: C_1  and  C_2
REMARK    2  A    between atoms: C_2  and  S_3
REMARK    3  A    between atoms: S_3  and  C_6
REMARK    4  A    between atoms: N_12  and  C_13
REMARK    5  A    between atoms: C_13  and  C_14
REMARK    6  A    between atoms: C_13  and  C_21
REMARK    7  A    between atoms: C_14  and  C_15
REMARK                            x       y       z     vdW  Elec       q    Type
REMARK                         _______ _______ _______ _____ _____    ______ ____
ROOT
ATOM      1  C   UNL     1       0.404  10.708  18.973  0.00  0.00    +0.000 C 
ENDROOT
BRANCH   1   8
ATOM      2  C   UNL     1       3.281   4.965  19.447  0.00  0.00    +0.000 A 
ATOM      3  C   UNL     1       2.380   5.094  20.510  0.00  0.00    +0.000 A 
ATOM      4  C   UNL     1       1.724   6.310  20.710  0.00  0.00    +0.000 A 
ATOM      5  C   UNL     1       1.941   7.360  19.815  0.00  0.00    +0.000 A 
ATOM      6  C   UNL     1       1.322   8.681  20.022  0.00  0.00    +0.000 A 
ATOM      7  O   UNL     1       0.878   8.977  21.129  0.00  0.00    +0.000 OA
ATOM      8  N   UNL     1       1.303   9.528  18.925  0.00  0.00    +0.000 N 
ATOM      9  C   UNL     1       2.012   9.175  17.799  0.00  0.00    +0.000 A 
ATOM     10  N   UNL     1       2.769   8.138  17.663  0.00  0.00    +0.000 NA
ATOM     11  C   UNL     1       2.741   7.182  18.681  0.00  0.00    +0.000 A 
ATOM     12  C   UNL     1       3.455   6.002  18.525  0.00  0.00    +0.000 A 
BRANCH   2  13
ATOM     13  S   UNL     1       4.280   3.503  19.318  0.00  0.00    +0.000 S 
ATOM     14  O   UNL     1       3.830   2.588  20.353  0.00  0.00    +0.000 OA
ATOM     15  O   UNL     1       5.663   3.953  19.275  0.00  0.00    +0.000 OA
BRANCH  13  17
ATOM     16  C   UNL     1       2.455   2.231  17.751  0.00  0.00    +0.000 C 
ATOM     17  C   UNL     1       3.869   2.784  17.740  0.00  0.00    +0.000 C 
ENDBRANCH  13  17
ENDBRANCH   2  13
ENDBRANCH   1   8
BRANCH   1  18
ATOM     18  C   UNL     1       1.153  11.870  19.671  0.00  0.00    +0.000 C 
ATOM     19  O   UNL     1       0.929  12.126  20.854  0.00  0.00    +0.000 OA
ATOM     20  N   UNL     1       2.036  12.563  18.868  0.00  0.00    +0.000 N 
ATOM     21  C   UNL     1       2.762  13.609  19.372  0.00  0.00    +0.000 A 
ATOM     22  N   UNL     1       2.956  13.939  20.624  0.00  0.00    +0.000 NA
ATOM     23  C   UNL     1       3.664  15.124  20.678  0.00  0.00    +0.000 A 
ATOM     24  C   UNL     1       3.987  15.649  19.454  0.00  0.00    +0.000 A 
ATOM     25  F   UNL     1       4.610  16.785  19.282  0.00  0.00    +0.000 F 
ATOM     26  S   UNL     1       3.469  14.629  18.196  0.00  0.00    +0.000 S 
ATOM     27  H   UNL     1       2.073  12.434  17.865  0.00  0.00    +0.000 HD
ENDBRANCH   1  18
BRANCH   1  28
ATOM     28  C   UNL     1      -1.045  10.436  19.429  0.00  0.00    +0.000 C 
BRANCH  28  29
ATOM     29  C   UNL     1      -2.144  10.357  18.367  0.00  0.00    +0.000 C 
ATOM     30  C   UNL     1      -3.029  11.603  18.284  0.00  0.00    +0.000 C 
ATOM     31  C   UNL     1      -4.131  11.363  17.260  0.00  0.00    +0.000 C 
ATOM     32  C   UNL     1      -3.518  10.988  15.918  0.00  0.00    +0.000 C 
ATOM     33  C   UNL     1      -2.497   9.865  16.074  0.00  0.00    +0.000 C 
ATOM     34  O   UNL     1      -1.525  10.176  17.083  0.00  0.00    +0.000 OA
ENDBRANCH  28  29
ENDBRANCH   1  28
TORSDOF 6
ENDMDL
MODEL 3
REMARK VINA RESULT:      -8.3      1.150      1.668
REMARK  Name = 
REMARK  7 active torsions:
REMARK  status: ('A' for Active; 'I' for Inactive)
REMARK    1  A    between atoms: C_1  and  C_2
REMARK    2  A    between atoms: C_2  and  S_3
REMARK    3  A    between atoms: S_3  and  C_6
REMARK    4  A    between atoms: N_12  and  C_13
REMARK    5  A    between atoms: C_13  and  C_14
REMARK    6  A    between atoms: C_13  and  C_21
REMARK    7  A    between atoms: C_14  and  C_15
REMARK                            x       y       z     vdW  Elec       q    Type
REMARK                         _______ _______ _______ _____ _____    ______ ____
ROOT
ATOM      1  C   UNL     1       0.469  11.110  19.093  0.00  0.00    +0.000 C 
ENDROOT
BRANCH   1   8
ATOM      2  C   UNL     1       3.139   5.249  19.095  0.00  0.00    +0.000 A 
ATOM      3  C   UNL     1       2.294   5.347  20.206  0.00  0.00    +0.000 A 
ATOM      4  C   UNL     1       1.696   6.571  20.507  0.00  0.00    +0.000 A 
ATOM      5  C   UNL     1       1.912   7.664  19.665  0.00  0.00    +0.000 A 
ATOM      6  C   UNL     1       1.355   8.992  19.978  0.00  0.00    +0.000 A 
ATOM      7  O   UNL     1       0.975   9.238  21.121  0.00  0.00    +0.000 OA
ATOM      8  N   UNL     1       1.318   9.903  18.933  0.00  0.00    +0.000 N 
ATOM      9  C   UNL     1       1.960   9.592  17.756  0.00  0.00    +0.000 A 
ATOM     10  N   UNL     1       2.669   8.539  17.524  0.00  0.00    +0.000 NA
ATOM     11  C   UNL     1       2.651   7.526  18.486  0.00  0.00    +0.000 A 
ATOM     12  C   UNL     1       3.310   6.331  18.228  0.00  0.00    +0.000 A 
BRANCH   2  13
ATOM     13  S   UNL     1       4.074   3.762  18.834  0.00  0.00    +0.000 S 
ATOM     14  O   UNL     1       5.363   3.953  19.475  0.00  0.00    +0.000 OA
ATOM     15  O   UNL     1       3.987   3.467  17.412  0.00  0.00    +0.000 OA
BRANCH  13  17
ATOM     16  C   UNL     1       1.996   2.009  18.945  0.00  0.00    +0.000 C 
ATOM     17  C   UNL     1       3.203   2.491  19.729  0.00  0.00    +0.000 C 
ENDBRANCH  13  17
ENDBRANCH   2  13
ENDBRANCH   1   8
BRANCH   1  18
ATOM     18  C   UNL     1       1.161  12.070  20.092  0.00  0.00    +0.000 C 
ATOM     19  O   UNL     1       0.769  12.136  21.257  0.00  0.00    +0.000 OA
ATOM     20  N   UNL     1       2.194  12.819  19.564  0.00  0.00    +0.000 N 
ATOM     21  C   UNL     1       2.887  13.700  20.350  0.00  0.00    +0.000 A 
ATOM     22  N   UNL     1       2.900  13.793  21.656  0.00  0.00    +0.000 NA
ATOM     23  C   UNL     1       3.654  14.890  22.027  0.00  0.00    +0.000 A 
ATOM     24  C   UNL     1       4.191  15.591  20.978  0.00  0.00    +0.000 A 
ATOM     25  F   UNL     1       4.893  16.685  21.108  0.00  0.00    +0.000 F 
ATOM     26  S   UNL     1       3.823  14.848  19.494  0.00  0.00    +0.000 S 
ATOM     27  H   UNL     1       2.381  12.861  18.571  0.00  0.00    +0.000 HD
ENDBRANCH   1  18
BRANCH   1  28
ATOM     28  C   UNL     1      -1.039  10.854  19.300  0.00  0.00    +0.000 C 
BRANCH  28  29
ATOM     29  C   UNL     1      -1.997  11.154  18.145  0.00  0.00    +0.000 C 
ATOM     30  C   UNL     1      -1.963  10.122  17.016  0.00  0.00    +0.000 C 
ATOM     31  C   UNL     1      -2.887  10.579  15.895  0.00  0.00    +0.000 C 
ATOM     32  C   UNL     1      -4.289  10.806  16.441  0.00  0.00    +0.000 C 
ATOM     33  C   UNL     1      -4.260  11.691  17.684  0.00  0.00    +0.000 C 
ATOM     34  O   UNL     1      -3.337  11.191  18.662  0.00  0.00    +0.000 OA
ENDBRANCH  28  29
ENDBRANCH   1  28
TORSDOF 6
ENDMDL
MODEL 4
REMARK VINA RESULT:      -8.1      1.026      1.580
REMARK  Name = 
REMARK  7 active torsions:
REMARK  status: ('A' for Active; 'I' for Inactive)
REMARK    1  A    between atoms: C_1  and  C_2
REMARK    2  A    between atoms: C_2  and  S_3
REMARK    3  A    between atoms: S_3  and  C_6
REMARK    4  A    between atoms: N_12  and  C_13
REMARK    5  A    between atoms: C_13  and  C_14
REMARK    6  A    between atoms: C_13  and  C_21
REMARK    7  A    between atoms: C_14  and  C_15
REMARK                            x       y       z     vdW  Elec       q    Type
REMARK                         _______ _______ _______ _____ _____    ______ ____
ROOT
ATOM      1  C   UNL     1       0.443  11.146  19.105  0.00  0.00    +0.000 C 
ENDROOT
BRANCH   1   8
ATOM      2  C   UNL     1       3.106   5.283  19.175  0.00  0.00    +0.000 A 
ATOM      3  C   UNL     1       2.250   5.390  20.278  0.00  0.00    +0.000 A 
ATOM      4  C   UNL     1       1.651   6.617  20.564  0.00  0.00    +0.000 A 
ATOM      5  C   UNL     1       1.876   7.704  19.716  0.00  0.00    +0.000 A 
ATOM      6  C   UNL     1       1.317   9.034  20.013  0.00  0.00    +0.000 A 
ATOM      7  O   UNL     1       0.927   9.289  21.151  0.00  0.00    +0.000 OA
ATOM      8  N   UNL     1       1.292   9.938  18.962  0.00  0.00    +0.000 N 
ATOM      9  C   UNL     1       1.945   9.618  17.794  0.00  0.00    +0.000 A 
ATOM     10  N   UNL     1       2.655   8.562  17.576  0.00  0.00    +0.000 NA
ATOM     11  C   UNL     1       2.626   7.556  18.545  0.00  0.00    +0.000 A 
ATOM     12  C   UNL     1       3.286   6.359  18.302  0.00  0.00    +0.000 A 
BRANCH   2  13
ATOM     13  S   UNL     1       4.041   3.793  18.934  0.00  0.00    +0.000 S 
ATOM     14  O   UNL     1       3.309   2.722  19.587  0.00  0.00    +0.000 OA
ATOM     15  O   UNL     1       5.410   4.100  19.319  0.00  0.00    +0.000 OA
BRANCH  13  17
ATOM     16  C   UNL     1       5.312   3.897  16.530  0.00  0.00    +0.000 C 
ATOM     17  C   UNL     1       4.002   3.487  17.179  0.00  0.00    +0.000 C 
ENDBRANCH  13  17
ENDBRANCH   2  13
ENDBRANCH   1   8
BRANCH   1  18
ATOM     18  C   UNL     1       1.123  12.111  20.107  0.00  0.00    +0.000 C 
ATOM     19  O   UNL     1       0.707  12.194  21.263  0.00  0.00    +0.000 OA
ATOM     20  N   UNL     1       2.175  12.843  19.594  0.00  0.00    +0.000 N 
ATOM     21  C   UNL     1       2.860  13.726  20.385  0.00  0.00    +0.000 A 
ATOM     22  N   UNL     1       2.847  13.834  21.689  0.00  0.00    +0.000 NA
ATOM     23  C   UNL     1       3.604  14.927  22.064  0.00  0.00    +0.000 A 
ATOM     24  C   UNL     1       4.171  15.610  21.019  0.00  0.00    +0.000 A 
ATOM     25  F   UNL     1       4.881  16.699  21.151  0.00  0.00    +0.000 F 
ATOM     26  S   UNL     1       3.826  14.854  19.536  0.00  0.00    +0.000 S 
ATOM     27  H   UNL     1       2.383  12.872  18.605  0.00  0.00    +0.000 HD
ENDBRANCH   1  18
BRANCH   1  28
ATOM     28  C   UNL     1      -1.068  10.894  19.294  0.00  0.00    +0.000 C 
BRANCH  28  29
ATOM     29  C   UNL     1      -2.005  11.142  18.110  0.00  0.00    +0.000 C 
ATOM     30  C   UNL     1      -1.955  10.059  17.030  0.00  0.00    +0.000 C 
ATOM     31  C   UNL     1      -2.858  10.467  15.874  0.00  0.00    +0.000 C 
ATOM     32  C   UNL     1      -4.269  10.722  16.384  0.00  0.00    +0.000 C 
ATOM     33  C   UNL     1      -4.259  11.662  17.586  0.00  0.00    +0.000 C 
ATOM     34  O   UNL     1      -3.354  11.205  18.601  0.00  0.00    +0.000 OA
ENDBRANCH  28  29
ENDBRANCH   1  28
TORSDOF 6
ENDMDL
MODEL 5
REMARK VINA RESULT:      -8.1      3.128      5.255
REMARK  Name = 
REMARK  7 active torsions:
REMARK  status: ('A' for Active; 'I' for Inactive)
REMARK    1  A    between atoms: C_1  and  C_2
REMARK    2  A    between atoms: C_2  and  S_3
REMARK    3  A    between atoms: S_3  and  C_6
REMARK    4  A    between atoms: N_12  and  C_13
REMARK    5  A    between atoms: C_13  and  C_14
REMARK    6  A    between atoms: C_13  and  C_21
REMARK    7  A    between atoms: C_14  and  C_15
REMARK                            x       y       z     vdW  Elec       q    Type
REMARK                         _______ _______ _______ _____ _____    ______ ____
ROOT
ATOM      1  C   UNL     1       1.096  10.911  19.670  0.00  0.00    +0.000 C 
ENDROOT
BRANCH   1   8
ATOM      2  C   UNL     1       3.379   4.946  18.851  0.00  0.00    +0.000 A 
ATOM      3  C   UNL     1       3.783   5.724  17.761  0.00  0.00    +0.000 A 
ATOM      4  C   UNL     1       3.302   7.028  17.633  0.00  0.00    +0.000 A 
ATOM      5  C   UNL     1       2.466   7.549  18.623  0.00  0.00    +0.000 A 
ATOM      6  C   UNL     1       1.883   8.897  18.499  0.00  0.00    +0.000 A 
ATOM      7  O   UNL     1       1.854   9.448  17.401  0.00  0.00    +0.000 OA
ATOM      8  N   UNL     1       1.373   9.454  19.662  0.00  0.00    +0.000 N 
ATOM      9  C   UNL     1       1.269   8.667  20.787  0.00  0.00    +0.000 A 
ATOM     10  N   UNL     1       1.543   7.409  20.870  0.00  0.00    +0.000 NA
ATOM     11  C   UNL     1       2.172   6.812  19.775  0.00  0.00    +0.000 A 
ATOM     12  C   UNL     1       2.584   5.489  19.864  0.00  0.00    +0.000 A 
BRANCH   2  13
ATOM     13  S   UNL     1       3.806   3.223  18.904  0.00  0.00    +0.000 S 
ATOM     14  O   UNL     1       4.959   3.098  19.779  0.00  0.00    +0.000 OA
ATOM     15  O   UNL     1       3.870   2.773  17.522  0.00  0.00    +0.000 OA
BRANCH  13  17
ATOM     16  C   UNL     1       1.266   2.261  18.735  0.00  0.00    +0.000 C 
ATOM     17  C   UNL     1       2.430   2.416  19.698  0.00  0.00    +0.000 C 
ENDBRANCH  13  17
ENDBRANCH   2  13
ENDBRANCH   1   8
BRANCH   1  18
ATOM     18  C   UNL     1      -0.430  11.124  19.507  0.00  0.00    +0.000 C 
ATOM     19  O   UNL     1      -1.149  11.222  20.501  0.00  0.00    +0.000 OA
ATOM     20  N   UNL     1      -0.878  11.170  18.202  0.00  0.00    +0.000 N 
ATOM     21  C   UNL     1      -2.206  11.358  17.928  0.00  0.00    +0.000 A 
ATOM     22  N   UNL     1      -3.155  11.767  18.733  0.00  0.00    +0.000 NA
ATOM     23  C   UNL     1      -4.367  11.714  18.071  0.00  0.00    +0.000 A 
ATOM     24  C   UNL     1      -4.289  11.267  16.777  0.00  0.00    +0.000 A 
ATOM     25  F   UNL     1      -5.321  11.096  15.995  0.00  0.00    +0.000 F 
ATOM     26  S   UNL     1      -2.676  10.968  16.331  0.00  0.00    +0.000 S 
ATOM     27  H   UNL     1      -0.289  10.921  17.418  0.00  0.00    +0.000 HD
ENDBRANCH   1  18
BRANCH   1  28
ATOM     28  C   UNL     1       2.021  11.782  18.794  0.00  0.00    +0.000 C 
BRANCH  28  29
ATOM     29  C   UNL     1       2.068  13.290  19.053  0.00  0.00    +0.000 C 
ATOM     30  C   UNL     1       2.549  13.673  20.454  0.00  0.00    +0.000 C 
ATOM     31  C   UNL     1       2.464  15.184  20.614  0.00  0.00    +0.000 C 
ATOM     32  C   UNL     1       3.262  15.867  19.512  0.00  0.00    +0.000 C 
ATOM     33  C   UNL     1       2.885  15.320  18.139  0.00  0.00    +0.000 C 
ATOM     34  O   UNL     1       2.967  13.888  18.105  0.00  0.00    +0.000 OA
ENDBRANCH  28  29
ENDBRANCH   1  28
TORSDOF 6
ENDMDL
MODEL 6
REMARK VINA RESULT:      -8.1      3.029      3.680
REMARK  Name = 
REMARK  7 active torsions:
REMARK  status: ('A' for Active; 'I' for Inactive)
REMARK    1  A    between atoms: C_1  and  C_2
REMARK    2  A    between atoms: C_2  and  S_3
REMARK    3  A    between atoms: S_3  and  C_6
REMARK    4  A    between atoms: N_12  and  C_13
REMARK    5  A    between atoms: C_13  and  C_14
REMARK    6  A    between atoms: C_13  and  C_21
REMARK    7  A    between atoms: C_14  and  C_15
REMARK                            x       y       z     vdW  Elec       q    Type
REMARK                         _______ _______ _______ _____ _____    ______ ____
ROOT
ATOM      1  C   UNL     1      -0.659  11.770  21.386  0.00  0.00    +0.000 C 
ENDROOT
BRANCH   1   8
ATOM      2  C   UNL     1       2.758   7.175  18.440  0.00  0.00    +0.000 A 
ATOM      3  C   UNL     1       2.534   8.210  17.526  0.00  0.00    +0.000 A 
ATOM      4  C   UNL     1       1.699   9.270  17.881  0.00  0.00    +0.000 A 
ATOM      5  C   UNL     1       1.142   9.304  19.161  0.00  0.00    +0.000 A 
ATOM      6  C   UNL     1       0.204  10.368  19.559  0.00  0.00    +0.000 A 
ATOM      7  O   UNL     1      -0.350  11.045  18.695  0.00  0.00    +0.000 OA
ATOM      8  N   UNL     1      -0.011  10.520  20.920  0.00  0.00    +0.000 N 
ATOM      9  C   UNL     1       0.497   9.575  21.783  0.00  0.00    +0.000 A 
ATOM     10  N   UNL     1       1.120   8.493  21.455  0.00  0.00    +0.000 NA
ATOM     11  C   UNL     1       1.475   8.335  20.114  0.00  0.00    +0.000 A 
ATOM     12  C   UNL     1       2.241   7.240  19.737  0.00  0.00    +0.000 A 
BRANCH   2  13
ATOM     13  S   UNL     1       3.635   5.721  17.920  0.00  0.00    +0.000 S 
ATOM     14  O   UNL     1       4.579   6.138  16.898  0.00  0.00    +0.000 OA
ATOM     15  O   UNL     1       2.627   4.713  17.634  0.00  0.00    +0.000 OA
BRANCH  13  17
ATOM     16  C   UNL     1       4.722   3.686  19.363  0.00  0.00    +0.000 C 
ATOM     17  C   UNL     1       4.571   5.197  19.343  0.00  0.00    +0.000 C 
ENDBRANCH  13  17
ENDBRANCH   2  13
ENDBRANCH   1   8
BRANCH   1  18
ATOM     18  C   UNL     1       0.278  12.960  21.066  0.00  0.00    +0.000 C 
ATOM     19  O   UNL     1       1.345  13.085  21.669  0.00  0.00    +0.000 OA
ATOM     20  N   UNL     1      -0.187  13.830  20.101  0.00  0.00    +0.000 N 
ATOM     21  C   UNL     1       0.555  14.919  19.728  0.00  0.00    +0.000 A 
ATOM     22  N   UNL     1       1.818  15.167  19.969  0.00  0.00    +0.000 NA
ATOM     23  C   UNL     1       2.132  16.427  19.499  0.00  0.00    +0.000 A 
ATOM     24  C   UNL     1       1.087  17.091  18.910  0.00  0.00    +0.000 A 
ATOM     25  F   UNL     1       1.158  18.310  18.445  0.00  0.00    +0.000 F 
ATOM     26  S   UNL     1      -0.307  16.118  18.866  0.00  0.00    +0.000 S 
ATOM     27  H   UNL     1      -1.134  13.790  19.747  0.00  0.00    +0.000 HD
ENDBRANCH   1  18
BRANCH   1  28
ATOM     28  C   UNL     1      -1.276  11.727  22.801  0.00  0.00    +0.000 C 
BRANCH  28  29
ATOM     29  C   UNL     1      -2.552  12.529  23.067  0.00  0.00    +0.000 C 
ATOM     30  C   UNL     1      -3.384  12.823  21.817  0.00  0.00    +0.000 C 
ATOM     31  C   UNL     1      -4.568  13.698  22.201  0.00  0.00    +0.000 C 
ATOM     32  C   UNL     1      -5.378  13.021  23.298  0.00  0.00    +0.000 C 
ATOM     33  C   UNL     1      -4.480  12.573  24.448  0.00  0.00    +0.000 C 
ATOM     34  O   UNL     1      -3.378  11.784  23.975  0.00  0.00    +0.000 OA
ENDBRANCH  28  29
ENDBRANCH   1  28
TORSDOF 6
ENDMDL
MODEL 7
REMARK VINA RESULT:      -8.1      0.942      1.219
REMARK  Name = 
REMARK  7 active torsions:
REMARK  status: ('A' for Active; 'I' for Inactive)
REMARK    1  A    between atoms: C_1  and  C_2
REMARK    2  A    between atoms: C_2  and  S_3
REMARK    3  A    between atoms: S_3  and  C_6
REMARK    4  A    between atoms: N_12  and  C_13
REMARK    5  A    between atoms: C_13  and  C_14
REMARK    6  A    between atoms: C_13  and  C_21
REMARK    7  A    between atoms: C_14  and  C_15
REMARK                            x       y       z     vdW  Elec       q    Type
REMARK                         _______ _______ _______ _____ _____    ______ ____
ROOT
ATOM      1  C   UNL     1       0.301  11.055  19.468  0.00  0.00    +0.000 C 
ENDROOT
BRANCH   1   8
ATOM      2  C   UNL     1       3.929   5.801  18.627  0.00  0.00    +0.000 A 
ATOM      3  C   UNL     1       4.158   6.669  17.553  0.00  0.00    +0.000 A 
ATOM      4  C   UNL     1       3.388   7.826  17.431  0.00  0.00    +0.000 A 
ATOM      5  C   UNL     1       2.437   8.123  18.410  0.00  0.00    +0.000 A 
ATOM      6  C   UNL     1       1.557   9.298  18.290  0.00  0.00    +0.000 A 
ATOM      7  O   UNL     1       1.417   9.844  17.197  0.00  0.00    +0.000 OA
ATOM      8  N   UNL     1       0.912   9.703  19.449  0.00  0.00    +0.000 N 
ATOM      9  C   UNL     1       0.976   8.896  20.562  0.00  0.00    +0.000 A 
ATOM     10  N   UNL     1       1.536   7.736  20.637  0.00  0.00    +0.000 NA
ATOM     11  C   UNL     1       2.305   7.320  19.548  0.00  0.00    +0.000 A 
ATOM     12  C   UNL     1       3.013   6.129  19.631  0.00  0.00    +0.000 A 
BRANCH   2  13
ATOM     13  S   UNL     1       4.747   4.225  18.669  0.00  0.00    +0.000 S 
ATOM     14  O   UNL     1       4.624   3.648  17.341  0.00  0.00    +0.000 OA
ATOM     15  O   UNL     1       4.230   3.525  19.834  0.00  0.00    +0.000 OA
BRANCH  13  17
ATOM     16  C   UNL     1       7.227   4.650  17.632  0.00  0.00    +0.000 C 
ATOM     17  C   UNL     1       6.468   4.591  18.947  0.00  0.00    +0.000 C 
ENDBRANCH  13  17
ENDBRANCH   2  13
ENDBRANCH   1   8
BRANCH   1  18
ATOM     18  C   UNL     1       1.157  11.970  20.377  0.00  0.00    +0.000 C 
ATOM     19  O   UNL     1       1.007  11.941  21.599  0.00  0.00    +0.000 OA
ATOM     20  N   UNL     1       2.046  12.790  19.712  0.00  0.00    +0.000 N 
ATOM     21  C   UNL     1       2.863  13.641  20.409  0.00  0.00    +0.000 A 
ATOM     22  N   UNL     1       3.136  13.644  21.689  0.00  0.00    +0.000 NA
ATOM     23  C   UNL     1       3.924  14.740  21.983  0.00  0.00    +0.000 A 
ATOM     24  C   UNL     1       4.224  15.531  20.904  0.00  0.00    +0.000 A 
ATOM     25  F   UNL     1       4.912  16.640  20.973  0.00  0.00    +0.000 F 
ATOM     26  S   UNL     1       3.581  14.879  19.471  0.00  0.00    +0.000 S 
ATOM     27  H   UNL     1       2.028  12.908  18.708  0.00  0.00    +0.000 HD
ENDBRANCH   1  18
BRANCH   1  28
ATOM     28  C   UNL     1      -1.229  11.105  19.668  0.00  0.00    +0.000 C 
BRANCH  28  29
ATOM     29  C   UNL     1      -2.119  11.354  18.449  0.00  0.00    +0.000 C 
ATOM     30  C   UNL     1      -2.032  10.268  17.374  0.00  0.00    +0.000 C 
ATOM     31  C   UNL     1      -2.888  10.677  16.183  0.00  0.00    +0.000 C 
ATOM     32  C   UNL     1      -4.317  10.938  16.638  0.00  0.00    +0.000 C 
ATOM     33  C   UNL     1      -4.349  11.881  17.837  0.00  0.00    +0.000 C 
ATOM     34  O   UNL     1      -3.485  11.423  18.888  0.00  0.00    +0.000 OA
ENDBRANCH  28  29
ENDBRANCH   1  28
TORSDOF 6
ENDMDL
MODEL 8
REMARK VINA RESULT:      -8.1      3.114      4.050
REMARK  Name = 
REMARK  7 active torsions:
REMARK  status: ('A' for Active; 'I' for Inactive)
REMARK    1  A    between atoms: C_1  and  C_2
REMARK    2  A    between atoms: C_2  and  S_3
REMARK    3  A    between atoms: S_3  and  C_6
REMARK    4  A    between atoms: N_12  and  C_13
REMARK    5  A    between atoms: C_13  and  C_14
REMARK    6  A    between atoms: C_13  and  C_21
REMARK    7  A    between atoms: C_14  and  C_15
REMARK                            x       y       z     vdW  Elec       q    Type
REMARK                         _______ _______ _______ _____ _____    ______ ____
ROOT
ATOM      1  C   UNL     1      -0.462  11.888  21.374  0.00  0.00    +0.000 C 
ENDROOT
BRANCH   1   8
ATOM      2  C   UNL     1       2.674   6.941  18.697  0.00  0.00    +0.000 A 
ATOM      3  C   UNL     1       2.461   7.911  17.712  0.00  0.00    +0.000 A 
ATOM      4  C   UNL     1       1.681   9.030  18.007  0.00  0.00    +0.000 A 
ATOM      5  C   UNL     1       1.168   9.185  19.297  0.00  0.00    +0.000 A 
ATOM      6  C   UNL     1       0.286  10.315  19.637  0.00  0.00    +0.000 A 
ATOM      7  O   UNL     1      -0.268  10.946  18.739  0.00  0.00    +0.000 OA
ATOM      8  N   UNL     1       0.122  10.580  20.988  0.00  0.00    +0.000 N 
ATOM      9  C   UNL     1       0.619   9.683  21.907  0.00  0.00    +0.000 A 
ATOM     10  N   UNL     1       1.187   8.554  21.647  0.00  0.00    +0.000 NA
ATOM     11  C   UNL     1       1.492   8.279  20.311  0.00  0.00    +0.000 A 
ATOM     12  C   UNL     1       2.201   7.127  19.999  0.00  0.00    +0.000 A 
BRANCH   2  13
ATOM     13  S   UNL     1       3.476   5.416  18.266  0.00  0.00    +0.000 S 
ATOM     14  O   UNL     1       4.007   4.854  19.496  0.00  0.00    +0.000 OA
ATOM     15  O   UNL     1       4.353   5.715  17.146  0.00  0.00    +0.000 OA
BRANCH  13  17
ATOM     16  C   UNL     1       1.443   3.709  18.865  0.00  0.00    +0.000 C 
ATOM     17  C   UNL     1       2.174   4.341  17.695  0.00  0.00    +0.000 C 
ENDBRANCH  13  17
ENDBRANCH   2  13
ENDBRANCH   1   8
BRANCH   1  18
ATOM     18  C   UNL     1       0.510  13.010  20.933  0.00  0.00    +0.000 C 
ATOM     19  O   UNL     1       1.632  13.087  21.434  0.00  0.00    +0.000 OA
ATOM     20  N   UNL     1       0.010  13.879  19.984  0.00  0.00    +0.000 N 
ATOM     21  C   UNL     1       0.777  14.910  19.511  0.00  0.00    +0.000 A 
ATOM     22  N   UNL     1       2.069  15.087  19.631  0.00  0.00    +0.000 NA
ATOM     23  C   UNL     1       2.412  16.313  19.093  0.00  0.00    +0.000 A 
ATOM     24  C   UNL     1       1.358  17.022  18.577  0.00  0.00    +0.000 A 
ATOM     25  F   UNL     1       1.456  18.221  18.068  0.00  0.00    +0.000 F 
ATOM     26  S   UNL     1      -0.089  16.135  18.690  0.00  0.00    +0.000 S 
ATOM     27  H   UNL     1      -0.965  13.887  19.718  0.00  0.00    +0.000 HD
ENDBRANCH   1  18
BRANCH   1  28
ATOM     28  C   UNL     1      -1.031  11.980  22.806  0.00  0.00    +0.000 C 
BRANCH  28  29
ATOM     29  C   UNL     1      -1.791  13.245  23.211  0.00  0.00    +0.000 C 
ATOM     30  C   UNL     1      -3.158  12.982  23.848  0.00  0.00    +0.000 C 
ATOM     31  C   UNL     1      -3.845  14.313  24.120  0.00  0.00    +0.000 C 
ATOM     32  C   UNL     1      -2.953  15.189  24.987  0.00  0.00    +0.000 C 
ATOM     33  C   UNL     1      -1.540  15.273  24.415  0.00  0.00    +0.000 C 
ATOM     34  O   UNL     1      -0.998  13.968  24.165  0.00  0.00    +0.000 OA
ENDBRANCH  28  29
ENDBRANCH   1  28
TORSDOF 6
ENDMDL
MODEL 9
REMARK VINA RESULT:      -8.0      2.865      3.850
REMARK  Name = 
REMARK  7 active torsions:
REMARK  status: ('A' for Active; 'I' for Inactive)
REMARK    1  A    between atoms: C_1  and  C_2
REMARK    2  A    between atoms: C_2  and  S_3
REMARK    3  A    between atoms: S_3  and  C_6
REMARK    4  A    between atoms: N_12  and  C_13
REMARK    5  A    between atoms: C_13  and  C_14
REMARK    6  A    between atoms: C_13  and  C_21
REMARK    7  A    between atoms: C_14  and  C_15
REMARK                            x       y       z     vdW  Elec       q    Type
REMARK                         _______ _______ _______ _____ _____    ______ ____
ROOT
ATOM      1  C   UNL     1      -0.307  11.441  21.130  0.00  0.00    +0.000 C 
ENDROOT
BRANCH   1   8
ATOM      2  C   UNL     1       3.107   6.683  18.449  0.00  0.00    +0.000 A 
ATOM      3  C   UNL     1       2.963   7.706  17.506  0.00  0.00    +0.000 A 
ATOM      4  C   UNL     1       2.146   8.799  17.798  0.00  0.00    +0.000 A 
ATOM      5  C   UNL     1       1.526   8.875  19.047  0.00  0.00    +0.000 A 
ATOM      6  C   UNL     1       0.603   9.976  19.376  0.00  0.00    +0.000 A 
ATOM      7  O   UNL     1       0.117  10.653  18.472  0.00  0.00    +0.000 OA
ATOM      8  N   UNL     1       0.324  10.161  20.721  0.00  0.00    +0.000 N 
ATOM      9  C   UNL     1       0.756   9.218  21.626  0.00  0.00    +0.000 A 
ATOM     10  N   UNL     1       1.359   8.111  21.351  0.00  0.00    +0.000 NA
ATOM     11  C   UNL     1       1.777   7.916  20.032  0.00  0.00    +0.000 A 
ATOM     12  C   UNL     1       2.526   6.790  19.716  0.00  0.00    +0.000 A 
BRANCH   2  13
ATOM     13  S   UNL     1       3.962   5.192  18.002  0.00  0.00    +0.000 S 
ATOM     14  O   UNL     1       2.982   4.305  17.400  0.00  0.00    +0.000 OA
ATOM     15  O   UNL     1       4.714   4.781  19.178  0.00  0.00    +0.000 OA
BRANCH  13  17
ATOM     16  C   UNL     1       6.358   6.297  17.338  0.00  0.00    +0.000 C 
ATOM     17  C   UNL     1       5.116   5.670  16.731  0.00  0.00    +0.000 C 
ENDBRANCH  13  17
ENDBRANCH   2  13
ENDBRANCH   1   8
BRANCH   1  18
ATOM     18  C   UNL     1       0.654  12.601  20.771  0.00  0.00    +0.000 C 
ATOM     19  O   UNL     1       1.781  12.644  21.266  0.00  0.00    +0.000 OA
ATOM     20  N   UNL     1       0.139  13.540  19.901  0.00  0.00    +0.000 N 
ATOM     21  C   UNL     1       0.895  14.610  19.504  0.00  0.00    +0.000 A 
ATOM     22  N   UNL     1       2.187  14.786  19.625  0.00  0.00    +0.000 NA
ATOM     23  C   UNL     1       2.517  16.054  19.185  0.00  0.00    +0.000 A 
ATOM     24  C   UNL     1       1.454  16.795  18.738  0.00  0.00    +0.000 A 
ATOM     25  F   UNL     1       1.540  18.032  18.327  0.00  0.00    +0.000 F 
ATOM     26  S   UNL     1       0.014  15.892  18.793  0.00  0.00    +0.000 S 
ATOM     27  H   UNL     1      -0.839  13.563  19.645  0.00  0.00    +0.000 HD
ENDBRANCH   1  18
BRANCH   1  28
ATOM     28  C   UNL     1      -0.937  11.465  22.539  0.00  0.00    +0.000 C 
BRANCH  28  29
ATOM     29  C   UNL     1      -1.777  12.678  22.944  0.00  0.00    +0.000 C 
ATOM     30  C   UNL     1      -3.074  12.329  23.678  0.00  0.00    +0.000 C 
ATOM     31  C   UNL     1      -3.857  13.608  23.942  0.00  0.00    +0.000 C 
ATOM     32  C   UNL     1      -2.992  14.593  24.715  0.00  0.00    +0.000 C 
ATOM     33  C   UNL     1      -1.630  14.770  24.050  0.00  0.00    +0.000 C 
ATOM     34  O   UNL     1      -0.993  13.506  23.816  0.00  0.00    +0.000 OA
ENDBRANCH  28  29
ENDBRANCH   1  28
TORSDOF 6
ENDMDL
