MODEL 1
REMARK VINA RESULT:      -8.9      0.000      0.000
REMARK  Name = 
REMARK  2 active torsions:
REMARK  status: ('A' for Active; 'I' for Inactive)
REMARK    1  A    between atoms: C_2  and  C_3
REMARK    2  A    between atoms: C_2  and  C_16
REMARK                            x       y       z     vdW  Elec       q    Type
REMARK                         _______ _______ _______ _____ _____    ______ ____
ROOT
ATOM      1  C   UNL     1       1.075   9.258  19.447  0.00  0.00    +0.000 C 
ATOM      2  N   UNL     1       1.367   8.835  20.614  0.00  0.00    +0.000 NA
ATOM      3  S   UNL     1       0.409   9.112  21.878  0.00  0.00    +0.000 S 
ATOM      4  O   UNL     1      -0.599   8.078  21.909  0.00  0.00    +0.000 OA
ATOM      5  O   UNL     1       1.275   9.340  23.026  0.00  0.00    +0.000 OA
ATOM      6  C   UNL     1      -0.469  10.623  21.648  0.00  0.00    +0.000 A 
ATOM      7  C   UNL     1      -1.007  11.254  22.785  0.00  0.00    +0.000 A 
ATOM      8  C   UNL     1      -1.701  12.451  22.650  0.00  0.00    +0.000 A 
ATOM      9  C   UNL     1      -1.832  13.032  21.388  0.00  0.00    +0.000 A 
ATOM     10 CL   UNL     1      -2.671  14.522  21.226  0.00  0.00    +0.000 Cl
ATOM     11  C   UNL     1      -1.301  12.396  20.264  0.00  0.00    +0.000 A 
ATOM     12  C   UNL     1      -0.641  11.165  20.370  0.00  0.00    +0.000 A 
ATOM     13  S   UNL     1      -0.183  10.307  18.896  0.00  0.00    +0.000 S 
ENDROOT
BRANCH   1  15
ATOM     14  O   UNL     1       2.139   9.751  17.396  0.00  0.00    +0.000 OA
ATOM     15  C   UNL     1       1.881   8.895  18.230  0.00  0.00    +0.000 C 
BRANCH  15  16
ATOM     16  C   UNL     1       2.455   7.513  18.081  0.00  0.00    +0.000 A 
ATOM     17  C   UNL     1       3.786   7.434  17.646  0.00  0.00    +0.000 A 
ATOM     18  C   UNL     1       4.447   6.209  17.599  0.00  0.00    +0.000 A 
ATOM     19  C   UNL     1       3.758   5.025  17.850  0.00  0.00    +0.000 A 
ATOM     20  C   UNL     1       4.412   3.794  17.735  0.00  0.00    +0.000 A 
ATOM     21  C   UNL     1       3.670   2.628  17.595  0.00  0.00    +0.000 A 
ATOM     22  C   UNL     1       2.287   2.668  17.750  0.00  0.00    +0.000 A 
ATOM     23  C   UNL     1       1.656   3.863  18.115  0.00  0.00    +0.000 A 
ATOM     24  C   UNL     1       2.371   5.072  18.128  0.00  0.00    +0.000 A 
ATOM     25  C   UNL     1       1.751   6.325  18.330  0.00  0.00    +0.000 A 
ENDBRANCH  15  16
ENDBRANCH   1  15
TORSDOF 2
ENDMDL
MODEL 2
REMARK VINA RESULT:      -8.3      1.017      1.017
REMARK  Name = 
REMARK  2 active torsions:
REMARK  status: ('A' for Active; 'I' for Inactive)
REMARK    1  A    between atoms: C_2  and  C_3
REMARK    2  A    between atoms: C_2  and  C_16
REMARK                            x       y       z     vdW  Elec       q    Type
REMARK                         _______ _______ _______ _____ _____    ______ ____
ROOT
ATOM      1  C   UNL     1       0.919   9.363  19.757  0.00  0.00    +0.000 C 
ATOM      2  N   UNL     1       1.183   9.036  20.961  0.00  0.00    +0.000 NA
ATOM      3  S   UNL     1       0.183   9.390  22.173  0.00  0.00    +0.000 S 
ATOM      4  O   UNL     1      -0.808   8.342  22.255  0.00  0.00    +0.000 OA
ATOM      5  O   UNL     1       1.009   9.722  23.324  0.00  0.00    +0.000 OA
ATOM      6  C   UNL     1      -0.715  10.861  21.802  0.00  0.00    +0.000 A 
ATOM      7  C   UNL     1      -1.297  11.567  22.872  0.00  0.00    +0.000 A 
ATOM      8  C   UNL     1      -2.007  12.736  22.625  0.00  0.00    +0.000 A 
ATOM      9  C   UNL     1      -2.110  13.216  21.319  0.00  0.00    +0.000 A 
ATOM     10 CL   UNL     1      -2.970  14.673  21.019  0.00  0.00    +0.000 Cl
ATOM     11  C   UNL     1      -1.535  12.508  20.263  0.00  0.00    +0.000 A 
ATOM     12  C   UNL     1      -0.857  11.301  20.482  0.00  0.00    +0.000 A 
ATOM     13  S   UNL     1      -0.340  10.342  19.092  0.00  0.00    +0.000 S 
ENDROOT
BRANCH   1  15
ATOM     14  O   UNL     1       1.916   9.668  17.637  0.00  0.00    +0.000 OA
ATOM     15  C   UNL     1       1.767   8.924  18.596  0.00  0.00    +0.000 C 
BRANCH  15  16
ATOM     16  C   UNL     1       2.513   7.618  18.648  0.00  0.00    +0.000 A 
ATOM     17  C   UNL     1       3.471   7.408  17.646  0.00  0.00    +0.000 A 
ATOM     18  C   UNL     1       4.302   6.291  17.681  0.00  0.00    +0.000 A 
ATOM     19  C   UNL     1       4.104   5.293  18.632  0.00  0.00    +0.000 A 
ATOM     20  C   UNL     1       4.898   4.142  18.618  0.00  0.00    +0.000 A 
ATOM     21  C   UNL     1       4.471   2.999  19.282  0.00  0.00    +0.000 A 
ATOM     22  C   UNL     1       3.348   3.059  20.103  0.00  0.00    +0.000 A 
ATOM     23  C   UNL     1       2.696   4.279  20.314  0.00  0.00    +0.000 A 
ATOM     24  C   UNL     1       3.032   5.408  19.549  0.00  0.00    +0.000 A 
ATOM     25  C   UNL     1       2.301   6.616  19.606  0.00  0.00    +0.000 A 
ENDBRANCH  15  16
ENDBRANCH   1  15
TORSDOF 2
ENDMDL
MODEL 3
REMARK VINA RESULT:      -8.0      2.578      3.685
REMARK  Name = 
REMARK  2 active torsions:
REMARK  status: ('A' for Active; 'I' for Inactive)
REMARK    1  A    between atoms: C_2  and  C_3
REMARK    2  A    between atoms: C_2  and  C_16
REMARK                            x       y       z     vdW  Elec       q    Type
REMARK                         _______ _______ _______ _____ _____    ______ ____
ROOT
ATOM      1  C   UNL     1      -0.310  10.798  18.387  0.00  0.00    +0.000 C 
ATOM      2  N   UNL     1      -1.107  10.033  17.749  0.00  0.00    +0.000 NA
ATOM      3  S   UNL     1      -2.618  10.476  17.414  0.00  0.00    +0.000 S 
ATOM      4  O   UNL     1      -2.598  11.241  16.189  0.00  0.00    +0.000 OA
ATOM      5  O   UNL     1      -3.447   9.285  17.532  0.00  0.00    +0.000 OA
ATOM      6  C   UNL     1      -3.209  11.582  18.653  0.00  0.00    +0.000 A 
ATOM      7  C   UNL     1      -4.602  11.738  18.788  0.00  0.00    +0.000 A 
ATOM      8  C   UNL     1      -5.112  12.595  19.757  0.00  0.00    +0.000 A 
ATOM      9  C   UNL     1      -4.236  13.270  20.608  0.00  0.00    +0.000 A 
ATOM     10 CL   UNL     1      -4.869  14.311  21.819  0.00  0.00    +0.000 Cl
ATOM     11  C   UNL     1      -2.856  13.115  20.463  0.00  0.00    +0.000 A 
ATOM     12  C   UNL     1      -2.319  12.295  19.461  0.00  0.00    +0.000 A 
ATOM     13  S   UNL     1      -0.574  12.306  19.188  0.00  0.00    +0.000 S 
ENDROOT
BRANCH   1  15
ATOM     14  O   UNL     1       1.985  11.347  18.510  0.00  0.00    +0.000 OA
ATOM     15  C   UNL     1       1.142  10.464  18.590  0.00  0.00    +0.000 C 
BRANCH  15  16
ATOM     16  C   UNL     1       1.556   9.073  18.986  0.00  0.00    +0.000 A 
ATOM     17  C   UNL     1       1.294   8.699  20.311  0.00  0.00    +0.000 A 
ATOM     18  C   UNL     1       1.522   7.393  20.739  0.00  0.00    +0.000 A 
ATOM     19  C   UNL     1       2.144   6.473  19.899  0.00  0.00    +0.000 A 
ATOM     20  C   UNL     1       2.432   5.184  20.360  0.00  0.00    +0.000 A 
ATOM     21  C   UNL     1       3.376   4.409  19.698  0.00  0.00    +0.000 A 
ATOM     22  C   UNL     1       3.897   4.845  18.483  0.00  0.00    +0.000 A 
ATOM     23  C   UNL     1       3.419   6.023  17.897  0.00  0.00    +0.000 A 
ATOM     24  C   UNL     1       2.570   6.882  18.613  0.00  0.00    +0.000 A 
ATOM     25  C   UNL     1       2.189   8.156  18.134  0.00  0.00    +0.000 A 
ENDBRANCH  15  16
ENDBRANCH   1  15
TORSDOF 2
ENDMDL
MODEL 4
REMARK VINA RESULT:      -8.0      0.701      1.712
REMARK  Name = 
REMARK  2 active torsions:
REMARK  status: ('A' for Active; 'I' for Inactive)
REMARK    1  A    between atoms: C_2  and  C_3
REMARK    2  A    between atoms: C_2  and  C_16
REMARK                            x       y       z     vdW  Elec       q    Type
REMARK                         _______ _______ _______ _____ _____    ______ ____
ROOT
ATOM      1  C   UNL     1       1.016   9.458  19.456  0.00  0.00    +0.000 C 
ATOM      2  N   UNL     1       1.344   8.997  20.599  0.00  0.00    +0.000 NA
ATOM      3  S   UNL     1       0.375   9.140  21.878  0.00  0.00    +0.000 S 
ATOM      4  O   UNL     1      -0.558   8.037  21.857  0.00  0.00    +0.000 OA
ATOM      5  O   UNL     1       1.228   9.370  23.035  0.00  0.00    +0.000 OA
ATOM      6  C   UNL     1      -0.610  10.594  21.727  0.00  0.00    +0.000 A 
ATOM      7  C   UNL     1      -1.185  11.126  22.896  0.00  0.00    +0.000 A 
ATOM      8  C   UNL     1      -1.963  12.276  22.824  0.00  0.00    +0.000 A 
ATOM      9  C   UNL     1      -2.142  12.910  21.594  0.00  0.00    +0.000 A 
ATOM     10 CL   UNL     1      -3.085  14.343  21.511  0.00  0.00    +0.000 Cl
ATOM     11  C   UNL     1      -1.573  12.373  20.438  0.00  0.00    +0.000 A 
ATOM     12  C   UNL     1      -0.826  11.187  20.479  0.00  0.00    +0.000 A 
ATOM     13  S   UNL     1      -0.315  10.442  18.962  0.00  0.00    +0.000 S 
ENDROOT
BRANCH   1  15
ATOM     14  O   UNL     1       2.048  10.135  17.441  0.00  0.00    +0.000 OA
ATOM     15  C   UNL     1       1.840   9.216  18.222  0.00  0.00    +0.000 C 
BRANCH  15  16
ATOM     16  C   UNL     1       2.492   7.880  17.990  0.00  0.00    +0.000 A 
ATOM     17  C   UNL     1       1.770   6.754  18.408  0.00  0.00    +0.000 A 
ATOM     18  C   UNL     1       2.228   5.470  18.123  0.00  0.00    +0.000 A 
ATOM     19  C   UNL     1       3.479   5.280  17.541  0.00  0.00    +0.000 A 
ATOM     20  C   UNL     1       3.962   3.986  17.321  0.00  0.00    +0.000 A 
ATOM     21  C   UNL     1       5.321   3.780  17.118  0.00  0.00    +0.000 A 
ATOM     22  C   UNL     1       6.166   4.874  16.958  0.00  0.00    +0.000 A 
ATOM     23  C   UNL     1       5.640   6.171  16.929  0.00  0.00    +0.000 A 
ATOM     24  C   UNL     1       4.296   6.402  17.265  0.00  0.00    +0.000 A 
ATOM     25  C   UNL     1       3.756   7.700  17.409  0.00  0.00    +0.000 A 
ENDBRANCH  15  16
ENDBRANCH   1  15
TORSDOF 2
ENDMDL
MODEL 5
REMARK VINA RESULT:      -7.9      4.033      8.283
REMARK  Name = 
REMARK  2 active torsions:
REMARK  status: ('A' for Active; 'I' for Inactive)
REMARK    1  A    between atoms: C_2  and  C_3
REMARK    2  A    between atoms: C_2  and  C_16
REMARK                            x       y       z     vdW  Elec       q    Type
REMARK                         _______ _______ _______ _____ _____    ______ ____
ROOT
ATOM      1  C   UNL     1       2.568   7.512  18.219  0.00  0.00    +0.000 C 
ATOM      2  N   UNL     1       1.978   6.462  18.638  0.00  0.00    +0.000 NA
ATOM      3  S   UNL     1       2.725   5.036  18.692  0.00  0.00    +0.000 S 
ATOM      4  O   UNL     1       3.448   4.958  19.941  0.00  0.00    +0.000 OA
ATOM      5  O   UNL     1       1.739   4.025  18.341  0.00  0.00    +0.000 OA
ATOM      6  C   UNL     1       3.952   4.952  17.430  0.00  0.00    +0.000 A 
ATOM      7  C   UNL     1       4.401   3.680  17.030  0.00  0.00    +0.000 A 
ATOM      8  C   UNL     1       5.363   3.567  16.032  0.00  0.00    +0.000 A 
ATOM      9  C   UNL     1       5.852   4.718  15.414  0.00  0.00    +0.000 A 
ATOM     10 CL   UNL     1       7.024   4.575  14.167  0.00  0.00    +0.000 Cl
ATOM     11  C   UNL     1       5.406   5.977  15.821  0.00  0.00    +0.000 A 
ATOM     12  C   UNL     1       4.474   6.117  16.859  0.00  0.00    +0.000 A 
ATOM     13  S   UNL     1       4.111   7.732  17.474  0.00  0.00    +0.000 S 
ENDROOT
BRANCH   1  15
ATOM     14  O   UNL     1       1.958   9.604  17.307  0.00  0.00    +0.000 OA
ATOM     15  C   UNL     1       1.937   8.876  18.289  0.00  0.00    +0.000 C 
BRANCH  15  16
ATOM     16  C   UNL     1       1.197   9.311  19.524  0.00  0.00    +0.000 A 
ATOM     17  C   UNL     1       1.265   8.448  20.627  0.00  0.00    +0.000 A 
ATOM     18  C   UNL     1       0.721   8.820  21.855  0.00  0.00    +0.000 A 
ATOM     19  C   UNL     1      -0.019   9.994  21.972  0.00  0.00    +0.000 A 
ATOM     20  C   UNL     1      -0.619  10.327  23.191  0.00  0.00    +0.000 A 
ATOM     21  C   UNL     1      -1.654  11.253  23.222  0.00  0.00    +0.000 A 
ATOM     22  C   UNL     1      -1.967  11.974  22.073  0.00  0.00    +0.000 A 
ATOM     23  C   UNL     1      -1.197  11.819  20.915  0.00  0.00    +0.000 A 
ATOM     24  C   UNL     1      -0.239  10.795  20.827  0.00  0.00    +0.000 A 
ATOM     25  C   UNL     1       0.449  10.492  19.631  0.00  0.00    +0.000 A 
ENDBRANCH  15  16
ENDBRANCH   1  15
TORSDOF 2
ENDMDL
MODEL 6
REMARK VINA RESULT:      -7.9      1.230      1.855
REMARK  Name = 
REMARK  2 active torsions:
REMARK  status: ('A' for Active; 'I' for Inactive)
REMARK    1  A    between atoms: C_2  and  C_3
REMARK    2  A    between atoms: C_2  and  C_16
REMARK                            x       y       z     vdW  Elec       q    Type
REMARK                         _______ _______ _______ _____ _____    ______ ____
ROOT
ATOM      1  C   UNL     1       1.639   8.634  19.203  0.00  0.00    +0.000 C 
ATOM      2  N   UNL     1       1.717   8.363  20.446  0.00  0.00    +0.000 NA
ATOM      3  S   UNL     1       0.748   9.060  21.527  0.00  0.00    +0.000 S 
ATOM      4  O   UNL     1      -0.480   8.300  21.582  0.00  0.00    +0.000 OA
ATOM      5  O   UNL     1       1.539   9.282  22.728  0.00  0.00    +0.000 OA
ATOM      6  C   UNL     1       0.283  10.667  20.969  0.00  0.00    +0.000 A 
ATOM      7  C   UNL     1      -0.184  11.588  21.925  0.00  0.00    +0.000 A 
ATOM      8  C   UNL     1      -0.554  12.868  21.530  0.00  0.00    +0.000 A 
ATOM      9  C   UNL     1      -0.430  13.238  20.190  0.00  0.00    +0.000 A 
ATOM     10 CL   UNL     1      -0.867  14.828  19.708  0.00  0.00    +0.000 Cl
ATOM     11  C   UNL     1       0.028  12.317  19.247  0.00  0.00    +0.000 A 
ATOM     12  C   UNL     1       0.360  11.005  19.614  0.00  0.00    +0.000 A 
ATOM     13  S   UNL     1       0.725   9.827  18.351  0.00  0.00    +0.000 S 
ENDROOT
BRANCH   1  15
ATOM     14  O   UNL     1       3.060   8.523  17.318  0.00  0.00    +0.000 OA
ATOM     15  C   UNL     1       2.437   7.895  18.163  0.00  0.00    +0.000 C 
BRANCH  15  16
ATOM     16  C   UNL     1       2.554   6.396  18.215  0.00  0.00    +0.000 A 
ATOM     17  C   UNL     1       1.453   5.669  17.742  0.00  0.00    +0.000 A 
ATOM     18  C   UNL     1       1.514   4.282  17.629  0.00  0.00    +0.000 A 
ATOM     19  C   UNL     1       2.616   3.581  18.113  0.00  0.00    +0.000 A 
ATOM     20  C   UNL     1       2.639   2.184  18.059  0.00  0.00    +0.000 A 
ATOM     21  C   UNL     1       3.517   1.475  18.868  0.00  0.00    +0.000 A 
ATOM     22  C   UNL     1       4.488   2.159  19.595  0.00  0.00    +0.000 A 
ATOM     23  C   UNL     1       4.625   3.544  19.454  0.00  0.00    +0.000 A 
ATOM     24  C   UNL     1       3.665   4.288  18.748  0.00  0.00    +0.000 A 
ATOM     25  C   UNL     1       3.666   5.700  18.712  0.00  0.00    +0.000 A 
ENDBRANCH  15  16
ENDBRANCH   1  15
TORSDOF 2
ENDMDL
MODEL 7
REMARK VINA RESULT:      -7.9      2.763      3.784
REMARK  Name = 
REMARK  2 active torsions:
REMARK  status: ('A' for Active; 'I' for Inactive)
REMARK    1  A    between atoms: C_2  and  C_3
REMARK    2  A    between atoms: C_2  and  C_16
REMARK                            x       y       z     vdW  Elec       q    Type
REMARK                         _______ _______ _______ _____ _____    ______ ____
ROOT
ATOM      1  C   UNL     1      -0.572  10.985  18.782  0.00  0.00    +0.000 C 
ATOM      2  N   UNL     1      -1.197  10.181  18.014  0.00  0.00    +0.000 NA
ATOM      3  S   UNL     1      -2.661  10.527  17.439  0.00  0.00    +0.000 S 
ATOM      4  O   UNL     1      -2.495  11.319  16.241  0.00  0.00    +0.000 OA
ATOM      5  O   UNL     1      -3.412   9.280  17.406  0.00  0.00    +0.000 OA
ATOM      6  C   UNL     1      -3.524  11.563  18.574  0.00  0.00    +0.000 A 
ATOM      7  C   UNL     1      -4.928  11.621  18.479  0.00  0.00    +0.000 A 
ATOM      8  C   UNL     1      -5.649  12.420  19.360  0.00  0.00    +0.000 A 
ATOM      9  C   UNL     1      -4.975  13.134  20.350  0.00  0.00    +0.000 A 
ATOM     10 CL   UNL     1      -5.869  14.104  21.450  0.00  0.00    +0.000 Cl
ATOM     11  C   UNL     1      -3.582  13.077  20.433  0.00  0.00    +0.000 A 
ATOM     12  C   UNL     1      -2.831  12.318  19.525  0.00  0.00    +0.000 A 
ATOM     13  S   UNL     1      -1.071  12.453  19.543  0.00  0.00    +0.000 S 
ENDROOT
BRANCH   1  15
ATOM     14  O   UNL     1       1.473  11.645  19.762  0.00  0.00    +0.000 OA
ATOM     15  C   UNL     1       0.847  10.746  19.218  0.00  0.00    +0.000 C 
BRANCH  15  16
ATOM     16  C   UNL     1       1.468   9.383  19.080  0.00  0.00    +0.000 A 
ATOM     17  C   UNL     1       2.094   9.105  17.857  0.00  0.00    +0.000 A 
ATOM     18  C   UNL     1       2.807   7.922  17.677  0.00  0.00    +0.000 A 
ATOM     19  C   UNL     1       2.795   6.934  18.658  0.00  0.00    +0.000 A 
ATOM     20  C   UNL     1       3.457   5.721  18.441  0.00  0.00    +0.000 A 
ATOM     21  C   UNL     1       3.135   4.611  19.211  0.00  0.00    +0.000 A 
ATOM     22  C   UNL     1       2.289   4.755  20.307  0.00  0.00    +0.000 A 
ATOM     23  C   UNL     1       1.823   6.023  20.673  0.00  0.00    +0.000 A 
ATOM     24  C   UNL     1       2.029   7.128  19.832  0.00  0.00    +0.000 A 
ATOM     25  C   UNL     1       1.445   8.392  20.072  0.00  0.00    +0.000 A 
ENDBRANCH  15  16
ENDBRANCH   1  15
TORSDOF 2
ENDMDL
MODEL 8
REMARK VINA RESULT:      -7.9      4.986      8.716
REMARK  Name = 
REMARK  2 active torsions:
REMARK  status: ('A' for Active; 'I' for Inactive)
REMARK    1  A    between atoms: C_2  and  C_3
REMARK    2  A    between atoms: C_2  and  C_16
REMARK                            x       y       z     vdW  Elec       q    Type
REMARK                         _______ _______ _______ _____ _____    ______ ____
ROOT
ATOM      1  C   UNL     1       4.412   5.555  18.791  0.00  0.00    +0.000 C 
ATOM      2  N   UNL     1       5.612   5.509  19.220  0.00  0.00    +0.000 NA
ATOM      3  S   UNL     1       6.872   5.681  18.231  0.00  0.00    +0.000 S 
ATOM      4  O   UNL     1       7.130   7.095  18.079  0.00  0.00    +0.000 OA
ATOM      5  O   UNL     1       7.913   4.784  18.708  0.00  0.00    +0.000 OA
ATOM      6  C   UNL     1       6.455   5.101  16.620  0.00  0.00    +0.000 A 
ATOM      7  C   UNL     1       7.507   4.761  15.748  0.00  0.00    +0.000 A 
ATOM      8  C   UNL     1       7.223   4.292  14.471  0.00  0.00    +0.000 A 
ATOM      9  C   UNL     1       5.895   4.132  14.075  0.00  0.00    +0.000 A 
ATOM     10 CL   UNL     1       5.547   3.531  12.504  0.00  0.00    +0.000 Cl
ATOM     11  C   UNL     1       4.857   4.477  14.944  0.00  0.00    +0.000 A 
ATOM     12  C   UNL     1       5.120   4.999  16.218  0.00  0.00    +0.000 A 
ATOM     13  S   UNL     1       3.778   5.616  17.185  0.00  0.00    +0.000 S 
ENDROOT
BRANCH   1  15
ATOM     14  O   UNL     1       2.994   4.541  20.385  0.00  0.00    +0.000 OA
ATOM     15  C   UNL     1       3.224   5.536  19.712  0.00  0.00    +0.000 C 
BRANCH  15  16
ATOM     16  C   UNL     1       2.373   6.765  19.885  0.00  0.00    +0.000 A 
ATOM     17  C   UNL     1       1.620   6.840  21.065  0.00  0.00    +0.000 A 
ATOM     18  C   UNL     1       0.902   7.992  21.377  0.00  0.00    +0.000 A 
ATOM     19  C   UNL     1       0.806   9.035  20.459  0.00  0.00    +0.000 A 
ATOM     20  C   UNL     1       0.027  10.159  20.752  0.00  0.00    +0.000 A 
ATOM     21  C   UNL     1      -0.389  10.998  19.727  0.00  0.00    +0.000 A 
ATOM     22  C   UNL     1       0.117  10.819  18.442  0.00  0.00    +0.000 A 
ATOM     23  C   UNL     1       1.093   9.845  18.201  0.00  0.00    +0.000 A 
ATOM     24  C   UNL     1       1.423   8.905  19.192  0.00  0.00    +0.000 A 
ATOM     25  C   UNL     1       2.278   7.807  18.951  0.00  0.00    +0.000 A 
ENDBRANCH  15  16
ENDBRANCH   1  15
TORSDOF 2
ENDMDL
MODEL 9
REMARK VINA RESULT:      -7.9      4.916      8.705
REMARK  Name = 
REMARK  2 active torsions:
REMARK  status: ('A' for Active; 'I' for Inactive)
REMARK    1  A    between atoms: C_2  and  C_3
REMARK    2  A    between atoms: C_2  and  C_16
REMARK                            x       y       z     vdW  Elec       q    Type
REMARK                         _______ _______ _______ _____ _____    ______ ____
ROOT
ATOM      1  C   UNL     1       4.351   5.679  18.799  0.00  0.00    +0.000 C 
ATOM      2  N   UNL     1       5.539   5.592  19.253  0.00  0.00    +0.000 NA
ATOM      3  S   UNL     1       6.823   5.705  18.287  0.00  0.00    +0.000 S 
ATOM      4  O   UNL     1       7.138   7.105  18.124  0.00  0.00    +0.000 OA
ATOM      5  O   UNL     1       7.820   4.774  18.795  0.00  0.00    +0.000 OA
ATOM      6  C   UNL     1       6.416   5.121  16.675  0.00  0.00    +0.000 A 
ATOM      7  C   UNL     1       7.471   4.731  15.828  0.00  0.00    +0.000 A 
ATOM      8  C   UNL     1       7.195   4.258  14.550  0.00  0.00    +0.000 A 
ATOM      9  C   UNL     1       5.869   4.144  14.130  0.00  0.00    +0.000 A 
ATOM     10 CL   UNL     1       5.529   3.538  12.559  0.00  0.00    +0.000 Cl
ATOM     11  C   UNL     1       4.829   4.538  14.974  0.00  0.00    +0.000 A 
ATOM     12  C   UNL     1       5.086   5.065  16.247  0.00  0.00    +0.000 A 
ATOM     13  S   UNL     1       3.750   5.744  17.181  0.00  0.00    +0.000 S 
ENDROOT
BRANCH   1  15
ATOM     14  O   UNL     1       2.863   4.738  20.375  0.00  0.00    +0.000 OA
ATOM     15  C   UNL     1       3.144   5.716  19.697  0.00  0.00    +0.000 C 
BRANCH  15  16
ATOM     16  C   UNL     1       2.339   6.978  19.840  0.00  0.00    +0.000 A 
ATOM     17  C   UNL     1       2.375   7.866  18.756  0.00  0.00    +0.000 A 
ATOM     18  C   UNL     1       1.564   8.998  18.738  0.00  0.00    +0.000 A 
ATOM     19  C   UNL     1       0.807   9.343  19.856  0.00  0.00    +0.000 A 
ATOM     20  C   UNL     1       0.049  10.518  19.855  0.00  0.00    +0.000 A 
ATOM     21  C   UNL     1      -0.380  11.064  21.058  0.00  0.00    +0.000 A 
ATOM     22  C   UNL     1      -0.208  10.348  22.240  0.00  0.00    +0.000 A 
ATOM     23  C   UNL     1       0.329   9.056  22.206  0.00  0.00    +0.000 A 
ATOM     24  C   UNL     1       0.888   8.546  21.023  0.00  0.00    +0.000 A 
ATOM     25  C   UNL     1       1.585   7.319  20.973  0.00  0.00    +0.000 A 
ENDBRANCH  15  16
ENDBRANCH   1  15
TORSDOF 2
ENDMDL
