MODEL 1
REMARK VINA RESULT:      -6.9      0.000      0.000
REMARK  Name = 
REMARK  10 active torsions:
REMARK  status: ('A' for Active; 'I' for Inactive)
REMARK    1  A    between atoms: C_1  and  C_2
REMARK    2  A    between atoms: C_2  and  C_3
REMARK    3  A    between atoms: C_2  and  N_4
REMARK    4  A    between atoms: C_8  and  C_9
REMARK    5  A    between atoms: C_9  and  C_10
REMARK    6  A    between atoms: C_9  and  N_11
REMARK    7  A    between atoms: C_12  and  C_14
REMARK    8  A    between atoms: C_14  and  N_15
REMARK    9  A    between atoms: N_15  and  C_16
REMARK   10  A    between atoms: N_15  and  C_17
REMARK                            x       y       z     vdW  Elec       q    Type
REMARK                         _______ _______ _______ _____ _____    ______ ____
ROOT
ATOM      1  N   UNL     1       4.596   5.821  19.246  0.00  0.00    +0.000 N 
ATOM      2  C   UNL     1       5.737   5.051  19.231  0.00  0.00    +0.000 C 
ATOM      3  O   UNL     1       5.751   3.870  19.570  0.00  0.00    +0.000 OA
ATOM      4  H   UNL     1       4.721   6.827  19.183  0.00  0.00    +0.000 HD
ENDROOT
BRANCH   1   5
ATOM      5  C   UNL     1       3.323   5.312  19.748  0.00  0.00    +0.000 C 
ATOM      6  C   UNL     1       2.270   6.422  19.840  0.00  0.00    +0.000 C 
BRANCH   5  11
ATOM      7  N   UNL     1       2.304   3.019  19.144  0.00  0.00    +0.000 N 
ATOM      8  C   UNL     1       1.885   2.473  17.962  0.00  0.00    +0.000 A 
ATOM      9  N   UNL     1       2.211   3.258  16.966  0.00  0.00    +0.000 NA
ATOM     10  N   UNL     1       2.822   4.362  17.494  0.00  0.00    +0.000 NA
ATOM     11  C   UNL     1       2.846   4.243  18.811  0.00  0.00    +0.000 A 
BRANCH   7  13
ATOM     12  C   UNL     1       3.541   2.214  21.122  0.00  0.00    +0.000 C 
ATOM     13  C   UNL     1       2.178   2.390  20.452  0.00  0.00    +0.000 C 
ATOM     14  C   UNL     1       1.226   3.151  21.385  0.00  0.00    +0.000 C 
ENDBRANCH   7  13
ENDBRANCH   5  11
ENDBRANCH   1   5
BRANCH   2  15
ATOM     15  C   UNL     1       6.980   5.743  18.644  0.00  0.00    +0.000 C 
BRANCH  15  16
ATOM     16  N   UNL     1       6.663   6.708  17.556  0.00  0.00    +0.000 NA
ATOM     17  C   UNL     1       7.656   7.798  17.559  0.00  0.00    +0.000 C 
BRANCH  16  18
ATOM     18  C   UNL     1       6.675   6.027  16.236  0.00  0.00    +0.000 C 
ATOM     19  C   UNL     1       7.111   4.556  16.273  0.00  0.00    +0.000 C 
ATOM     20  C   UNL     1       6.655   3.999  14.929  0.00  0.00    +0.000 C 
ATOM     21  C   UNL     1       5.402   4.785  14.561  0.00  0.00    +0.000 C 
ATOM     22  C   UNL     1       5.286   5.909  15.587  0.00  0.00    +0.000 C 
ENDBRANCH  16  18
ENDBRANCH  15  16
ENDBRANCH   2  15
TORSDOF 6
ENDMDL
MODEL 2
REMARK VINA RESULT:      -6.7      1.618      2.290
REMARK  Name = 
REMARK  10 active torsions:
REMARK  status: ('A' for Active; 'I' for Inactive)
REMARK    1  A    between atoms: C_1  and  C_2
REMARK    2  A    between atoms: C_2  and  C_3
REMARK    3  A    between atoms: C_2  and  N_4
REMARK    4  A    between atoms: C_8  and  C_9
REMARK    5  A    between atoms: C_9  and  C_10
REMARK    6  A    between atoms: C_9  and  N_11
REMARK    7  A    between atoms: C_12  and  C_14
REMARK    8  A    between atoms: C_14  and  N_15
REMARK    9  A    between atoms: N_15  and  C_16
REMARK   10  A    between atoms: N_15  and  C_17
REMARK                            x       y       z     vdW  Elec       q    Type
REMARK                         _______ _______ _______ _____ _____    ______ ____
ROOT
ATOM      1  N   UNL     1       4.264   5.214  17.714  0.00  0.00    +0.000 N 
ATOM      2  C   UNL     1       5.497   4.633  17.905  0.00  0.00    +0.000 C 
ATOM      3  O   UNL     1       5.854   4.160  18.982  0.00  0.00    +0.000 OA
ATOM      4  H   UNL     1       4.149   5.783  16.880  0.00  0.00    +0.000 HD
ENDROOT
BRANCH   1   5
ATOM      5  C   UNL     1       3.311   5.389  18.806  0.00  0.00    +0.000 C 
ATOM      6  C   UNL     1       2.615   6.753  18.734  0.00  0.00    +0.000 C 
BRANCH   5  11
ATOM      7  N   UNL     1       1.960   3.368  19.675  0.00  0.00    +0.000 N 
ATOM      8  C   UNL     1       0.876   2.696  19.181  0.00  0.00    +0.000 A 
ATOM      9  N   UNL     1       0.600   3.119  17.974  0.00  0.00    +0.000 NA
ATOM     10  N   UNL     1       1.488   4.113  17.672  0.00  0.00    +0.000 NA
ATOM     11  C   UNL     1       2.287   4.298  18.710  0.00  0.00    +0.000 A 
BRANCH   7  13
ATOM     12  C   UNL     1       1.608   2.506  21.960  0.00  0.00    +0.000 C 
ATOM     13  C   UNL     1       2.594   3.111  20.962  0.00  0.00    +0.000 C 
ATOM     14  C   UNL     1       3.837   2.217  20.841  0.00  0.00    +0.000 C 
ENDBRANCH   7  13
ENDBRANCH   5  11
ENDBRANCH   1   5
BRANCH   2  15
ATOM     15  C   UNL     1       6.361   4.509  16.637  0.00  0.00    +0.000 C 
BRANCH  15  16
ATOM     16  N   UNL     1       5.603   4.749  15.378  0.00  0.00    +0.000 NA
ATOM     17  C   UNL     1       5.565   6.194  15.093  0.00  0.00    +0.000 C 
BRANCH  16  18
ATOM     18  C   UNL     1       6.239   4.034  14.243  0.00  0.00    +0.000 C 
ATOM     19  C   UNL     1       5.269   3.567  13.149  0.00  0.00    +0.000 C 
ATOM     20  C   UNL     1       6.172   3.254  11.961  0.00  0.00    +0.000 C 
ATOM     21  C   UNL     1       7.351   4.213  12.075  0.00  0.00    +0.000 C 
ATOM     22  C   UNL     1       7.209   4.905  13.428  0.00  0.00    +0.000 C 
ENDBRANCH  16  18
ENDBRANCH  15  16
ENDBRANCH   2  15
TORSDOF 6
ENDMDL
MODEL 3
REMARK VINA RESULT:      -6.6      1.978      2.815
REMARK  Name = 
REMARK  10 active torsions:
REMARK  status: ('A' for Active; 'I' for Inactive)
REMARK    1  A    between atoms: C_1  and  C_2
REMARK    2  A    between atoms: C_2  and  C_3
REMARK    3  A    between atoms: C_2  and  N_4
REMARK    4  A    between atoms: C_8  and  C_9
REMARK    5  A    between atoms: C_9  and  C_10
REMARK    6  A    between atoms: C_9  and  N_11
REMARK    7  A    between atoms: C_12  and  C_14
REMARK    8  A    between atoms: C_14  and  N_15
REMARK    9  A    between atoms: N_15  and  C_16
REMARK   10  A    between atoms: N_15  and  C_17
REMARK                            x       y       z     vdW  Elec       q    Type
REMARK                         _______ _______ _______ _____ _____    ______ ____
ROOT
ATOM      1  N   UNL     1       4.531   5.375  17.413  0.00  0.00    +0.000 N 
ATOM      2  C   UNL     1       5.353   6.321  16.844  0.00  0.00    +0.000 C 
ATOM      3  O   UNL     1       5.807   7.276  17.471  0.00  0.00    +0.000 OA
ATOM      4  H   UNL     1       4.019   4.770  16.776  0.00  0.00    +0.000 HD
ENDROOT
BRANCH   1   5
ATOM      5  C   UNL     1       4.064   5.479  18.792  0.00  0.00    +0.000 C 
ATOM      6  C   UNL     1       2.621   5.988  18.861  0.00  0.00    +0.000 C 
BRANCH   5  11
ATOM      7  N   UNL     1       3.113   3.235  19.640  0.00  0.00    +0.000 N 
ATOM      8  C   UNL     1       3.705   2.083  20.081  0.00  0.00    +0.000 A 
ATOM      9  N   UNL     1       4.997   2.262  20.197  0.00  0.00    +0.000 NA
ATOM     10  N   UNL     1       5.275   3.538  19.792  0.00  0.00    +0.000 NA
ATOM     11  C   UNL     1       4.148   4.119  19.416  0.00  0.00    +0.000 A 
BRANCH   7  13
ATOM     12  C   UNL     1       1.065   2.312  18.618  0.00  0.00    +0.000 C 
ATOM     13  C   UNL     1       1.679   3.428  19.464  0.00  0.00    +0.000 C 
ATOM     14  C   UNL     1       0.930   3.550  20.798  0.00  0.00    +0.000 C 
ENDBRANCH   7  13
ENDBRANCH   5  11
ENDBRANCH   1   5
BRANCH   2  15
ATOM     15  C   UNL     1       5.765   6.035  15.389  0.00  0.00    +0.000 C 
BRANCH  15  16
ATOM     16  N   UNL     1       7.103   5.395  15.266  0.00  0.00    +0.000 NA
ATOM     17  C   UNL     1       7.421   4.676  16.514  0.00  0.00    +0.000 C 
BRANCH  16  18
ATOM     18  C   UNL     1       7.124   4.445  14.126  0.00  0.00    +0.000 C 
ATOM     19  C   UNL     1       5.748   3.908  13.708  0.00  0.00    +0.000 C 
ATOM     20  C   UNL     1       5.984   3.316  12.323  0.00  0.00    +0.000 C 
ATOM     21  C   UNL     1       7.092   4.156  11.700  0.00  0.00    +0.000 C 
ATOM     22  C   UNL     1       7.611   5.070  12.807  0.00  0.00    +0.000 C 
ENDBRANCH  16  18
ENDBRANCH  15  16
ENDBRANCH   2  15
TORSDOF 6
ENDMDL
MODEL 4
REMARK VINA RESULT:      -6.5      1.984      2.853
REMARK  Name = 
REMARK  10 active torsions:
REMARK  status: ('A' for Active; 'I' for Inactive)
REMARK    1  A    between atoms: C_1  and  C_2
REMARK    2  A    between atoms: C_2  and  C_3
REMARK    3  A    between atoms: C_2  and  N_4
REMARK    4  A    between atoms: C_8  and  C_9
REMARK    5  A    between atoms: C_9  and  C_10
REMARK    6  A    between atoms: C_9  and  N_11
REMARK    7  A    between atoms: C_12  and  C_14
REMARK    8  A    between atoms: C_14  and  N_15
REMARK    9  A    between atoms: N_15  and  C_16
REMARK   10  A    between atoms: N_15  and  C_17
REMARK                            x       y       z     vdW  Elec       q    Type
REMARK                         _______ _______ _______ _____ _____    ______ ____
ROOT
ATOM      1  N   UNL     1       3.769   5.890  17.444  0.00  0.00    +0.000 N 
ATOM      2  C   UNL     1       4.924   6.386  16.883  0.00  0.00    +0.000 C 
ATOM      3  O   UNL     1       5.657   7.186  17.460  0.00  0.00    +0.000 OA
ATOM      4  H   UNL     1       3.114   5.432  16.815  0.00  0.00    +0.000 HD
ENDROOT
BRANCH   1   5
ATOM      5  C   UNL     1       3.280   6.341  18.743  0.00  0.00    +0.000 C 
ATOM      6  C   UNL     1       2.448   7.621  18.618  0.00  0.00    +0.000 C 
BRANCH   5  11
ATOM      7  N   UNL     1       2.689   3.892  19.307  0.00  0.00    +0.000 N 
ATOM      8  C   UNL     1       1.724   3.330  20.097  0.00  0.00    +0.000 A 
ATOM      9  N   UNL     1       0.892   4.252  20.511  0.00  0.00    +0.000 NA
ATOM     10  N   UNL     1       1.329   5.452  20.023  0.00  0.00    +0.000 NA
ATOM     11  C   UNL     1       2.436   5.248  19.328  0.00  0.00    +0.000 A 
BRANCH   7  13
ATOM     12  C   UNL     1       5.038   3.146  19.420  0.00  0.00    +0.000 C 
ATOM     13  C   UNL     1       3.740   3.159  18.613  0.00  0.00    +0.000 C 
ATOM     14  C   UNL     1       3.325   1.724  18.260  0.00  0.00    +0.000 C 
ENDBRANCH   7  13
ENDBRANCH   5  11
ENDBRANCH   1   5
BRANCH   2  15
ATOM     15  C   UNL     1       5.300   5.778  15.520  0.00  0.00    +0.000 C 
BRANCH  15  16
ATOM     16  N   UNL     1       6.716   5.325  15.444  0.00  0.00    +0.000 NA
ATOM     17  C   UNL     1       7.073   4.614  16.685  0.00  0.00    +0.000 C 
BRANCH  16  18
ATOM     18  C   UNL     1       6.913   4.425  14.280  0.00  0.00    +0.000 C 
ATOM     19  C   UNL     1       5.618   3.900  13.644  0.00  0.00    +0.000 C 
ATOM     20  C   UNL     1       6.061   3.369  12.285  0.00  0.00    +0.000 C 
ATOM     21  C   UNL     1       7.238   4.241  11.865  0.00  0.00    +0.000 C 
ATOM     22  C   UNL     1       7.580   5.108  13.074  0.00  0.00    +0.000 C 
ENDBRANCH  16  18
ENDBRANCH  15  16
ENDBRANCH   2  15
TORSDOF 6
ENDMDL
MODEL 5
REMARK VINA RESULT:      -6.4      5.006      7.643
REMARK  Name = 
REMARK  10 active torsions:
REMARK  status: ('A' for Active; 'I' for Inactive)
REMARK    1  A    between atoms: C_1  and  C_2
REMARK    2  A    between atoms: C_2  and  C_3
REMARK    3  A    between atoms: C_2  and  N_4
REMARK    4  A    between atoms: C_8  and  C_9
REMARK    5  A    between atoms: C_9  and  C_10
REMARK    6  A    between atoms: C_9  and  N_11
REMARK    7  A    between atoms: C_12  and  C_14
REMARK    8  A    between atoms: C_14  and  N_15
REMARK    9  A    between atoms: N_15  and  C_16
REMARK   10  A    between atoms: N_15  and  C_17
REMARK                            x       y       z     vdW  Elec       q    Type
REMARK                         _______ _______ _______ _____ _____    ______ ____
ROOT
ATOM      1  N   UNL     1       1.390   8.868  19.381  0.00  0.00    +0.000 N 
ATOM      2  C   UNL     1       2.204   7.989  18.703  0.00  0.00    +0.000 C 
ATOM      3  O   UNL     1       2.661   8.225  17.587  0.00  0.00    +0.000 OA
ATOM      4  H   UNL     1       0.873   8.497  20.173  0.00  0.00    +0.000 HD
ENDROOT
BRANCH   1   5
ATOM      5  C   UNL     1       0.938  10.123  18.787  0.00  0.00    +0.000 C 
ATOM      6  C   UNL     1      -0.385   9.946  18.034  0.00  0.00    +0.000 C 
BRANCH   5  11
ATOM      7  N   UNL     1       0.636  12.491  19.769  0.00  0.00    +0.000 N 
ATOM      8  C   UNL     1       0.337  12.943  21.026  0.00  0.00    +0.000 A 
ATOM      9  N   UNL     1       0.350  11.946  21.874  0.00  0.00    +0.000 NA
ATOM     10  N   UNL     1       0.624  10.807  21.168  0.00  0.00    +0.000 NA
ATOM     11  C   UNL     1       0.758  11.122  19.891  0.00  0.00    +0.000 A 
BRANCH   7  13
ATOM     12  C   UNL     1       0.044  14.658  18.749  0.00  0.00    +0.000 C 
ATOM     13  C   UNL     1       0.782  13.330  18.587  0.00  0.00    +0.000 C 
ATOM     14  C   UNL     1       2.251  13.585  18.221  0.00  0.00    +0.000 C 
ENDBRANCH   7  13
ENDBRANCH   5  11
ENDBRANCH   1   5
BRANCH   2  15
ATOM     15  C   UNL     1       2.600   6.729  19.493  0.00  0.00    +0.000 C 
BRANCH  15  16
ATOM     16  N   UNL     1       3.150   5.642  18.636  0.00  0.00    +0.000 NA
ATOM     17  C   UNL     1       4.620   5.622  18.748  0.00  0.00    +0.000 C 
BRANCH  16  18
ATOM     18  C   UNL     1       2.601   4.326  19.049  0.00  0.00    +0.000 C 
ATOM     19  C   UNL     1       1.733   4.356  20.315  0.00  0.00    +0.000 C 
ATOM     20  C   UNL     1       0.987   3.027  20.285  0.00  0.00    +0.000 C 
ATOM     21  C   UNL     1       0.801   2.691  18.811  0.00  0.00    +0.000 C 
ATOM     22  C   UNL     1       1.622   3.716  18.032  0.00  0.00    +0.000 C 
ENDBRANCH  16  18
ENDBRANCH  15  16
ENDBRANCH   2  15
TORSDOF 6
ENDMDL
MODEL 6
REMARK VINA RESULT:      -6.4      1.974      2.824
REMARK  Name = 
REMARK  10 active torsions:
REMARK  status: ('A' for Active; 'I' for Inactive)
REMARK    1  A    between atoms: C_1  and  C_2
REMARK    2  A    between atoms: C_2  and  C_3
REMARK    3  A    between atoms: C_2  and  N_4
REMARK    4  A    between atoms: C_8  and  C_9
REMARK    5  A    between atoms: C_9  and  C_10
REMARK    6  A    between atoms: C_9  and  N_11
REMARK    7  A    between atoms: C_12  and  C_14
REMARK    8  A    between atoms: C_14  and  N_15
REMARK    9  A    between atoms: N_15  and  C_16
REMARK   10  A    between atoms: N_15  and  C_17
REMARK                            x       y       z     vdW  Elec       q    Type
REMARK                         _______ _______ _______ _____ _____    ______ ____
ROOT
ATOM      1  N   UNL     1       5.162   5.169  16.878  0.00  0.00    +0.000 N 
ATOM      2  C   UNL     1       6.389   4.597  17.127  0.00  0.00    +0.000 C 
ATOM      3  O   UNL     1       6.768   4.291  18.255  0.00  0.00    +0.000 OA
ATOM      4  H   UNL     1       5.034   5.601  15.967  0.00  0.00    +0.000 HD
ENDROOT
BRANCH   1   5
ATOM      5  C   UNL     1       4.244   5.535  17.952  0.00  0.00    +0.000 C 
ATOM      6  C   UNL     1       3.561   6.878  17.676  0.00  0.00    +0.000 C 
BRANCH   5  11
ATOM      7  N   UNL     1       2.441   4.144  19.169  0.00  0.00    +0.000 N 
ATOM      8  C   UNL     1       1.543   3.208  18.736  0.00  0.00    +0.000 A 
ATOM      9  N   UNL     1       1.781   2.905  17.485  0.00  0.00    +0.000 NA
ATOM     10  N   UNL     1       2.829   3.678  17.066  0.00  0.00    +0.000 NA
ATOM     11  C   UNL     1       3.206   4.458  18.065  0.00  0.00    +0.000 A 
BRANCH   7  13
ATOM     12  C   UNL     1       1.655   5.911  20.703  0.00  0.00    +0.000 C 
ATOM     13  C   UNL     1       2.524   4.665  20.527  0.00  0.00    +0.000 C 
ATOM     14  C   UNL     1       2.158   3.615  21.586  0.00  0.00    +0.000 C 
ENDBRANCH   7  13
ENDBRANCH   5  11
ENDBRANCH   1   5
BRANCH   2  15
ATOM     15  C   UNL     1       7.214   4.255  15.873  0.00  0.00    +0.000 C 
BRANCH  15  16
ATOM     16  N   UNL     1       6.648   4.824  14.619  0.00  0.00    +0.000 NA
ATOM     17  C   UNL     1       7.662   5.667  13.959  0.00  0.00    +0.000 C 
BRANCH  16  18
ATOM     18  C   UNL     1       6.228   3.738  13.698  0.00  0.00    +0.000 C 
ATOM     19  C   UNL     1       4.861   3.950  13.032  0.00  0.00    +0.000 C 
ATOM     20  C   UNL     1       4.854   2.957  11.875  0.00  0.00    +0.000 C 
ATOM     21  C   UNL     1       6.305   2.831  11.430  0.00  0.00    +0.000 C 
ATOM     22  C   UNL     1       7.137   3.584  12.466  0.00  0.00    +0.000 C 
ENDBRANCH  16  18
ENDBRANCH  15  16
ENDBRANCH   2  15
TORSDOF 6
ENDMDL
MODEL 7
REMARK VINA RESULT:      -6.4      3.829      6.282
REMARK  Name = 
REMARK  10 active torsions:
REMARK  status: ('A' for Active; 'I' for Inactive)
REMARK    1  A    between atoms: C_1  and  C_2
REMARK    2  A    between atoms: C_2  and  C_3
REMARK    3  A    between atoms: C_2  and  N_4
REMARK    4  A    between atoms: C_8  and  C_9
REMARK    5  A    between atoms: C_9  and  C_10
REMARK    6  A    between atoms: C_9  and  N_11
REMARK    7  A    between atoms: C_12  and  C_14
REMARK    8  A    between atoms: C_14  and  N_15
REMARK    9  A    between atoms: N_15  and  C_16
REMARK   10  A    between atoms: N_15  and  C_17
REMARK                            x       y       z     vdW  Elec       q    Type
REMARK                         _______ _______ _______ _____ _____    ______ ____
ROOT
ATOM      1  N   UNL     1       2.683   7.148  19.157  0.00  0.00    +0.000 N 
ATOM      2  C   UNL     1       1.940   8.266  18.855  0.00  0.00    +0.000 C 
ATOM      3  O   UNL     1       1.577   8.539  17.712  0.00  0.00    +0.000 OA
ATOM      4  H   UNL     1       3.134   7.130  20.068  0.00  0.00    +0.000 HD
ENDROOT
BRANCH   1   5
ATOM      5  C   UNL     1       3.171   6.238  18.125  0.00  0.00    +0.000 C 
ATOM      6  C   UNL     1       4.243   6.898  17.252  0.00  0.00    +0.000 C 
BRANCH   5  11
ATOM      7  N   UNL     1       3.062   3.966  19.345  0.00  0.00    +0.000 N 
ATOM      8  C   UNL     1       4.020   3.057  19.702  0.00  0.00    +0.000 A 
ATOM      9  N   UNL     1       5.211   3.551  19.473  0.00  0.00    +0.000 NA
ATOM     10  N   UNL     1       5.044   4.791  18.921  0.00  0.00    +0.000 NA
ATOM     11  C   UNL     1       3.749   5.032  18.804  0.00  0.00    +0.000 A 
BRANCH   7  13
ATOM     12  C   UNL     1       1.066   2.746  18.557  0.00  0.00    +0.000 C 
ATOM     13  C   UNL     1       1.627   3.788  19.526  0.00  0.00    +0.000 C 
ATOM     14  C   UNL     1       1.253   3.421  20.969  0.00  0.00    +0.000 C 
ENDBRANCH   7  13
ENDBRANCH   5  11
ENDBRANCH   1   5
BRANCH   2  15
ATOM     15  C   UNL     1       1.490   9.097  20.070  0.00  0.00    +0.000 C 
BRANCH  15  16
ATOM     16  N   UNL     1       0.017   9.081  20.286  0.00  0.00    +0.000 NA
ATOM     17  C   UNL     1      -0.270   8.791  21.702  0.00  0.00    +0.000 C 
BRANCH  16  18
ATOM     18  C   UNL     1      -0.578  10.390  19.915  0.00  0.00    +0.000 C 
ATOM     19  C   UNL     1       0.440  11.501  19.620  0.00  0.00    +0.000 C 
ATOM     20  C   UNL     1      -0.373  12.566  18.893  0.00  0.00    +0.000 C 
ATOM     21  C   UNL     1      -1.454  11.810  18.130  0.00  0.00    +0.000 C 
ATOM     22  C   UNL     1      -1.373  10.359  18.599  0.00  0.00    +0.000 C 
ENDBRANCH  16  18
ENDBRANCH  15  16
ENDBRANCH   2  15
TORSDOF 6
ENDMDL
MODEL 8
REMARK VINA RESULT:      -6.4      3.645      6.549
REMARK  Name = 
REMARK  10 active torsions:
REMARK  status: ('A' for Active; 'I' for Inactive)
REMARK    1  A    between atoms: C_1  and  C_2
REMARK    2  A    between atoms: C_2  and  C_3
REMARK    3  A    between atoms: C_2  and  N_4
REMARK    4  A    between atoms: C_8  and  C_9
REMARK    5  A    between atoms: C_9  and  C_10
REMARK    6  A    between atoms: C_9  and  N_11
REMARK    7  A    between atoms: C_12  and  C_14
REMARK    8  A    between atoms: C_14  and  N_15
REMARK    9  A    between atoms: N_15  and  C_16
REMARK   10  A    between atoms: N_15  and  C_17
REMARK                            x       y       z     vdW  Elec       q    Type
REMARK                         _______ _______ _______ _____ _____    ______ ____
ROOT
ATOM      1  N   UNL     1       2.544   6.562  17.991  0.00  0.00    +0.000 N 
ATOM      2  C   UNL     1       2.171   7.637  18.765  0.00  0.00    +0.000 C 
ATOM      3  O   UNL     1       2.163   7.604  19.994  0.00  0.00    +0.000 OA
ATOM      4  H   UNL     1       2.295   6.598  17.006  0.00  0.00    +0.000 HD
ENDROOT
BRANCH   1   5
ATOM      5  C   UNL     1       2.882   5.266  18.571  0.00  0.00    +0.000 C 
ATOM      6  C   UNL     1       2.354   4.110  17.715  0.00  0.00    +0.000 C 
BRANCH   5  11
ATOM      7  N   UNL     1       5.283   5.126  17.635  0.00  0.00    +0.000 N 
ATOM      8  C   UNL     1       6.515   5.206  18.224  0.00  0.00    +0.000 A 
ATOM      9  N   UNL     1       6.387   5.225  19.527  0.00  0.00    +0.000 NA
ATOM     10  N   UNL     1       5.049   5.194  19.810  0.00  0.00    +0.000 NA
ATOM     11  C   UNL     1       4.375   5.175  18.672  0.00  0.00    +0.000 A 
BRANCH   7  13
ATOM     12  C   UNL     1       5.257   6.350  15.492  0.00  0.00    +0.000 C 
ATOM     13  C   UNL     1       5.043   5.013  16.202  0.00  0.00    +0.000 C 
ATOM     14  C   UNL     1       5.900   3.923  15.542  0.00  0.00    +0.000 C 
ENDBRANCH   7  13
ENDBRANCH   5  11
ENDBRANCH   1   5
BRANCH   2  15
ATOM     15  C   UNL     1       1.875   8.930  17.985  0.00  0.00    +0.000 C 
BRANCH  15  16
ATOM     16  N   UNL     1       1.492  10.074  18.859  0.00  0.00    +0.000 NA
ATOM     17  C   UNL     1       2.027  11.326  18.293  0.00  0.00    +0.000 C 
BRANCH  16  18
ATOM     18  C   UNL     1       0.015  10.170  18.973  0.00  0.00    +0.000 C 
ATOM     19  C   UNL     1      -0.522  11.585  19.230  0.00  0.00    +0.000 C 
ATOM     20  C   UNL     1      -2.007  11.484  18.902  0.00  0.00    +0.000 C 
ATOM     21  C   UNL     1      -2.117  10.429  17.808  0.00  0.00    +0.000 C 
ATOM     22  C   UNL     1      -0.732   9.800  17.680  0.00  0.00    +0.000 C 
ENDBRANCH  16  18
ENDBRANCH  15  16
ENDBRANCH   2  15
TORSDOF 6
ENDMDL
MODEL 9
REMARK VINA RESULT:      -6.4      1.482      2.559
REMARK  Name = 
REMARK  10 active torsions:
REMARK  status: ('A' for Active; 'I' for Inactive)
REMARK    1  A    between atoms: C_1  and  C_2
REMARK    2  A    between atoms: C_2  and  C_3
REMARK    3  A    between atoms: C_2  and  N_4
REMARK    4  A    between atoms: C_8  and  C_9
REMARK    5  A    between atoms: C_9  and  C_10
REMARK    6  A    between atoms: C_9  and  N_11
REMARK    7  A    between atoms: C_12  and  C_14
REMARK    8  A    between atoms: C_14  and  N_15
REMARK    9  A    between atoms: N_15  and  C_16
REMARK   10  A    between atoms: N_15  and  C_17
REMARK                            x       y       z     vdW  Elec       q    Type
REMARK                         _______ _______ _______ _____ _____    ______ ____
ROOT
ATOM      1  N   UNL     1       4.352   5.379  18.680  0.00  0.00    +0.000 N 
ATOM      2  C   UNL     1       5.707   5.162  18.785  0.00  0.00    +0.000 C 
ATOM      3  O   UNL     1       6.314   5.226  19.852  0.00  0.00    +0.000 OA
ATOM      4  H   UNL     1       3.985   5.541  17.747  0.00  0.00    +0.000 HD
ENDROOT
BRANCH   1   5
ATOM      5  C   UNL     1       3.540   5.785  19.823  0.00  0.00    +0.000 C 
ATOM      6  C   UNL     1       2.526   6.867  19.438  0.00  0.00    +0.000 C 
BRANCH   5  11
ATOM      7  N   UNL     1       2.394   3.482  19.604  0.00  0.00    +0.000 N 
ATOM      8  C   UNL     1       1.929   2.586  20.527  0.00  0.00    +0.000 A 
ATOM      9  N   UNL     1       1.982   3.111  21.725  0.00  0.00    +0.000 NA
ATOM     10  N   UNL     1       2.525   4.360  21.605  0.00  0.00    +0.000 NA
ATOM     11  C   UNL     1       2.814   4.575  20.333  0.00  0.00    +0.000 A 
BRANCH   7  13
ATOM     12  C   UNL     1       2.410   1.780  17.818  0.00  0.00    +0.000 C 
ATOM     13  C   UNL     1       2.417   3.269  18.163  0.00  0.00    +0.000 C 
ATOM     14  C   UNL     1       1.263   3.981  17.442  0.00  0.00    +0.000 C 
ENDBRANCH   7  13
ENDBRANCH   5  11
ENDBRANCH   1   5
BRANCH   2  15
ATOM     15  C   UNL     1       6.398   4.716  17.484  0.00  0.00    +0.000 C 
BRANCH  15  16
ATOM     16  N   UNL     1       5.559   4.917  16.270  0.00  0.00    +0.000 NA
ATOM     17  C   UNL     1       5.446   6.358  15.983  0.00  0.00    +0.000 C 
BRANCH  16  18
ATOM     18  C   UNL     1       6.159   4.223  15.103  0.00  0.00    +0.000 C 
ATOM     19  C   UNL     1       5.175   3.900  13.969  0.00  0.00    +0.000 C 
ATOM     20  C   UNL     1       6.072   3.586  12.777  0.00  0.00    +0.000 C 
ATOM     21  C   UNL     1       7.320   4.440  12.964  0.00  0.00    +0.000 C 
ATOM     22  C   UNL     1       7.209   5.061  14.354  0.00  0.00    +0.000 C 
ENDBRANCH  16  18
ENDBRANCH  15  16
ENDBRANCH   2  15
TORSDOF 6
ENDMDL
