MODEL 1
REMARK VINA RESULT:      -8.0      0.000      0.000
REMARK  Name = 
REMARK  7 active torsions:
REMARK  status: ('A' for Active; 'I' for Inactive)
REMARK    1  A    between atoms: C_1  and  C_2
REMARK    2  A    between atoms: C_2  and  C_3
REMARK    3  A    between atoms: C_2  and  C_4
REMARK    4  A    between atoms: C_2  and  N_5
REMARK    5  A    between atoms: C_6  and  C_8
REMARK    6  A    between atoms: C_13  and  C_14
REMARK    7  A    between atoms: C_14  and  C_15
REMARK                            x       y       z     vdW  Elec       q    Type
REMARK                         _______ _______ _______ _____ _____    ______ ____
ROOT
ATOM      1  C   UNL     1       6.735   4.088  16.024  0.00  0.00    +0.000 C 
ATOM      2  C   UNL     1       7.339   5.317  16.702  0.00  0.00    +0.000 C 
ATOM      3  O   UNL     1       6.430   6.432  16.716  0.00  0.00    +0.000 OA
ATOM      4  C   UNL     1       5.099   6.176  16.737  0.00  0.00    +0.000 C 
ATOM      5  O   UNL     1       4.288   7.022  16.373  0.00  0.00    +0.000 OA
ATOM      6  C   UNL     1       4.665   4.787  17.222  0.00  0.00    +0.000 C 
ATOM      7  N   UNL     1       5.461   3.678  16.647  0.00  0.00    +0.000 NA
ATOM      8  H   UNL     1       4.922   3.089  16.013  0.00  0.00    +0.000 HD
ENDROOT
BRANCH   1  10
ATOM      9  N   UNL     1       6.222   3.250  13.730  0.00  0.00    +0.000 N 
ATOM     10  C   UNL     1       6.644   4.321  14.497  0.00  0.00    +0.000 C 
ATOM     11  O   UNL     1       6.957   5.410  14.021  0.00  0.00    +0.000 OA
ATOM     12  H   UNL     1       5.710   2.520  14.205  0.00  0.00    +0.000 HD
BRANCH   9  14
ATOM     13  C   UNL     1       7.136   4.205  11.627  0.00  0.00    +0.000 C 
ATOM     14  C   UNL     1       6.070   3.296  12.262  0.00  0.00    +0.000 C 
ATOM     15  C   UNL     1       4.662   3.769  11.865  0.00  0.00    +0.000 C 
ATOM     16  C   UNL     1       6.273   1.872  11.707  0.00  0.00    +0.000 C 
ENDBRANCH   9  14
ENDBRANCH   1  10
BRANCH   6  17
ATOM     17  C   UNL     1       4.663   4.703  18.763  0.00  0.00    +0.000 C 
BRANCH  17  18
ATOM     18  C   UNL     1       3.354   4.204  19.331  0.00  0.00    +0.000 A 
ATOM     19  C   UNL     1       2.483   5.077  19.998  0.00  0.00    +0.000 A 
ATOM     20  C   UNL     1       1.310   4.594  20.583  0.00  0.00    +0.000 A 
ATOM     21  C   UNL     1       0.997   3.237  20.506  0.00  0.00    +0.000 A 
ATOM     22  C   UNL     1       1.846   2.366  19.831  0.00  0.00    +0.000 A 
ATOM     23  C   UNL     1       3.017   2.847  19.241  0.00  0.00    +0.000 A 
ENDBRANCH  17  18
ENDBRANCH   6  17
TORSDOF 4
ENDMDL
MODEL 2
REMARK VINA RESULT:      -8.0      0.449      1.033
REMARK  Name = 
REMARK  7 active torsions:
REMARK  status: ('A' for Active; 'I' for Inactive)
REMARK    1  A    between atoms: C_1  and  C_2
REMARK    2  A    between atoms: C_2  and  C_3
REMARK    3  A    between atoms: C_2  and  C_4
REMARK    4  A    between atoms: C_2  and  N_5
REMARK    5  A    between atoms: C_6  and  C_8
REMARK    6  A    between atoms: C_13  and  C_14
REMARK    7  A    between atoms: C_14  and  C_15
REMARK                            x       y       z     vdW  Elec       q    Type
REMARK                         _______ _______ _______ _____ _____    ______ ____
ROOT
ATOM      1  C   UNL     1       6.713   4.087  15.977  0.00  0.00    +0.000 C 
ATOM      2  C   UNL     1       7.320   5.310  16.664  0.00  0.00    +0.000 C 
ATOM      3  O   UNL     1       6.450   6.454  16.602  0.00  0.00    +0.000 OA
ATOM      4  C   UNL     1       5.112   6.243  16.551  0.00  0.00    +0.000 C 
ATOM      5  O   UNL     1       4.353   7.108  16.124  0.00  0.00    +0.000 OA
ATOM      6  C   UNL     1       4.603   4.881  17.038  0.00  0.00    +0.000 C 
ATOM      7  N   UNL     1       5.392   3.733  16.533  0.00  0.00    +0.000 NA
ATOM      8  H   UNL     1       4.870   3.148  15.880  0.00  0.00    +0.000 HD
ENDROOT
BRANCH   1  10
ATOM      9  N   UNL     1       6.208   3.254  13.678  0.00  0.00    +0.000 N 
ATOM     10  C   UNL     1       6.718   4.288  14.443  0.00  0.00    +0.000 C 
ATOM     11  O   UNL     1       7.178   5.321  13.960  0.00  0.00    +0.000 OA
ATOM     12  H   UNL     1       5.593   2.602  14.144  0.00  0.00    +0.000 HD
BRANCH   9  14
ATOM     13  C   UNL     1       6.377   1.880  11.617  0.00  0.00    +0.000 C 
ATOM     14  C   UNL     1       6.128   3.279  12.205  0.00  0.00    +0.000 C 
ATOM     15  C   UNL     1       7.122   4.290  11.612  0.00  0.00    +0.000 C 
ATOM     16  C   UNL     1       4.704   3.712  11.802  0.00  0.00    +0.000 C 
ENDBRANCH   9  14
ENDBRANCH   1  10
BRANCH   6  17
ATOM     17  C   UNL     1       4.509   4.831  18.577  0.00  0.00    +0.000 C 
BRANCH  17  18
ATOM     18  C   UNL     1       3.170   4.339  19.077  0.00  0.00    +0.000 A 
ATOM     19  C   UNL     1       2.659   4.776  20.307  0.00  0.00    +0.000 A 
ATOM     20  C   UNL     1       1.456   4.262  20.795  0.00  0.00    +0.000 A 
ATOM     21  C   UNL     1       0.752   3.309  20.060  0.00  0.00    +0.000 A 
ATOM     22  C   UNL     1       1.242   2.881  18.831  0.00  0.00    +0.000 A 
ATOM     23  C   UNL     1       2.443   3.397  18.337  0.00  0.00    +0.000 A 
ENDBRANCH  17  18
ENDBRANCH   6  17
TORSDOF 4
ENDMDL
MODEL 3
REMARK VINA RESULT:      -8.0      0.493      1.374
REMARK  Name = 
REMARK  7 active torsions:
REMARK  status: ('A' for Active; 'I' for Inactive)
REMARK    1  A    between atoms: C_1  and  C_2
REMARK    2  A    between atoms: C_2  and  C_3
REMARK    3  A    between atoms: C_2  and  C_4
REMARK    4  A    between atoms: C_2  and  N_5
REMARK    5  A    between atoms: C_6  and  C_8
REMARK    6  A    between atoms: C_13  and  C_14
REMARK    7  A    between atoms: C_14  and  C_15
REMARK                            x       y       z     vdW  Elec       q    Type
REMARK                         _______ _______ _______ _____ _____    ______ ____
ROOT
ATOM      1  C   UNL     1       6.720   4.121  16.005  0.00  0.00    +0.000 C 
ATOM      2  C   UNL     1       7.308   5.354  16.689  0.00  0.00    +0.000 C 
ATOM      3  O   UNL     1       6.426   6.488  16.616  0.00  0.00    +0.000 OA
ATOM      4  C   UNL     1       5.091   6.262  16.557  0.00  0.00    +0.000 C 
ATOM      5  O   UNL     1       4.325   7.116  16.121  0.00  0.00    +0.000 OA
ATOM      6  C   UNL     1       4.595   4.897  17.049  0.00  0.00    +0.000 C 
ATOM      7  N   UNL     1       5.399   3.755  16.555  0.00  0.00    +0.000 NA
ATOM      8  H   UNL     1       4.889   3.161  15.903  0.00  0.00    +0.000 HD
ENDROOT
BRANCH   1  10
ATOM      9  N   UNL     1       6.219   3.278  13.710  0.00  0.00    +0.000 N 
ATOM     10  C   UNL     1       6.732   4.314  14.470  0.00  0.00    +0.000 C 
ATOM     11  O   UNL     1       7.200   5.341  13.983  0.00  0.00    +0.000 OA
ATOM     12  H   UNL     1       5.599   2.632  14.177  0.00  0.00    +0.000 HD
BRANCH   9  14
ATOM     13  C   UNL     1       6.409   1.895  11.655  0.00  0.00    +0.000 C 
ATOM     14  C   UNL     1       6.145   3.295  12.236  0.00  0.00    +0.000 C 
ATOM     15  C   UNL     1       7.133   4.312  11.641  0.00  0.00    +0.000 C 
ATOM     16  C   UNL     1       4.719   3.714  11.825  0.00  0.00    +0.000 C 
ENDBRANCH   9  14
ENDBRANCH   1  10
BRANCH   6  17
ATOM     17  C   UNL     1       4.492   4.854  18.588  0.00  0.00    +0.000 C 
BRANCH  17  18
ATOM     18  C   UNL     1       3.192   4.262  19.083  0.00  0.00    +0.000 A 
ATOM     19  C   UNL     1       2.441   3.401  18.271  0.00  0.00    +0.000 A 
ATOM     20  C   UNL     1       1.206   2.916  18.708  0.00  0.00    +0.000 A 
ATOM     21  C   UNL     1       0.713   3.284  19.959  0.00  0.00    +0.000 A 
ATOM     22  C   UNL     1       1.459   4.124  20.780  0.00  0.00    +0.000 A 
ATOM     23  C   UNL     1       2.696   4.607  20.348  0.00  0.00    +0.000 A 
ENDBRANCH  17  18
ENDBRANCH   6  17
TORSDOF 4
ENDMDL
MODEL 4
REMARK VINA RESULT:      -8.0      0.119      1.059
REMARK  Name = 
REMARK  7 active torsions:
REMARK  status: ('A' for Active; 'I' for Inactive)
REMARK    1  A    between atoms: C_1  and  C_2
REMARK    2  A    between atoms: C_2  and  C_3
REMARK    3  A    between atoms: C_2  and  C_4
REMARK    4  A    between atoms: C_2  and  N_5
REMARK    5  A    between atoms: C_6  and  C_8
REMARK    6  A    between atoms: C_13  and  C_14
REMARK    7  A    between atoms: C_14  and  C_15
REMARK                            x       y       z     vdW  Elec       q    Type
REMARK                         _______ _______ _______ _____ _____    ______ ____
ROOT
ATOM      1  C   UNL     1       6.809   4.150  16.062  0.00  0.00    +0.000 C 
ATOM      2  C   UNL     1       7.370   5.405  16.730  0.00  0.00    +0.000 C 
ATOM      3  O   UNL     1       6.410   6.475  16.768  0.00  0.00    +0.000 OA
ATOM      4  C   UNL     1       5.093   6.156  16.820  0.00  0.00    +0.000 C 
ATOM      5  O   UNL     1       4.234   6.964  16.478  0.00  0.00    +0.000 OA
ATOM      6  C   UNL     1       4.737   4.747  17.311  0.00  0.00    +0.000 C 
ATOM      7  N   UNL     1       5.571   3.678  16.714  0.00  0.00    +0.000 NA
ATOM      8  H   UNL     1       5.046   3.066  16.091  0.00  0.00    +0.000 HD
ENDROOT
BRANCH   1  10
ATOM      9  N   UNL     1       6.290   3.291  13.777  0.00  0.00    +0.000 N 
ATOM     10  C   UNL     1       6.671   4.381  14.539  0.00  0.00    +0.000 C 
ATOM     11  O   UNL     1       6.914   5.487  14.060  0.00  0.00    +0.000 OA
ATOM     12  H   UNL     1       5.829   2.534  14.261  0.00  0.00    +0.000 HD
BRANCH   9  14
ATOM     13  C   UNL     1       7.150   4.242  11.649  0.00  0.00    +0.000 C 
ATOM     14  C   UNL     1       6.102   3.332  12.313  0.00  0.00    +0.000 C 
ATOM     15  C   UNL     1       4.684   3.801  11.948  0.00  0.00    +0.000 C 
ATOM     16  C   UNL     1       6.295   1.908  11.757  0.00  0.00    +0.000 C 
ENDBRANCH   9  14
ENDBRANCH   1  10
BRANCH   6  17
ATOM     17  C   UNL     1       4.775   4.660  18.851  0.00  0.00    +0.000 C 
BRANCH  17  18
ATOM     18  C   UNL     1       3.466   4.208  19.455  0.00  0.00    +0.000 A 
ATOM     19  C   UNL     1       3.075   2.864  19.397  0.00  0.00    +0.000 A 
ATOM     20  C   UNL     1       1.831   2.467  19.894  0.00  0.00    +0.000 A 
ATOM     21  C   UNL     1       0.968   3.409  20.454  0.00  0.00    +0.000 A 
ATOM     22  C   UNL     1       1.354   4.743  20.532  0.00  0.00    +0.000 A 
ATOM     23  C   UNL     1       2.599   5.142  20.040  0.00  0.00    +0.000 A 
ENDBRANCH  17  18
ENDBRANCH   6  17
TORSDOF 4
ENDMDL
MODEL 5
REMARK VINA RESULT:      -7.6      0.920      1.284
REMARK  Name = 
REMARK  7 active torsions:
REMARK  status: ('A' for Active; 'I' for Inactive)
REMARK    1  A    between atoms: C_1  and  C_2
REMARK    2  A    between atoms: C_2  and  C_3
REMARK    3  A    between atoms: C_2  and  C_4
REMARK    4  A    between atoms: C_2  and  N_5
REMARK    5  A    between atoms: C_6  and  C_8
REMARK    6  A    between atoms: C_13  and  C_14
REMARK    7  A    between atoms: C_14  and  C_15
REMARK                            x       y       z     vdW  Elec       q    Type
REMARK                         _______ _______ _______ _____ _____    ______ ____
ROOT
ATOM      1  C   UNL     1       6.089   3.866  16.170  0.00  0.00    +0.000 C 
ATOM      2  C   UNL     1       7.388   4.300  16.847  0.00  0.00    +0.000 C 
ATOM      3  O   UNL     1       7.467   5.728  17.007  0.00  0.00    +0.000 OA
ATOM      4  C   UNL     1       6.312   6.424  17.146  0.00  0.00    +0.000 C 
ATOM      5  O   UNL     1       6.269   7.627  16.907  0.00  0.00    +0.000 OA
ATOM      6  C   UNL     1       5.076   5.638  17.600  0.00  0.00    +0.000 C 
ATOM      7  N   UNL     1       4.895   4.349  16.894  0.00  0.00    +0.000 NA
ATOM      8  H   UNL     1       4.076   4.339  16.287  0.00  0.00    +0.000 HD
ENDROOT
BRANCH   1  10
ATOM      9  N   UNL     1       6.255   3.225  13.763  0.00  0.00    +0.000 N 
ATOM     10  C   UNL     1       6.118   4.257  14.674  0.00  0.00    +0.000 C 
ATOM     11  O   UNL     1       6.040   5.440  14.345  0.00  0.00    +0.000 OA
ATOM     12  H   UNL     1       6.012   2.298  14.084  0.00  0.00    +0.000 HD
BRANCH   9  14
ATOM     13  C   UNL     1       6.799   2.143  11.595  0.00  0.00    +0.000 C 
ATOM     14  C   UNL     1       6.295   3.414  12.301  0.00  0.00    +0.000 C 
ATOM     15  C   UNL     1       7.172   4.617  11.919  0.00  0.00    +0.000 C 
ATOM     16  C   UNL     1       4.861   3.688  11.806  0.00  0.00    +0.000 C 
ENDBRANCH   9  14
ENDBRANCH   1  10
BRANCH   6  17
ATOM     17  C   UNL     1       5.078   5.418  19.127  0.00  0.00    +0.000 C 
BRANCH  17  18
ATOM     18  C   UNL     1       3.781   4.841  19.648  0.00  0.00    +0.000 A 
ATOM     19  C   UNL     1       2.682   5.670  19.911  0.00  0.00    +0.000 A 
ATOM     20  C   UNL     1       1.513   5.139  20.461  0.00  0.00    +0.000 A 
ATOM     21  C   UNL     1       1.430   3.778  20.750  0.00  0.00    +0.000 A 
ATOM     22  C   UNL     1       2.509   2.944  20.477  0.00  0.00    +0.000 A 
ATOM     23  C   UNL     1       3.679   3.470  19.923  0.00  0.00    +0.000 A 
ENDBRANCH  17  18
ENDBRANCH   6  17
TORSDOF 4
ENDMDL
MODEL 6
REMARK VINA RESULT:      -7.5      0.905      1.632
REMARK  Name = 
REMARK  7 active torsions:
REMARK  status: ('A' for Active; 'I' for Inactive)
REMARK    1  A    between atoms: C_1  and  C_2
REMARK    2  A    between atoms: C_2  and  C_3
REMARK    3  A    between atoms: C_2  and  C_4
REMARK    4  A    between atoms: C_2  and  N_5
REMARK    5  A    between atoms: C_6  and  C_8
REMARK    6  A    between atoms: C_13  and  C_14
REMARK    7  A    between atoms: C_14  and  C_15
REMARK                            x       y       z     vdW  Elec       q    Type
REMARK                         _______ _______ _______ _____ _____    ______ ____
ROOT
ATOM      1  C   UNL     1       6.099   3.838  16.136  0.00  0.00    +0.000 C 
ATOM      2  C   UNL     1       7.397   4.321  16.783  0.00  0.00    +0.000 C 
ATOM      3  O   UNL     1       7.427   5.750  16.941  0.00  0.00    +0.000 OA
ATOM      4  C   UNL     1       6.251   6.403  17.107  0.00  0.00    +0.000 C 
ATOM      5  O   UNL     1       6.157   7.604  16.870  0.00  0.00    +0.000 OA
ATOM      6  C   UNL     1       5.056   5.572  17.591  0.00  0.00    +0.000 C 
ATOM      7  N   UNL     1       4.906   4.277  16.889  0.00  0.00    +0.000 NA
ATOM      8  H   UNL     1       4.074   4.236  16.302  0.00  0.00    +0.000 HD
ENDROOT
BRANCH   1  10
ATOM      9  N   UNL     1       6.295   3.211  13.728  0.00  0.00    +0.000 N 
ATOM     10  C   UNL     1       6.079   4.229  14.640  0.00  0.00    +0.000 C 
ATOM     11  O   UNL     1       5.896   5.400  14.313  0.00  0.00    +0.000 OA
ATOM     12  H   UNL     1       6.136   2.267  14.051  0.00  0.00    +0.000 HD
BRANCH   9  14
ATOM     13  C   UNL     1       6.773   2.125  11.546  0.00  0.00    +0.000 C 
ATOM     14  C   UNL     1       6.302   3.402  12.265  0.00  0.00    +0.000 C 
ATOM     15  C   UNL     1       7.186   4.594  11.864  0.00  0.00    +0.000 C 
ATOM     16  C   UNL     1       4.861   3.696  11.805  0.00  0.00    +0.000 C 
ENDBRANCH   9  14
ENDBRANCH   1  10
BRANCH   6  17
ATOM     17  C   UNL     1       5.102   5.353  19.117  0.00  0.00    +0.000 C 
BRANCH  17  18
ATOM     18  C   UNL     1       3.796   4.846  19.687  0.00  0.00    +0.000 A 
ATOM     19  C   UNL     1       3.600   3.479  19.923  0.00  0.00    +0.000 A 
ATOM     20  C   UNL     1       2.366   3.011  20.381  0.00  0.00    +0.000 A 
ATOM     21  C   UNL     1       1.319   3.904  20.608  0.00  0.00    +0.000 A 
ATOM     22  C   UNL     1       1.510   5.265  20.393  0.00  0.00    +0.000 A 
ATOM     23  C   UNL     1       2.743   5.737  19.940  0.00  0.00    +0.000 A 
ENDBRANCH  17  18
ENDBRANCH   6  17
TORSDOF 4
ENDMDL
MODEL 7
REMARK VINA RESULT:      -7.4      1.466      6.716
REMARK  Name = 
REMARK  7 active torsions:
REMARK  status: ('A' for Active; 'I' for Inactive)
REMARK    1  A    between atoms: C_1  and  C_2
REMARK    2  A    between atoms: C_2  and  C_3
REMARK    3  A    between atoms: C_2  and  C_4
REMARK    4  A    between atoms: C_2  and  N_5
REMARK    5  A    between atoms: C_6  and  C_8
REMARK    6  A    between atoms: C_13  and  C_14
REMARK    7  A    between atoms: C_14  and  C_15
REMARK                            x       y       z     vdW  Elec       q    Type
REMARK                         _______ _______ _______ _____ _____    ______ ____
ROOT
ATOM      1  C   UNL     1       4.540   5.538  16.958  0.00  0.00    +0.000 C 
ATOM      2  C   UNL     1       5.621   6.615  17.038  0.00  0.00    +0.000 C 
ATOM      3  O   UNL     1       6.931   6.056  17.242  0.00  0.00    +0.000 OA
ATOM      4  C   UNL     1       7.183   4.814  16.760  0.00  0.00    +0.000 C 
ATOM      5  O   UNL     1       8.104   4.139  17.208  0.00  0.00    +0.000 OA
ATOM      6  C   UNL     1       6.261   4.300  15.648  0.00  0.00    +0.000 C 
ATOM      7  N   UNL     1       4.822   4.543  15.904  0.00  0.00    +0.000 NA
ATOM      8  H   UNL     1       4.297   3.685  16.067  0.00  0.00    +0.000 HD
ENDROOT
BRANCH   1  10
ATOM      9  N   UNL     1       3.395   3.884  18.436  0.00  0.00    +0.000 N 
ATOM     10  C   UNL     1       4.305   4.923  18.358  0.00  0.00    +0.000 C 
ATOM     11  O   UNL     1       4.900   5.373  19.335  0.00  0.00    +0.000 OA
ATOM     12  H   UNL     1       3.190   3.391  17.578  0.00  0.00    +0.000 HD
BRANCH   9  14
ATOM     13  C   UNL     1       2.512   4.157  20.741  0.00  0.00    +0.000 C 
ATOM     14  C   UNL     1       3.054   3.177  19.685  0.00  0.00    +0.000 C 
ATOM     15  C   UNL     1       4.268   2.416  20.241  0.00  0.00    +0.000 C 
ATOM     16  C   UNL     1       1.943   2.154  19.379  0.00  0.00    +0.000 C 
ENDBRANCH   9  14
ENDBRANCH   1  10
BRANCH   6  17
ATOM     17  C   UNL     1       6.664   4.869  14.272  0.00  0.00    +0.000 C 
BRANCH  17  18
ATOM     18  C   UNL     1       6.275   3.973  13.118  0.00  0.00    +0.000 A 
ATOM     19  C   UNL     1       4.931   3.817  12.753  0.00  0.00    +0.000 A 
ATOM     20  C   UNL     1       4.574   2.932  11.733  0.00  0.00    +0.000 A 
ATOM     21  C   UNL     1       5.555   2.198  11.068  0.00  0.00    +0.000 A 
ATOM     22  C   UNL     1       6.894   2.359  11.411  0.00  0.00    +0.000 A 
ATOM     23  C   UNL     1       7.255   3.246  12.427  0.00  0.00    +0.000 A 
ENDBRANCH  17  18
ENDBRANCH   6  17
TORSDOF 4
ENDMDL
MODEL 8
REMARK VINA RESULT:      -7.2      1.389      6.724
REMARK  Name = 
REMARK  7 active torsions:
REMARK  status: ('A' for Active; 'I' for Inactive)
REMARK    1  A    between atoms: C_1  and  C_2
REMARK    2  A    between atoms: C_2  and  C_3
REMARK    3  A    between atoms: C_2  and  C_4
REMARK    4  A    between atoms: C_2  and  N_5
REMARK    5  A    between atoms: C_6  and  C_8
REMARK    6  A    between atoms: C_13  and  C_14
REMARK    7  A    between atoms: C_14  and  C_15
REMARK                            x       y       z     vdW  Elec       q    Type
REMARK                         _______ _______ _______ _____ _____    ______ ____
ROOT
ATOM      1  C   UNL     1       4.474   5.337  16.761  0.00  0.00    +0.000 C 
ATOM      2  C   UNL     1       5.472   6.494  16.780  0.00  0.00    +0.000 C 
ATOM      3  O   UNL     1       6.809   6.053  17.073  0.00  0.00    +0.000 OA
ATOM      4  C   UNL     1       7.166   4.796  16.711  0.00  0.00    +0.000 C 
ATOM      5  O   UNL     1       8.116   4.231  17.245  0.00  0.00    +0.000 OA
ATOM      6  C   UNL     1       6.326   4.122  15.619  0.00  0.00    +0.000 C 
ATOM      7  N   UNL     1       4.865   4.279  15.807  0.00  0.00    +0.000 NA
ATOM      8  H   UNL     1       4.396   3.402  16.029  0.00  0.00    +0.000 HD
ENDROOT
BRANCH   1  10
ATOM      9  N   UNL     1       3.321   3.795  18.350  0.00  0.00    +0.000 N 
ATOM     10  C   UNL     1       4.230   4.828  18.201  0.00  0.00    +0.000 C 
ATOM     11  O   UNL     1       4.817   5.351  19.146  0.00  0.00    +0.000 OA
ATOM     12  H   UNL     1       3.124   3.239  17.530  0.00  0.00    +0.000 HD
BRANCH   9  14
ATOM     13  C   UNL     1       1.850   2.144  19.481  0.00  0.00    +0.000 C 
ATOM     14  C   UNL     1       2.973   3.183  19.647  0.00  0.00    +0.000 C 
ATOM     15  C   UNL     1       2.562   4.251  20.673  0.00  0.00    +0.000 C 
ATOM     16  C   UNL     1       4.216   2.449  20.188  0.00  0.00    +0.000 C 
ENDBRANCH   9  14
ENDBRANCH   1  10
BRANCH   6  17
ATOM     17  C   UNL     1       6.740   4.600  14.212  0.00  0.00    +0.000 C 
BRANCH  17  18
ATOM     18  C   UNL     1       6.160   3.756  13.100  0.00  0.00    +0.000 A 
ATOM     19  C   UNL     1       6.944   2.796  12.446  0.00  0.00    +0.000 A 
ATOM     20  C   UNL     1       6.423   2.071  11.372  0.00  0.00    +0.000 A 
ATOM     21  C   UNL     1       5.115   2.297  10.944  0.00  0.00    +0.000 A 
ATOM     22  C   UNL     1       4.324   3.236  11.597  0.00  0.00    +0.000 A 
ATOM     23  C   UNL     1       4.840   3.959  12.675  0.00  0.00    +0.000 A 
ENDBRANCH  17  18
ENDBRANCH   6  17
TORSDOF 4
ENDMDL
MODEL 9
REMARK VINA RESULT:      -7.0      2.113      7.080
REMARK  Name = 
REMARK  7 active torsions:
REMARK  status: ('A' for Active; 'I' for Inactive)
REMARK    1  A    between atoms: C_1  and  C_2
REMARK    2  A    between atoms: C_2  and  C_3
REMARK    3  A    between atoms: C_2  and  C_4
REMARK    4  A    between atoms: C_2  and  N_5
REMARK    5  A    between atoms: C_6  and  C_8
REMARK    6  A    between atoms: C_13  and  C_14
REMARK    7  A    between atoms: C_14  and  C_15
REMARK                            x       y       z     vdW  Elec       q    Type
REMARK                         _______ _______ _______ _____ _____    ______ ____
ROOT
ATOM      1  C   UNL     1       4.886   6.350  18.406  0.00  0.00    +0.000 C 
ATOM      2  C   UNL     1       5.858   5.360  19.047  0.00  0.00    +0.000 C 
ATOM      3  O   UNL     1       5.670   4.020  18.558  0.00  0.00    +0.000 OA
ATOM      4  C   UNL     1       5.197   3.856  17.298  0.00  0.00    +0.000 C 
ATOM      5  O   UNL     1       4.665   2.804  16.957  0.00  0.00    +0.000 OA
ATOM      6  C   UNL     1       5.351   5.041  16.337  0.00  0.00    +0.000 C 
ATOM      7  N   UNL     1       4.977   6.345  16.932  0.00  0.00    +0.000 NA
ATOM      8  H   UNL     1       4.137   6.745  16.517  0.00  0.00    +0.000 HD
ENDROOT
BRANCH   1  10
ATOM      9  N   UNL     1       3.296   5.061  19.835  0.00  0.00    +0.000 N 
ATOM     10  C   UNL     1       3.457   6.112  18.949  0.00  0.00    +0.000 C 
ATOM     11  O   UNL     1       2.531   6.828  18.577  0.00  0.00    +0.000 OA
ATOM     12  H   UNL     1       4.125   4.730  20.308  0.00  0.00    +0.000 HD
BRANCH   9  14
ATOM     13  C   UNL     1       1.113   3.936  19.461  0.00  0.00    +0.000 C 
ATOM     14  C   UNL     1       2.008   4.695  20.456  0.00  0.00    +0.000 C 
ATOM     15  C   UNL     1       1.276   5.938  20.988  0.00  0.00    +0.000 C 
ATOM     16  C   UNL     1       2.290   3.757  21.646  0.00  0.00    +0.000 C 
ENDBRANCH   9  14
ENDBRANCH   1  10
BRANCH   6  17
ATOM     17  C   UNL     1       6.776   5.109  15.748  0.00  0.00    +0.000 C 
BRANCH  17  18
ATOM     18  C   UNL     1       6.843   4.687  14.298  0.00  0.00    +0.000 A 
ATOM     19  C   UNL     1       7.744   5.295  13.415  0.00  0.00    +0.000 A 
ATOM     20  C   UNL     1       7.750   4.950  12.062  0.00  0.00    +0.000 A 
ATOM     21  C   UNL     1       6.857   3.994  11.579  0.00  0.00    +0.000 A 
ATOM     22  C   UNL     1       5.970   3.372  12.451  0.00  0.00    +0.000 A 
ATOM     23  C   UNL     1       5.965   3.711  13.806  0.00  0.00    +0.000 A 
ENDBRANCH  17  18
ENDBRANCH   6  17
TORSDOF 4
ENDMDL
