MODEL 1
REMARK VINA RESULT:      -8.6      0.000      0.000
REMARK  Name = 
REMARK  9 active torsions:
REMARK  status: ('A' for Active; 'I' for Inactive)
REMARK    1  A    between atoms: C_1  and  C_2
REMARK    2  A    between atoms: C_2  and  C_3
REMARK    3  A    between atoms: C_3  and  C_4
REMARK    4  A    between atoms: C_3  and  N_5
REMARK    5  A    between atoms: N_5  and  C_6
REMARK    6  A    between atoms: C_6  and  C_7
REMARK    7  A    between atoms: C_7  and  C_8
REMARK    8  A    between atoms: N_10  and  C_11
REMARK    9  A    between atoms: C_15  and  C_16
REMARK                            x       y       z     vdW  Elec       q    Type
REMARK                         _______ _______ _______ _____ _____    ______ ____
ROOT
ATOM      1  C   UNL     1       4.385   5.676  17.523  0.00  0.00    +0.000 A 
ATOM      2  S   UNL     1       4.780   4.113  16.972  0.00  0.00    +0.000 S 
ATOM      3  C   UNL     1       3.463   3.440  17.802  0.00  0.00    +0.000 A 
ATOM      4  C   UNL     1       2.693   4.390  18.451  0.00  0.00    +0.000 A 
ATOM      5  C   UNL     1       3.229   5.715  18.281  0.00  0.00    +0.000 A 
ATOM      6  C   UNL     1       1.452   3.964  19.178  0.00  0.00    +0.000 C 
ATOM      7  C   UNL     1       1.451   2.439  19.424  0.00  0.00    +0.000 C 
ATOM      8  N   UNL     1       1.829   1.660  18.226  0.00  0.00    +0.000 NA
ATOM      9  C   UNL     1       3.219   1.961  17.829  0.00  0.00    +0.000 C 
ATOM     10  H   UNL     1       1.226   1.946  17.454  0.00  0.00    +0.000 HD
ENDROOT
BRANCH   5  11
ATOM     11  C   UNL     1       2.582   6.989  18.804  0.00  0.00    +0.000 A 
ATOM     12  N   UNL     1       2.219   7.131  20.065  0.00  0.00    +0.000 NA
ATOM     13  C   UNL     1       1.596   8.360  20.261  0.00  0.00    +0.000 A 
ATOM     14  C   UNL     1       1.078   8.849  21.474  0.00  0.00    +0.000 A 
ATOM     15  C   UNL     1       0.469  10.105  21.494  0.00  0.00    +0.000 A 
ATOM     16  F   UNL     1      -0.028  10.572  22.645  0.00  0.00    +0.000 F 
ATOM     17  C   UNL     1       0.362  10.883  20.349  0.00  0.00    +0.000 A 
ATOM     18  C   UNL     1       0.875  10.422  19.137  0.00  0.00    +0.000 A 
ATOM     19  C   UNL     1       1.488   9.157  19.123  0.00  0.00    +0.000 A 
ATOM     20  S   UNL     1       2.198   8.333  17.808  0.00  0.00    +0.000 S 
ENDBRANCH   5  11
BRANCH   1  23
ATOM     21  C   UNL     1       6.609   6.563  17.824  0.00  0.00    +0.000 C 
ATOM     22  O   UNL     1       6.988   5.732  18.646  0.00  0.00    +0.000 OA
ATOM     23  N   UNL     1       5.336   6.649  17.293  0.00  0.00    +0.000 N 
ATOM     24  H   UNL     1       5.265   7.166  16.413  0.00  0.00    +0.000 HD
BRANCH  21  25
ATOM     25  C   UNL     1       7.573   7.634  17.326  0.00  0.00    +0.000 C 
BRANCH  25  26
ATOM     26  C   UNL     1       8.295   8.449  18.403  0.00  0.00    +0.000 C 
BRANCH  26  27
ATOM     27  N   UNL     1       8.490   9.873  18.073  0.00  0.00    +0.000 NA
ATOM     28  H   UNL     1       8.584   9.971  17.058  0.00  0.00    +0.000 HD
BRANCH  27  29
ATOM     29  C   UNL     1       9.681  10.480  18.712  0.00  0.00    +0.000 C 
ATOM     30  C   UNL     1       9.308  10.862  20.149  0.00  0.00    +0.000 C 
BRANCH  29  32
ATOM     31  C   UNL     1       9.504  12.998  18.248  0.00  0.00    +0.000 C 
ATOM     32  C   UNL     1      10.188  11.686  17.900  0.00  0.00    +0.000 C 
ENDBRANCH  29  32
ENDBRANCH  27  29
ENDBRANCH  26  27
ENDBRANCH  25  26
ENDBRANCH  21  25
ENDBRANCH   1  23
TORSDOF 7
ENDMDL
MODEL 2
REMARK VINA RESULT:      -8.5      1.212      1.552
REMARK  Name = 
REMARK  9 active torsions:
REMARK  status: ('A' for Active; 'I' for Inactive)
REMARK    1  A    between atoms: C_1  and  C_2
REMARK    2  A    between atoms: C_2  and  C_3
REMARK    3  A    between atoms: C_3  and  C_4
REMARK    4  A    between atoms: C_3  and  N_5
REMARK    5  A    between atoms: N_5  and  C_6
REMARK    6  A    between atoms: C_6  and  C_7
REMARK    7  A    between atoms: C_7  and  C_8
REMARK    8  A    between atoms: N_10  and  C_11
REMARK    9  A    between atoms: C_15  and  C_16
REMARK                            x       y       z     vdW  Elec       q    Type
REMARK                         _______ _______ _______ _____ _____    ______ ____
ROOT
ATOM      1  C   UNL     1       4.386   5.590  17.436  0.00  0.00    +0.000 A 
ATOM      2  S   UNL     1       4.812   4.008  16.968  0.00  0.00    +0.000 S 
ATOM      3  C   UNL     1       3.501   3.356  17.822  0.00  0.00    +0.000 A 
ATOM      4  C   UNL     1       2.709   4.324  18.417  0.00  0.00    +0.000 A 
ATOM      5  C   UNL     1       3.224   5.648  18.183  0.00  0.00    +0.000 A 
ATOM      6  C   UNL     1       1.470   3.913  19.157  0.00  0.00    +0.000 C 
ATOM      7  C   UNL     1       1.495   2.402  19.479  0.00  0.00    +0.000 C 
ATOM      8  N   UNL     1       1.894   1.571  18.325  0.00  0.00    +0.000 NA
ATOM      9  C   UNL     1       3.282   1.876  17.923  0.00  0.00    +0.000 C 
ATOM     10  H   UNL     1       1.293   1.806  17.536  0.00  0.00    +0.000 HD
ENDROOT
BRANCH   5  11
ATOM     11  C   UNL     1       2.551   6.934  18.637  0.00  0.00    +0.000 A 
ATOM     12  N   UNL     1       2.445   7.991  17.855  0.00  0.00    +0.000 NA
ATOM     13  C   UNL     1       1.848   9.048  18.535  0.00  0.00    +0.000 A 
ATOM     14  C   UNL     1       1.579  10.329  18.017  0.00  0.00    +0.000 A 
ATOM     15  C   UNL     1       0.984  11.282  18.845  0.00  0.00    +0.000 A 
ATOM     16  F   UNL     1       0.729  12.503  18.357  0.00  0.00    +0.000 F 
ATOM     17  C   UNL     1       0.650  11.001  20.162  0.00  0.00    +0.000 A 
ATOM     18  C   UNL     1       0.900   9.737  20.694  0.00  0.00    +0.000 A 
ATOM     19  C   UNL     1       1.499   8.779  19.858  0.00  0.00    +0.000 A 
ATOM     20  S   UNL     1       1.925   7.167  20.219  0.00  0.00    +0.000 S 
ENDBRANCH   5  11
BRANCH   1  23
ATOM     21  C   UNL     1       6.555   6.587  17.785  0.00  0.00    +0.000 C 
ATOM     22  O   UNL     1       6.900   5.867  18.718  0.00  0.00    +0.000 OA
ATOM     23  N   UNL     1       5.321   6.567  17.163  0.00  0.00    +0.000 N 
ATOM     24  H   UNL     1       5.298   6.981  16.227  0.00  0.00    +0.000 HD
BRANCH  21  25
ATOM     25  C   UNL     1       7.520   7.633  17.236  0.00  0.00    +0.000 C 
BRANCH  25  26
ATOM     26  C   UNL     1       8.276   8.468  18.274  0.00  0.00    +0.000 C 
BRANCH  26  27
ATOM     27  N   UNL     1       8.229   9.925  18.046  0.00  0.00    +0.000 NA
ATOM     28  H   UNL     1       8.083  10.103  17.049  0.00  0.00    +0.000 HD
BRANCH  27  29
ATOM     29  C   UNL     1       9.454  10.639  18.475  0.00  0.00    +0.000 C 
ATOM     30  C   UNL     1       9.457  10.705  20.006  0.00  0.00    +0.000 C 
BRANCH  29  32
ATOM     31  C   UNL     1      10.943  12.481  17.488  0.00  0.00    +0.000 C 
ATOM     32  C   UNL     1       9.532  12.035  17.830  0.00  0.00    +0.000 C 
ENDBRANCH  29  32
ENDBRANCH  27  29
ENDBRANCH  26  27
ENDBRANCH  25  26
ENDBRANCH  21  25
ENDBRANCH   1  23
TORSDOF 7
ENDMDL
MODEL 3
REMARK VINA RESULT:      -8.3      1.281      1.789
REMARK  Name = 
REMARK  9 active torsions:
REMARK  status: ('A' for Active; 'I' for Inactive)
REMARK    1  A    between atoms: C_1  and  C_2
REMARK    2  A    between atoms: C_2  and  C_3
REMARK    3  A    between atoms: C_3  and  C_4
REMARK    4  A    between atoms: C_3  and  N_5
REMARK    5  A    between atoms: N_5  and  C_6
REMARK    6  A    between atoms: C_6  and  C_7
REMARK    7  A    between atoms: C_7  and  C_8
REMARK    8  A    between atoms: N_10  and  C_11
REMARK    9  A    between atoms: C_15  and  C_16
REMARK                            x       y       z     vdW  Elec       q    Type
REMARK                         _______ _______ _______ _____ _____    ______ ____
ROOT
ATOM      1  C   UNL     1       4.537   5.616  17.365  0.00  0.00    +0.000 A 
ATOM      2  S   UNL     1       4.987   4.039  16.905  0.00  0.00    +0.000 S 
ATOM      3  C   UNL     1       3.688   3.370  17.764  0.00  0.00    +0.000 A 
ATOM      4  C   UNL     1       2.882   4.329  18.354  0.00  0.00    +0.000 A 
ATOM      5  C   UNL     1       3.376   5.660  18.113  0.00  0.00    +0.000 A 
ATOM      6  C   UNL     1       1.650   3.904  19.098  0.00  0.00    +0.000 C 
ATOM      7  C   UNL     1       1.698   2.395  19.429  0.00  0.00    +0.000 C 
ATOM      8  N   UNL     1       2.110   1.563  18.279  0.00  0.00    +0.000 NA
ATOM      9  C   UNL     1       3.492   1.888  17.873  0.00  0.00    +0.000 C 
ATOM     10  H   UNL     1       1.504   1.785  17.489  0.00  0.00    +0.000 HD
ENDROOT
BRANCH   5  11
ATOM     11  C   UNL     1       2.683   6.938  18.561  0.00  0.00    +0.000 A 
ATOM     12  N   UNL     1       2.626   8.015  17.801  0.00  0.00    +0.000 NA
ATOM     13  C   UNL     1       1.996   9.058  18.473  0.00  0.00    +0.000 A 
ATOM     14  C   UNL     1       1.762  10.353  17.974  0.00  0.00    +0.000 A 
ATOM     15  C   UNL     1       1.125  11.288  18.790  0.00  0.00    +0.000 A 
ATOM     16  F   UNL     1       0.903  12.522  18.320  0.00  0.00    +0.000 F 
ATOM     17  C   UNL     1       0.716  10.975  20.079  0.00  0.00    +0.000 A 
ATOM     18  C   UNL     1       0.930   9.697  20.592  0.00  0.00    +0.000 A 
ATOM     19  C   UNL     1       1.572   8.758  19.767  0.00  0.00    +0.000 A 
ATOM     20  S   UNL     1       1.971   7.135  20.110  0.00  0.00    +0.000 S 
ENDBRANCH   5  11
BRANCH   1  23
ATOM     21  C   UNL     1       6.656   6.699  17.767  0.00  0.00    +0.000 C 
ATOM     22  O   UNL     1       6.972   6.041  18.755  0.00  0.00    +0.000 OA
ATOM     23  N   UNL     1       5.458   6.605  17.085  0.00  0.00    +0.000 N 
ATOM     24  H   UNL     1       5.471   6.968  16.128  0.00  0.00    +0.000 HD
BRANCH  21  25
ATOM     25  C   UNL     1       7.618   7.743  17.210  0.00  0.00    +0.000 C 
BRANCH  25  26
ATOM     26  C   UNL     1       8.172   8.758  18.215  0.00  0.00    +0.000 C 
BRANCH  26  27
ATOM     27  N   UNL     1       8.216  10.149  17.726  0.00  0.00    +0.000 NA
ATOM     28  H   UNL     1       8.543  10.153  16.756  0.00  0.00    +0.000 HD
BRANCH  27  29
ATOM     29  C   UNL     1       9.097  11.036  18.519  0.00  0.00    +0.000 C 
ATOM     30  C   UNL     1      10.393  11.252  17.729  0.00  0.00    +0.000 C 
BRANCH  29  32
ATOM     31  C   UNL     1       9.717  11.483  20.969  0.00  0.00    +0.000 C 
ATOM     32  C   UNL     1       9.358  10.447  19.917  0.00  0.00    +0.000 C 
ENDBRANCH  29  32
ENDBRANCH  27  29
ENDBRANCH  26  27
ENDBRANCH  25  26
ENDBRANCH  21  25
ENDBRANCH   1  23
TORSDOF 7
ENDMDL
MODEL 4
REMARK VINA RESULT:      -7.8      1.202      1.259
REMARK  Name = 
REMARK  9 active torsions:
REMARK  status: ('A' for Active; 'I' for Inactive)
REMARK    1  A    between atoms: C_1  and  C_2
REMARK    2  A    between atoms: C_2  and  C_3
REMARK    3  A    between atoms: C_3  and  C_4
REMARK    4  A    between atoms: C_3  and  N_5
REMARK    5  A    between atoms: N_5  and  C_6
REMARK    6  A    between atoms: C_6  and  C_7
REMARK    7  A    between atoms: C_7  and  C_8
REMARK    8  A    between atoms: N_10  and  C_11
REMARK    9  A    between atoms: C_15  and  C_16
REMARK                            x       y       z     vdW  Elec       q    Type
REMARK                         _______ _______ _______ _____ _____    ______ ____
ROOT
ATOM      1  C   UNL     1       4.504   5.618  18.447  0.00  0.00    +0.000 A 
ATOM      2  S   UNL     1       4.989   3.987  18.526  0.00  0.00    +0.000 S 
ATOM      3  C   UNL     1       3.711   3.612  19.576  0.00  0.00    +0.000 A 
ATOM      4  C   UNL     1       2.887   4.695  19.828  0.00  0.00    +0.000 A 
ATOM      5  C   UNL     1       3.346   5.882  19.155  0.00  0.00    +0.000 A 
ATOM      6  C   UNL     1       1.671   4.514  20.689  0.00  0.00    +0.000 C 
ATOM      7  C   UNL     1       1.757   3.200  21.497  0.00  0.00    +0.000 C 
ATOM      8  N   UNL     1       2.181   2.044  20.680  0.00  0.00    +0.000 NA
ATOM      9  C   UNL     1       3.552   2.245  20.170  0.00  0.00    +0.000 C 
ATOM     10  H   UNL     1       1.564   1.981  19.869  0.00  0.00    +0.000 HD
ENDROOT
BRANCH   5  11
ATOM     11  C   UNL     1       2.626   7.222  19.167  0.00  0.00    +0.000 A 
ATOM     12  N   UNL     1       1.990   7.673  20.230  0.00  0.00    +0.000 NA
ATOM     13  C   UNL     1       1.366   8.886  19.952  0.00  0.00    +0.000 A 
ATOM     14  C   UNL     1       0.597   9.654  20.845  0.00  0.00    +0.000 A 
ATOM     15  C   UNL     1       0.028  10.847  20.396  0.00  0.00    +0.000 A 
ATOM     16  F   UNL     1      -0.707  11.580  21.242  0.00  0.00    +0.000 F 
ATOM     17  C   UNL     1       0.203  11.296  19.094  0.00  0.00    +0.000 A 
ATOM     18  C   UNL     1       0.968  10.555  18.194  0.00  0.00    +0.000 A 
ATOM     19  C   UNL     1       1.539   9.355  18.650  0.00  0.00    +0.000 A 
ATOM     20  S   UNL     1       2.510   8.245  17.793  0.00  0.00    +0.000 S 
ENDBRANCH   5  11
BRANCH   1  23
ATOM     21  C   UNL     1       6.724   6.536  18.227  0.00  0.00    +0.000 C 
ATOM     22  O   UNL     1       7.215   5.969  19.200  0.00  0.00    +0.000 OA
ATOM     23  N   UNL     1       5.398   6.478  17.844  0.00  0.00    +0.000 N 
ATOM     24  H   UNL     1       5.215   6.726  16.868  0.00  0.00    +0.000 HD
BRANCH  21  25
ATOM     25  C   UNL     1       7.599   7.416  17.339  0.00  0.00    +0.000 C 
BRANCH  25  26
ATOM     26  C   UNL     1       7.858   8.839  17.842  0.00  0.00    +0.000 C 
BRANCH  26  27
ATOM     27  N   UNL     1       8.774   8.929  18.996  0.00  0.00    +0.000 NA
ATOM     28  H   UNL     1       8.239   8.794  19.858  0.00  0.00    +0.000 HD
BRANCH  27  29
ATOM     29  C   UNL     1       9.495  10.219  19.090  0.00  0.00    +0.000 C 
ATOM     30  C   UNL     1       9.348  10.745  20.522  0.00  0.00    +0.000 C 
BRANCH  29  32
ATOM     31  C   UNL     1       9.900  12.398  17.797  0.00  0.00    +0.000 C 
ATOM     32  C   UNL     1       8.972  11.220  18.044  0.00  0.00    +0.000 C 
ENDBRANCH  29  32
ENDBRANCH  27  29
ENDBRANCH  26  27
ENDBRANCH  25  26
ENDBRANCH  21  25
ENDBRANCH   1  23
TORSDOF 7
ENDMDL
MODEL 5
REMARK VINA RESULT:      -7.7      2.358      3.770
REMARK  Name = 
REMARK  9 active torsions:
REMARK  status: ('A' for Active; 'I' for Inactive)
REMARK    1  A    between atoms: C_1  and  C_2
REMARK    2  A    between atoms: C_2  and  C_3
REMARK    3  A    between atoms: C_3  and  C_4
REMARK    4  A    between atoms: C_3  and  N_5
REMARK    5  A    between atoms: N_5  and  C_6
REMARK    6  A    between atoms: C_6  and  C_7
REMARK    7  A    between atoms: C_7  and  C_8
REMARK    8  A    between atoms: N_10  and  C_11
REMARK    9  A    between atoms: C_15  and  C_16
REMARK                            x       y       z     vdW  Elec       q    Type
REMARK                         _______ _______ _______ _____ _____    ______ ____
ROOT
ATOM      1  C   UNL     1       3.943   5.297  17.982  0.00  0.00    +0.000 A 
ATOM      2  S   UNL     1       4.185   3.651  17.617  0.00  0.00    +0.000 S 
ATOM      3  C   UNL     1       2.863   3.199  18.576  0.00  0.00    +0.000 A 
ATOM      4  C   UNL     1       2.203   4.283  19.130  0.00  0.00    +0.000 A 
ATOM      5  C   UNL     1       2.833   5.527  18.773  0.00  0.00    +0.000 A 
ATOM      6  C   UNL     1       0.970   4.056  19.955  0.00  0.00    +0.000 C 
ATOM      7  C   UNL     1       0.862   2.578  20.390  0.00  0.00    +0.000 C 
ATOM      8  N   UNL     1       1.116   1.629  19.287  0.00  0.00    +0.000 NA
ATOM      9  C   UNL     1       2.504   1.760  18.800  0.00  0.00    +0.000 C 
ATOM     10  H   UNL     1       0.500   1.868  18.509  0.00  0.00    +0.000 HD
ENDROOT
BRANCH   5  11
ATOM     11  C   UNL     1       2.316   6.905  19.157  0.00  0.00    +0.000 A 
ATOM     12  N   UNL     1       1.879   7.183  20.370  0.00  0.00    +0.000 NA
ATOM     13  C   UNL     1       1.404   8.491  20.434  0.00  0.00    +0.000 A 
ATOM     14  C   UNL     1       0.861   9.128  21.565  0.00  0.00    +0.000 A 
ATOM     15  C   UNL     1       0.418  10.446  21.451  0.00  0.00    +0.000 A 
ATOM     16  F   UNL     1      -0.102  11.055  22.524  0.00  0.00    +0.000 F 
ATOM     17  C   UNL     1       0.500  11.145  20.255  0.00  0.00    +0.000 A 
ATOM     18  C   UNL     1       1.042  10.536  19.123  0.00  0.00    +0.000 A 
ATOM     19  C   UNL     1       1.487   9.208  19.242  0.00  0.00    +0.000 A 
ATOM     20  S   UNL     1       2.185   8.209  18.048  0.00  0.00    +0.000 S 
ENDBRANCH   5  11
BRANCH   1  23
ATOM     21  C   UNL     1       6.215   6.091  18.158  0.00  0.00    +0.000 C 
ATOM     22  O   UNL     1       6.533   5.410  19.129  0.00  0.00    +0.000 OA
ATOM     23  N   UNL     1       4.955   6.150  17.592  0.00  0.00    +0.000 N 
ATOM     24  H   UNL     1       4.926   6.495  16.629  0.00  0.00    +0.000 HD
BRANCH  21  25
ATOM     25  C   UNL     1       7.249   6.989  17.487  0.00  0.00    +0.000 C 
BRANCH  25  26
ATOM     26  C   UNL     1       7.574   6.672  16.024  0.00  0.00    +0.000 C 
BRANCH  26  27
ATOM     27  N   UNL     1       6.544   5.884  15.321  0.00  0.00    +0.000 NA
ATOM     28  H   UNL     1       5.917   5.461  16.011  0.00  0.00    +0.000 HD
BRANCH  27  29
ATOM     29  C   UNL     1       7.093   4.806  14.466  0.00  0.00    +0.000 C 
ATOM     30  C   UNL     1       7.937   5.455  13.363  0.00  0.00    +0.000 C 
BRANCH  29  32
ATOM     31  C   UNL     1       6.203   3.464  12.469  0.00  0.00    +0.000 C 
ATOM     32  C   UNL     1       5.965   3.926  13.896  0.00  0.00    +0.000 C 
ENDBRANCH  29  32
ENDBRANCH  27  29
ENDBRANCH  26  27
ENDBRANCH  25  26
ENDBRANCH  21  25
ENDBRANCH   1  23
TORSDOF 7
ENDMDL
MODEL 6
REMARK VINA RESULT:      -7.6      4.331      8.001
REMARK  Name = 
REMARK  9 active torsions:
REMARK  status: ('A' for Active; 'I' for Inactive)
REMARK    1  A    between atoms: C_1  and  C_2
REMARK    2  A    between atoms: C_2  and  C_3
REMARK    3  A    between atoms: C_3  and  C_4
REMARK    4  A    between atoms: C_3  and  N_5
REMARK    5  A    between atoms: N_5  and  C_6
REMARK    6  A    between atoms: C_6  and  C_7
REMARK    7  A    between atoms: C_7  and  C_8
REMARK    8  A    between atoms: N_10  and  C_11
REMARK    9  A    between atoms: C_15  and  C_16
REMARK                            x       y       z     vdW  Elec       q    Type
REMARK                         _______ _______ _______ _____ _____    ______ ____
ROOT
ATOM      1  C   UNL     1       2.068   6.631  20.281  0.00  0.00    +0.000 A 
ATOM      2  S   UNL     1       0.770   7.561  20.874  0.00  0.00    +0.000 S 
ATOM      3  C   UNL     1       1.079   8.789  19.748  0.00  0.00    +0.000 A 
ATOM      4  C   UNL     1       2.121   8.484  18.890  0.00  0.00    +0.000 A 
ATOM      5  C   UNL     1       2.703   7.204  19.195  0.00  0.00    +0.000 A 
ATOM      6  C   UNL     1       2.479   9.441  17.791  0.00  0.00    +0.000 C 
ATOM      7  C   UNL     1       1.863  10.835  18.050  0.00  0.00    +0.000 C 
ATOM      8  N   UNL     1       0.443  10.774  18.452  0.00  0.00    +0.000 NA
ATOM      9  C   UNL     1       0.299  10.071  19.743  0.00  0.00    +0.000 C 
ATOM     10  H   UNL     1      -0.066  10.230  17.755  0.00  0.00    +0.000 HD
ENDROOT
BRANCH   5  11
ATOM     11  C   UNL     1       3.817   6.543  18.397  0.00  0.00    +0.000 A 
ATOM     12  N   UNL     1       3.867   6.589  17.080  0.00  0.00    +0.000 NA
ATOM     13  C   UNL     1       4.947   5.852  16.603  0.00  0.00    +0.000 A 
ATOM     14  C   UNL     1       5.307   5.676  15.254  0.00  0.00    +0.000 A 
ATOM     15  C   UNL     1       6.418   4.890  14.947  0.00  0.00    +0.000 A 
ATOM     16  F   UNL     1       6.763   4.718  13.665  0.00  0.00    +0.000 F 
ATOM     17  C   UNL     1       7.177   4.279  15.935  0.00  0.00    +0.000 A 
ATOM     18  C   UNL     1       6.844   4.446  17.279  0.00  0.00    +0.000 A 
ATOM     19  C   UNL     1       5.724   5.238  17.584  0.00  0.00    +0.000 A 
ATOM     20  S   UNL     1       5.075   5.620  19.115  0.00  0.00    +0.000 S 
ENDBRANCH   5  11
BRANCH   1  23
ATOM     21  C   UNL     1       1.681   4.368  21.024  0.00  0.00    +0.000 C 
ATOM     22  O   UNL     1       0.597   4.213  20.467  0.00  0.00    +0.000 OA
ATOM     23  N   UNL     1       2.418   5.537  21.046  0.00  0.00    +0.000 N 
ATOM     24  H   UNL     1       3.411   5.422  21.263  0.00  0.00    +0.000 HD
BRANCH  21  25
ATOM     25  C   UNL     1       2.310   3.213  21.797  0.00  0.00    +0.000 C 
BRANCH  25  26
ATOM     26  C   UNL     1       3.337   2.369  21.035  0.00  0.00    +0.000 C 
BRANCH  26  27
ATOM     27  N   UNL     1       3.612   2.826  19.659  0.00  0.00    +0.000 NA
ATOM     28  H   UNL     1       3.165   3.736  19.513  0.00  0.00    +0.000 HD
BRANCH  27  29
ATOM     29  C   UNL     1       3.132   1.897  18.611  0.00  0.00    +0.000 C 
ATOM     30  C   UNL     1       4.209   1.804  17.525  0.00  0.00    +0.000 C 
BRANCH  29  32
ATOM     31  C   UNL     1       1.817   3.702  17.347  0.00  0.00    +0.000 C 
ATOM     32  C   UNL     1       1.774   2.355  18.048  0.00  0.00    +0.000 C 
ENDBRANCH  29  32
ENDBRANCH  27  29
ENDBRANCH  26  27
ENDBRANCH  25  26
ENDBRANCH  21  25
ENDBRANCH   1  23
TORSDOF 7
ENDMDL
MODEL 7
REMARK VINA RESULT:      -7.6      4.158      7.813
REMARK  Name = 
REMARK  9 active torsions:
REMARK  status: ('A' for Active; 'I' for Inactive)
REMARK    1  A    between atoms: C_1  and  C_2
REMARK    2  A    between atoms: C_2  and  C_3
REMARK    3  A    between atoms: C_3  and  C_4
REMARK    4  A    between atoms: C_3  and  N_5
REMARK    5  A    between atoms: N_5  and  C_6
REMARK    6  A    between atoms: C_6  and  C_7
REMARK    7  A    between atoms: C_7  and  C_8
REMARK    8  A    between atoms: N_10  and  C_11
REMARK    9  A    between atoms: C_15  and  C_16
REMARK                            x       y       z     vdW  Elec       q    Type
REMARK                         _______ _______ _______ _____ _____    ______ ____
ROOT
ATOM      1  C   UNL     1       1.612   6.994  20.657  0.00  0.00    +0.000 A 
ATOM      2  S   UNL     1       0.323   7.868  21.347  0.00  0.00    +0.000 S 
ATOM      3  C   UNL     1       0.562   9.155  20.270  0.00  0.00    +0.000 A 
ATOM      4  C   UNL     1       1.573   8.913  19.356  0.00  0.00    +0.000 A 
ATOM      5  C   UNL     1       2.191   7.631  19.575  0.00  0.00    +0.000 A 
ATOM      6  C   UNL     1       1.867   9.928  18.292  0.00  0.00    +0.000 C 
ATOM      7  C   UNL     1       1.237  11.295  18.643  0.00  0.00    +0.000 C 
ATOM      8  N   UNL     1      -0.164  11.186  19.100  0.00  0.00    +0.000 NA
ATOM      9  C   UNL     1      -0.240  10.419  20.359  0.00  0.00    +0.000 C 
ATOM     10  H   UNL     1      -0.691  10.666  18.398  0.00  0.00    +0.000 HD
ENDROOT
BRANCH   5  11
ATOM     11  C   UNL     1       3.283   7.032  18.701  0.00  0.00    +0.000 A 
ATOM     12  N   UNL     1       4.210   6.226  19.182  0.00  0.00    +0.000 NA
ATOM     13  C   UNL     1       5.119   5.875  18.188  0.00  0.00    +0.000 A 
ATOM     14  C   UNL     1       6.238   5.036  18.338  0.00  0.00    +0.000 A 
ATOM     15  C   UNL     1       7.059   4.797  17.235  0.00  0.00    +0.000 A 
ATOM     16  F   UNL     1       8.126   4.001  17.374  0.00  0.00    +0.000 F 
ATOM     17  C   UNL     1       6.800   5.365  15.995  0.00  0.00    +0.000 A 
ATOM     18  C   UNL     1       5.692   6.193  15.820  0.00  0.00    +0.000 A 
ATOM     19  C   UNL     1       4.868   6.431  16.934  0.00  0.00    +0.000 A 
ATOM     20  S   UNL     1       3.460   7.389  17.032  0.00  0.00    +0.000 S 
ENDBRANCH   5  11
BRANCH   1  23
ATOM     21  C   UNL     1       1.522   4.616  21.055  0.00  0.00    +0.000 C 
ATOM     22  O   UNL     1       0.605   4.371  20.275  0.00  0.00    +0.000 OA
ATOM     23  N   UNL     1       2.014   5.872  21.353  0.00  0.00    +0.000 N 
ATOM     24  H   UNL     1       2.956   5.888  21.753  0.00  0.00    +0.000 HD
BRANCH  21  25
ATOM     25  C   UNL     1       2.203   3.477  21.808  0.00  0.00    +0.000 C 
BRANCH  25  26
ATOM     26  C   UNL     1       3.172   2.613  20.995  0.00  0.00    +0.000 C 
BRANCH  26  27
ATOM     27  N   UNL     1       3.352   3.039  19.594  0.00  0.00    +0.000 NA
ATOM     28  H   UNL     1       2.786   3.875  19.423  0.00  0.00    +0.000 HD
BRANCH  27  29
ATOM     29  C   UNL     1       2.973   2.008  18.600  0.00  0.00    +0.000 C 
ATOM     30  C   UNL     1       4.130   1.009  18.485  0.00  0.00    +0.000 C 
BRANCH  29  32
ATOM     31  C   UNL     1       1.941   4.004  17.362  0.00  0.00    +0.000 C 
ATOM     32  C   UNL     1       2.621   2.651  17.246  0.00  0.00    +0.000 C 
ENDBRANCH  29  32
ENDBRANCH  27  29
ENDBRANCH  26  27
ENDBRANCH  25  26
ENDBRANCH  21  25
ENDBRANCH   1  23
TORSDOF 7
ENDMDL
MODEL 8
REMARK VINA RESULT:      -7.6      2.679      4.122
REMARK  Name = 
REMARK  9 active torsions:
REMARK  status: ('A' for Active; 'I' for Inactive)
REMARK    1  A    between atoms: C_1  and  C_2
REMARK    2  A    between atoms: C_2  and  C_3
REMARK    3  A    between atoms: C_3  and  C_4
REMARK    4  A    between atoms: C_3  and  N_5
REMARK    5  A    between atoms: N_5  and  C_6
REMARK    6  A    between atoms: C_6  and  C_7
REMARK    7  A    between atoms: C_7  and  C_8
REMARK    8  A    between atoms: N_10  and  C_11
REMARK    9  A    between atoms: C_15  and  C_16
REMARK                            x       y       z     vdW  Elec       q    Type
REMARK                         _______ _______ _______ _____ _____    ______ ____
ROOT
ATOM      1  C   UNL     1       3.870   5.197  17.873  0.00  0.00    +0.000 A 
ATOM      2  S   UNL     1       4.125   3.543  17.556  0.00  0.00    +0.000 S 
ATOM      3  C   UNL     1       2.829   3.106  18.557  0.00  0.00    +0.000 A 
ATOM      4  C   UNL     1       2.168   4.199  19.091  0.00  0.00    +0.000 A 
ATOM      5  C   UNL     1       2.774   5.439  18.681  0.00  0.00    +0.000 A 
ATOM      6  C   UNL     1       0.955   3.984  19.949  0.00  0.00    +0.000 C 
ATOM      7  C   UNL     1       0.875   2.519  20.433  0.00  0.00    +0.000 C 
ATOM      8  N   UNL     1       1.117   1.539  19.355  0.00  0.00    +0.000 NA
ATOM      9  C   UNL     1       2.493   1.671  18.834  0.00  0.00    +0.000 C 
ATOM     10  H   UNL     1       0.482   1.745  18.584  0.00  0.00    +0.000 HD
ENDROOT
BRANCH   5  11
ATOM     11  C   UNL     1       2.248   6.822  19.033  0.00  0.00    +0.000 A 
ATOM     12  N   UNL     1       2.262   7.823  18.174  0.00  0.00    +0.000 NA
ATOM     13  C   UNL     1       1.785   8.988  18.768  0.00  0.00    +0.000 A 
ATOM     14  C   UNL     1       1.661  10.249  18.156  0.00  0.00    +0.000 A 
ATOM     15  C   UNL     1       1.175  11.321  18.904  0.00  0.00    +0.000 A 
ATOM     16  F   UNL     1       1.058  12.522  18.326  0.00  0.00    +0.000 F 
ATOM     17  C   UNL     1       0.808  11.176  20.235  0.00  0.00    +0.000 A 
ATOM     18  C   UNL     1       0.915   9.935  20.861  0.00  0.00    +0.000 A 
ATOM     19  C   UNL     1       1.406   8.858  20.103  0.00  0.00    +0.000 A 
ATOM     20  S   UNL     1       1.649   7.240  20.586  0.00  0.00    +0.000 S 
ENDBRANCH   5  11
BRANCH   1  23
ATOM     21  C   UNL     1       6.087   6.128  18.071  0.00  0.00    +0.000 C 
ATOM     22  O   UNL     1       6.378   5.590  19.136  0.00  0.00    +0.000 OA
ATOM     23  N   UNL     1       4.862   6.049  17.435  0.00  0.00    +0.000 N 
ATOM     24  H   UNL     1       4.875   6.271  16.436  0.00  0.00    +0.000 HD
BRANCH  21  25
ATOM     25  C   UNL     1       7.117   6.992  17.350  0.00  0.00    +0.000 C 
BRANCH  25  26
ATOM     26  C   UNL     1       7.604   6.473  15.994  0.00  0.00    +0.000 C 
BRANCH  26  27
ATOM     27  N   UNL     1       6.558   5.846  15.162  0.00  0.00    +0.000 NA
ATOM     28  H   UNL     1       5.820   5.483  15.771  0.00  0.00    +0.000 HD
BRANCH  27  29
ATOM     29  C   UNL     1       7.052   4.736  14.315  0.00  0.00    +0.000 C 
ATOM     30  C   UNL     1       7.875   5.339  13.170  0.00  0.00    +0.000 C 
BRANCH  29  32
ATOM     31  C   UNL     1       6.069   3.362  12.383  0.00  0.00    +0.000 C 
ATOM     32  C   UNL     1       5.885   3.872  13.802  0.00  0.00    +0.000 C 
ENDBRANCH  29  32
ENDBRANCH  27  29
ENDBRANCH  26  27
ENDBRANCH  25  26
ENDBRANCH  21  25
ENDBRANCH   1  23
TORSDOF 7
ENDMDL
MODEL 9
REMARK VINA RESULT:      -7.0      7.369     11.825
REMARK  Name = 
REMARK  9 active torsions:
REMARK  status: ('A' for Active; 'I' for Inactive)
REMARK    1  A    between atoms: C_1  and  C_2
REMARK    2  A    between atoms: C_2  and  C_3
REMARK    3  A    between atoms: C_3  and  C_4
REMARK    4  A    between atoms: C_3  and  N_5
REMARK    5  A    between atoms: N_5  and  C_6
REMARK    6  A    between atoms: C_6  and  C_7
REMARK    7  A    between atoms: C_7  and  C_8
REMARK    8  A    between atoms: N_10  and  C_11
REMARK    9  A    between atoms: C_15  and  C_16
REMARK                            x       y       z     vdW  Elec       q    Type
REMARK                         _______ _______ _______ _____ _____    ______ ____
ROOT
ATOM      1  C   UNL     1      -4.430  13.597  21.613  0.00  0.00    +0.000 A 
ATOM      2  S   UNL     1      -5.321  14.844  22.358  0.00  0.00    +0.000 S 
ATOM      3  C   UNL     1      -4.086  15.109  23.489  0.00  0.00    +0.000 A 
ATOM      4  C   UNL     1      -2.982  14.302  23.281  0.00  0.00    +0.000 A 
ATOM      5  C   UNL     1      -3.176  13.412  22.166  0.00  0.00    +0.000 A 
ATOM      6  C   UNL     1      -1.775  14.459  24.159  0.00  0.00    +0.000 C 
ATOM      7  C   UNL     1      -2.123  15.248  25.440  0.00  0.00    +0.000 C 
ATOM      8  N   UNL     1      -2.922  16.462  25.173  0.00  0.00    +0.000 NA
ATOM      9  C   UNL     1      -4.236  16.103  24.603  0.00  0.00    +0.000 C 
ATOM     10  H   UNL     1      -2.433  17.021  24.474  0.00  0.00    +0.000 HD
ENDROOT
BRANCH   5  11
ATOM     11  C   UNL     1      -2.128  12.448  21.629  0.00  0.00    +0.000 A 
ATOM     12  N   UNL     1      -1.850  12.351  20.344  0.00  0.00    +0.000 NA
ATOM     13  C   UNL     1      -0.905  11.354  20.119  0.00  0.00    +0.000 A 
ATOM     14  C   UNL     1      -0.376  10.970  18.874  0.00  0.00    +0.000 A 
ATOM     15  C   UNL     1       0.559   9.935  18.825  0.00  0.00    +0.000 A 
ATOM     16  F   UNL     1       1.063   9.566  17.641  0.00  0.00    +0.000 F 
ATOM     17  C   UNL     1       0.980   9.276  19.971  0.00  0.00    +0.000 A 
ATOM     18  C   UNL     1       0.475   9.644  21.218  0.00  0.00    +0.000 A 
ATOM     19  C   UNL     1      -0.467  10.687  21.262  0.00  0.00    +0.000 A 
ATOM     20  S   UNL     1      -1.256  11.352  22.621  0.00  0.00    +0.000 S 
ENDBRANCH   5  11
BRANCH   1  23
ATOM     21  C   UNL     1      -6.200  12.056  21.054  0.00  0.00    +0.000 C 
ATOM     22  O   UNL     1      -6.569  11.832  22.204  0.00  0.00    +0.000 OA
ATOM     23  N   UNL     1      -5.121  12.838  20.691  0.00  0.00    +0.000 N 
ATOM     24  H   UNL     1      -5.136  13.182  19.727  0.00  0.00    +0.000 HD
BRANCH  21  25
ATOM     25  C   UNL     1      -6.944  11.425  19.881  0.00  0.00    +0.000 C 
BRANCH  25  26
ATOM     26  C   UNL     1      -6.182  11.360  18.554  0.00  0.00    +0.000 C 
BRANCH  26  27
ATOM     27  N   UNL     1      -4.935  10.572  18.596  0.00  0.00    +0.000 NA
ATOM     28  H   UNL     1      -4.522  10.649  19.529  0.00  0.00    +0.000 HD
BRANCH  27  29
ATOM     29  C   UNL     1      -3.924  10.996  17.601  0.00  0.00    +0.000 C 
ATOM     30  C   UNL     1      -4.647  11.740  16.473  0.00  0.00    +0.000 C 
BRANCH  29  32
ATOM     31  C   UNL     1      -2.935   9.771  15.575  0.00  0.00    +0.000 C 
ATOM     32  C   UNL     1      -3.121   9.789  17.082  0.00  0.00    +0.000 C 
ENDBRANCH  29  32
ENDBRANCH  27  29
ENDBRANCH  26  27
ENDBRANCH  25  26
ENDBRANCH  21  25
ENDBRANCH   1  23
TORSDOF 7
ENDMDL
