MODEL 1
REMARK VINA RESULT:      -7.5      0.000      0.000
REMARK  Name = 
REMARK  6 active torsions:
REMARK  status: ('A' for Active; 'I' for Inactive)
REMARK    1  A    between atoms: C_1  and  C_2
REMARK    2  A    between atoms: N_4  and  C_5
REMARK    3  A    between atoms: C_6  and  C_7
REMARK    4  A    between atoms: C_8  and  N_9
REMARK    5  A    between atoms: N_9  and  S_10
REMARK    6  A    between atoms: S_10  and  C_13
REMARK                            x       y       z     vdW  Elec       q    Type
REMARK                         _______ _______ _______ _____ _____    ______ ____
ROOT
ATOM      1  S   UNL     1       4.098   3.326  18.093  0.00  0.00    +0.000 S 
ATOM      2  O   UNL     1       4.662   3.634  19.394  0.00  0.00    +0.000 OA
ATOM      3  O   UNL     1       3.797   1.964  17.722  0.00  0.00    +0.000 OA
ENDROOT
BRANCH   1   4
ATOM      4  C   UNL     1       5.209   4.004  16.874  0.00  0.00    +0.000 A 
ATOM      5  C   UNL     1       6.317   4.764  17.282  0.00  0.00    +0.000 A 
ATOM      6  C   UNL     1       7.236   5.218  16.332  0.00  0.00    +0.000 A 
ATOM      7  C   UNL     1       7.057   4.907  14.983  0.00  0.00    +0.000 A 
ATOM      8  C   UNL     1       5.971   4.118  14.585  0.00  0.00    +0.000 A 
ATOM      9  C   UNL     1       5.039   3.676  15.524  0.00  0.00    +0.000 A 
ATOM     10  O   UNL     1       5.759   3.742  13.283  0.00  0.00    +0.000 OA
ATOM     11  C   UNL     1       6.938   3.917  12.486  0.00  0.00    +0.000 C 
ATOM     12  C   UNL     1       7.564   5.277  12.749  0.00  0.00    +0.000 C 
ATOM     13  O   UNL     1       8.000   5.387  14.109  0.00  0.00    +0.000 OA
ENDBRANCH   1   4
BRANCH   1  14
ATOM     14  N   UNL     1       2.712   4.256  17.963  0.00  0.00    +0.000 N 
ATOM     15  H   UNL     1       2.144   4.073  17.139  0.00  0.00    +0.000 HD
BRANCH  14  23
ATOM     16  C   UNL     1       1.355   3.515  20.801  0.00  0.00    +0.000 C 
ATOM     17  C   UNL     1       1.668   4.833  20.195  0.00  0.00    +0.000 A 
ATOM     18  N   UNL     1       1.422   5.946  20.898  0.00  0.00    +0.000 NA
ATOM     19  N   UNL     1       1.862   6.940  20.114  0.00  0.00    +0.000 N 
ATOM     20  C   UNL     1       1.708   8.302  20.568  0.00  0.00    +0.000 C 
ATOM     21  C   UNL     1       2.439   6.507  18.947  0.00  0.00    +0.000 A 
ATOM     22  C   UNL     1       3.079   7.409  17.959  0.00  0.00    +0.000 C 
ATOM     23  C   UNL     1       2.268   5.139  18.941  0.00  0.00    +0.000 A 
ENDBRANCH  14  23
ENDBRANCH   1  14
TORSDOF 3
ENDMDL
MODEL 2
REMARK VINA RESULT:      -7.1      2.740      5.983
REMARK  Name = 
REMARK  6 active torsions:
REMARK  status: ('A' for Active; 'I' for Inactive)
REMARK    1  A    between atoms: C_1  and  C_2
REMARK    2  A    between atoms: N_4  and  C_5
REMARK    3  A    between atoms: C_6  and  C_7
REMARK    4  A    between atoms: C_8  and  N_9
REMARK    5  A    between atoms: N_9  and  S_10
REMARK    6  A    between atoms: S_10  and  C_13
REMARK                            x       y       z     vdW  Elec       q    Type
REMARK                         _______ _______ _______ _____ _____    ______ ____
ROOT
ATOM      1  S   UNL     1       3.275   3.066  17.702  0.00  0.00    +0.000 S 
ATOM      2  O   UNL     1       2.785   3.144  16.338  0.00  0.00    +0.000 OA
ATOM      3  O   UNL     1       2.935   1.944  18.546  0.00  0.00    +0.000 OA
ENDROOT
BRANCH   1   4
ATOM      4  C   UNL     1       2.755   4.560  18.525  0.00  0.00    +0.000 A 
ATOM      5  C   UNL     1       2.712   4.608  19.927  0.00  0.00    +0.000 A 
ATOM      6  C   UNL     1       2.392   5.807  20.572  0.00  0.00    +0.000 A 
ATOM      7  C   UNL     1       2.127   6.954  19.822  0.00  0.00    +0.000 A 
ATOM      8  C   UNL     1       2.206   6.910  18.424  0.00  0.00    +0.000 A 
ATOM      9  C   UNL     1       2.507   5.714  17.773  0.00  0.00    +0.000 A 
ATOM     10  O   UNL     1       1.997   8.009  17.630  0.00  0.00    +0.000 OA
ATOM     11  C   UNL     1       2.073   9.225  18.385  0.00  0.00    +0.000 C 
ATOM     12  C   UNL     1       1.273   9.107  19.672  0.00  0.00    +0.000 C 
ATOM     13  O   UNL     1       1.820   8.093  20.523  0.00  0.00    +0.000 OA
ENDBRANCH   1   4
BRANCH   1  14
ATOM     14  N   UNL     1       4.940   3.199  17.599  0.00  0.00    +0.000 N 
ATOM     15  H   UNL     1       5.456   2.342  17.788  0.00  0.00    +0.000 HD
BRANCH  14  23
ATOM     16  C   UNL     1       5.277   4.262  14.566  0.00  0.00    +0.000 C 
ATOM     17  C   UNL     1       5.769   4.826  15.847  0.00  0.00    +0.000 A 
ATOM     18  N   UNL     1       6.428   5.991  15.833  0.00  0.00    +0.000 NA
ATOM     19  N   UNL     1       6.678   6.250  17.124  0.00  0.00    +0.000 N 
ATOM     20  C   UNL     1       7.423   7.439  17.462  0.00  0.00    +0.000 C 
ATOM     21  C   UNL     1       6.152   5.319  17.984  0.00  0.00    +0.000 A 
ATOM     22  C   UNL     1       6.217   5.431  19.461  0.00  0.00    +0.000 C 
ATOM     23  C   UNL     1       5.609   4.342  17.176  0.00  0.00    +0.000 A 
ENDBRANCH  14  23
ENDBRANCH   1  14
TORSDOF 3
ENDMDL
MODEL 3
REMARK VINA RESULT:      -7.0      0.549      1.814
REMARK  Name = 
REMARK  6 active torsions:
REMARK  status: ('A' for Active; 'I' for Inactive)
REMARK    1  A    between atoms: C_1  and  C_2
REMARK    2  A    between atoms: N_4  and  C_5
REMARK    3  A    between atoms: C_6  and  C_7
REMARK    4  A    between atoms: C_8  and  N_9
REMARK    5  A    between atoms: N_9  and  S_10
REMARK    6  A    between atoms: S_10  and  C_13
REMARK                            x       y       z     vdW  Elec       q    Type
REMARK                         _______ _______ _______ _____ _____    ______ ____
ROOT
ATOM      1  S   UNL     1       4.261   3.400  18.084  0.00  0.00    +0.000 S 
ATOM      2  O   UNL     1       4.847   3.761  19.362  0.00  0.00    +0.000 OA
ATOM      3  O   UNL     1       3.975   2.020  17.766  0.00  0.00    +0.000 OA
ENDROOT
BRANCH   1   4
ATOM      4  C   UNL     1       5.335   4.053  16.819  0.00  0.00    +0.000 A 
ATOM      5  C   UNL     1       6.454   4.821  17.180  0.00  0.00    +0.000 A 
ATOM      6  C   UNL     1       7.345   5.256  16.193  0.00  0.00    +0.000 A 
ATOM      7  C   UNL     1       7.126   4.917  14.857  0.00  0.00    +0.000 A 
ATOM      8  C   UNL     1       6.028   4.121  14.507  0.00  0.00    +0.000 A 
ATOM      9  C   UNL     1       5.125   3.698  15.482  0.00  0.00    +0.000 A 
ATOM     10  O   UNL     1       5.779   3.719  13.220  0.00  0.00    +0.000 OA
ATOM     11  C   UNL     1       6.934   3.879  12.385  0.00  0.00    +0.000 C 
ATOM     12  C   UNL     1       7.566   5.243  12.602  0.00  0.00    +0.000 C 
ATOM     13  O   UNL     1       8.042   5.380  13.946  0.00  0.00    +0.000 OA
ENDBRANCH   1   4
BRANCH   1  14
ATOM     14  N   UNL     1       2.857   4.302  17.952  0.00  0.00    +0.000 N 
ATOM     15  H   UNL     1       2.127   3.885  17.377  0.00  0.00    +0.000 HD
BRANCH  14  23
ATOM     16  C   UNL     1       3.662   7.305  17.070  0.00  0.00    +0.000 C 
ATOM     17  C   UNL     1       2.962   6.809  18.280  0.00  0.00    +0.000 A 
ATOM     18  N   UNL     1       2.515   7.693  19.180  0.00  0.00    +0.000 NA
ATOM     19  N   UNL     1       1.891   6.947  20.102  0.00  0.00    +0.000 N 
ATOM     20  C   UNL     1       1.316   7.602  21.253  0.00  0.00    +0.000 C 
ATOM     21  C   UNL     1       1.866   5.608  19.802  0.00  0.00    +0.000 A 
ATOM     22  C   UNL     1       1.159   4.592  20.618  0.00  0.00    +0.000 C 
ATOM     23  C   UNL     1       2.615   5.479  18.650  0.00  0.00    +0.000 A 
ENDBRANCH  14  23
ENDBRANCH   1  14
TORSDOF 3
ENDMDL
MODEL 4
REMARK VINA RESULT:      -6.9      2.154      3.307
REMARK  Name = 
REMARK  6 active torsions:
REMARK  status: ('A' for Active; 'I' for Inactive)
REMARK    1  A    between atoms: C_1  and  C_2
REMARK    2  A    between atoms: N_4  and  C_5
REMARK    3  A    between atoms: C_6  and  C_7
REMARK    4  A    between atoms: C_8  and  N_9
REMARK    5  A    between atoms: N_9  and  S_10
REMARK    6  A    between atoms: S_10  and  C_13
REMARK                            x       y       z     vdW  Elec       q    Type
REMARK                         _______ _______ _______ _____ _____    ______ ____
ROOT
ATOM      1  S   UNL     1       2.495   5.311  19.736  0.00  0.00    +0.000 S 
ATOM      2  O   UNL     1       2.650   4.380  20.839  0.00  0.00    +0.000 OA
ATOM      3  O   UNL     1       1.360   5.219  18.847  0.00  0.00    +0.000 OA
ENDROOT
BRANCH   1   4
ATOM      4  C   UNL     1       3.981   5.206  18.757  0.00  0.00    +0.000 A 
ATOM      5  C   UNL     1       5.236   5.325  19.376  0.00  0.00    +0.000 A 
ATOM      6  C   UNL     1       6.401   5.153  18.621  0.00  0.00    +0.000 A 
ATOM      7  C   UNL     1       6.314   4.854  17.261  0.00  0.00    +0.000 A 
ATOM      8  C   UNL     1       5.060   4.702  16.656  0.00  0.00    +0.000 A 
ATOM      9  C   UNL     1       3.893   4.889  17.397  0.00  0.00    +0.000 A 
ATOM     10  O   UNL     1       4.905   4.368  15.335  0.00  0.00    +0.000 OA
ATOM     11  C   UNL     1       6.116   3.839  14.780  0.00  0.00    +0.000 C 
ATOM     12  C   UNL     1       7.304   4.703  15.168  0.00  0.00    +0.000 C 
ATOM     13  O   UNL     1       7.499   4.699  16.587  0.00  0.00    +0.000 OA
ENDBRANCH   1   4
BRANCH   1  14
ATOM     14  N   UNL     1       2.544   6.840  20.416  0.00  0.00    +0.000 N 
ATOM     15  H   UNL     1       3.192   6.948  21.193  0.00  0.00    +0.000 HD
BRANCH  14  23
ATOM     16  C   UNL     1       2.913   8.227  17.520  0.00  0.00    +0.000 C 
ATOM     17  C   UNL     1       2.007   8.566  18.645  0.00  0.00    +0.000 A 
ATOM     18  N   UNL     1       1.133   9.570  18.495  0.00  0.00    +0.000 NA
ATOM     19  N   UNL     1       0.437   9.581  19.640  0.00  0.00    +0.000 N 
ATOM     20  C   UNL     1      -0.582  10.587  19.824  0.00  0.00    +0.000 C 
ATOM     21  C   UNL     1       0.790   8.580  20.510  0.00  0.00    +0.000 A 
ATOM     22  C   UNL     1       0.106   8.328  21.801  0.00  0.00    +0.000 C 
ATOM     23  C   UNL     1       1.858   7.941  19.915  0.00  0.00    +0.000 A 
ENDBRANCH  14  23
ENDBRANCH   1  14
TORSDOF 3
ENDMDL
MODEL 5
REMARK VINA RESULT:      -6.8      2.450      4.076
REMARK  Name = 
REMARK  6 active torsions:
REMARK  status: ('A' for Active; 'I' for Inactive)
REMARK    1  A    between atoms: C_1  and  C_2
REMARK    2  A    between atoms: N_4  and  C_5
REMARK    3  A    between atoms: C_6  and  C_7
REMARK    4  A    between atoms: C_8  and  N_9
REMARK    5  A    between atoms: N_9  and  S_10
REMARK    6  A    between atoms: S_10  and  C_13
REMARK                            x       y       z     vdW  Elec       q    Type
REMARK                         _______ _______ _______ _____ _____    ______ ____
ROOT
ATOM      1  S   UNL     1       1.958   5.243  20.529  0.00  0.00    +0.000 S 
ATOM      2  O   UNL     1       2.315   4.468  21.703  0.00  0.00    +0.000 OA
ATOM      3  O   UNL     1       0.641   5.136  19.946  0.00  0.00    +0.000 OA
ENDROOT
BRANCH   1   4
ATOM      4  C   UNL     1       3.159   4.857  19.270  0.00  0.00    +0.000 A 
ATOM      5  C   UNL     1       2.765   4.159  18.117  0.00  0.00    +0.000 A 
ATOM      6  C   UNL     1       3.688   3.937  17.090  0.00  0.00    +0.000 A 
ATOM      7  C   UNL     1       4.993   4.418  17.208  0.00  0.00    +0.000 A 
ATOM      8  C   UNL     1       5.372   5.144  18.344  0.00  0.00    +0.000 A 
ATOM      9  C   UNL     1       4.462   5.355  19.381  0.00  0.00    +0.000 A 
ATOM     10  O   UNL     1       6.624   5.679  18.505  0.00  0.00    +0.000 OA
ATOM     11  C   UNL     1       7.336   5.735  17.261  0.00  0.00    +0.000 C 
ATOM     12  C   UNL     1       7.207   4.420  16.511  0.00  0.00    +0.000 C 
ATOM     13  O   UNL     1       5.842   4.162  16.161  0.00  0.00    +0.000 OA
ENDBRANCH   1   4
BRANCH   1  14
ATOM     14  N   UNL     1       2.260   6.841  20.926  0.00  0.00    +0.000 N 
ATOM     15  H   UNL     1       3.015   6.986  21.593  0.00  0.00    +0.000 HD
BRANCH  14  23
ATOM     16  C   UNL     1       2.737   7.971  17.936  0.00  0.00    +0.000 C 
ATOM     17  C   UNL     1       1.831   8.441  19.012  0.00  0.00    +0.000 A 
ATOM     18  N   UNL     1       1.007   9.467  18.766  0.00  0.00    +0.000 NA
ATOM     19  N   UNL     1       0.295   9.603  19.894  0.00  0.00    +0.000 N 
ATOM     20  C   UNL     1      -0.678  10.666  19.978  0.00  0.00    +0.000 C 
ATOM     21  C   UNL     1       0.589   8.661  20.847  0.00  0.00    +0.000 A 
ATOM     22  C   UNL     1      -0.125   8.546  22.142  0.00  0.00    +0.000 C 
ATOM     23  C   UNL     1       1.634   7.928  20.326  0.00  0.00    +0.000 A 
ENDBRANCH  14  23
ENDBRANCH   1  14
TORSDOF 3
ENDMDL
MODEL 6
REMARK VINA RESULT:      -6.8      3.238      7.110
REMARK  Name = 
REMARK  6 active torsions:
REMARK  status: ('A' for Active; 'I' for Inactive)
REMARK    1  A    between atoms: C_1  and  C_2
REMARK    2  A    between atoms: N_4  and  C_5
REMARK    3  A    between atoms: C_6  and  C_7
REMARK    4  A    between atoms: C_8  and  N_9
REMARK    5  A    between atoms: N_9  and  S_10
REMARK    6  A    between atoms: S_10  and  C_13
REMARK                            x       y       z     vdW  Elec       q    Type
REMARK                         _______ _______ _______ _____ _____    ______ ____
ROOT
ATOM      1  S   UNL     1       6.077   6.671  16.285  0.00  0.00    +0.000 S 
ATOM      2  O   UNL     1       6.928   7.542  17.075  0.00  0.00    +0.000 OA
ATOM      3  O   UNL     1       5.244   7.207  15.235  0.00  0.00    +0.000 OA
ENDROOT
BRANCH   1   4
ATOM      4  C   UNL     1       5.034   5.789  17.430  0.00  0.00    +0.000 A 
ATOM      5  C   UNL     1       3.657   6.061  17.475  0.00  0.00    +0.000 A 
ATOM      6  C   UNL     1       2.827   5.306  18.309  0.00  0.00    +0.000 A 
ATOM      7  C   UNL     1       3.365   4.278  19.085  0.00  0.00    +0.000 A 
ATOM      8  C   UNL     1       4.733   3.987  19.010  0.00  0.00    +0.000 A 
ATOM      9  C   UNL     1       5.571   4.747  18.194  0.00  0.00    +0.000 A 
ATOM     10  O   UNL     1       5.318   2.965  19.714  0.00  0.00    +0.000 OA
ATOM     11  C   UNL     1       4.342   2.037  20.204  0.00  0.00    +0.000 C 
ATOM     12  C   UNL     1       3.177   2.774  20.843  0.00  0.00    +0.000 C 
ATOM     13  O   UNL     1       2.489   3.580  19.878  0.00  0.00    +0.000 OA
ENDBRANCH   1   4
BRANCH   1  14
ATOM     14  N   UNL     1       7.088   5.499  15.646  0.00  0.00    +0.000 N 
ATOM     15  H   UNL     1       7.819   5.169  16.273  0.00  0.00    +0.000 HD
BRANCH  14  23
ATOM     16  C   UNL     1       8.853   5.967  12.979  0.00  0.00    +0.000 C 
ATOM     17  C   UNL     1       7.674   5.098  13.217  0.00  0.00    +0.000 A 
ATOM     18  N   UNL     1       7.237   4.311  12.226  0.00  0.00    +0.000 NA
ATOM     19  N   UNL     1       6.220   3.625  12.768  0.00  0.00    +0.000 N 
ATOM     20  C   UNL     1       5.490   2.695  11.939  0.00  0.00    +0.000 C 
ATOM     21  C   UNL     1       6.017   3.898  14.097  0.00  0.00    +0.000 A 
ATOM     22  C   UNL     1       5.014   3.203  14.939  0.00  0.00    +0.000 C 
ATOM     23  C   UNL     1       6.909   4.905  14.402  0.00  0.00    +0.000 A 
ENDBRANCH  14  23
ENDBRANCH   1  14
TORSDOF 3
ENDMDL
MODEL 7
REMARK VINA RESULT:      -6.7      3.337      7.133
REMARK  Name = 
REMARK  6 active torsions:
REMARK  status: ('A' for Active; 'I' for Inactive)
REMARK    1  A    between atoms: C_1  and  C_2
REMARK    2  A    between atoms: N_4  and  C_5
REMARK    3  A    between atoms: C_6  and  C_7
REMARK    4  A    between atoms: C_8  and  N_9
REMARK    5  A    between atoms: N_9  and  S_10
REMARK    6  A    between atoms: S_10  and  C_13
REMARK                            x       y       z     vdW  Elec       q    Type
REMARK                         _______ _______ _______ _____ _____    ______ ____
ROOT
ATOM      1  S   UNL     1       6.146   6.516  16.256  0.00  0.00    +0.000 S 
ATOM      2  O   UNL     1       6.929   7.443  17.051  0.00  0.00    +0.000 OA
ATOM      3  O   UNL     1       5.179   6.999  15.298  0.00  0.00    +0.000 OA
ENDROOT
BRANCH   1   4
ATOM      4  C   UNL     1       5.306   5.435  17.399  0.00  0.00    +0.000 A 
ATOM      5  C   UNL     1       6.040   4.747  18.379  0.00  0.00    +0.000 A 
ATOM      6  C   UNL     1       5.371   3.971  19.331  0.00  0.00    +0.000 A 
ATOM      7  C   UNL     1       3.978   3.891  19.311  0.00  0.00    +0.000 A 
ATOM      8  C   UNL     1       3.248   4.606  18.353  0.00  0.00    +0.000 A 
ATOM      9  C   UNL     1       3.909   5.368  17.390  0.00  0.00    +0.000 A 
ATOM     10  O   UNL     1       1.878   4.603  18.304  0.00  0.00    +0.000 OA
ATOM     11  C   UNL     1       1.308   4.119  19.527  0.00  0.00    +0.000 C 
ATOM     12  C   UNL     1       2.014   2.852  19.981  0.00  0.00    +0.000 C 
ATOM     13  O   UNL     1       3.392   3.110  20.276  0.00  0.00    +0.000 OA
ENDBRANCH   1   4
BRANCH   1  14
ATOM     14  N   UNL     1       7.253   5.530  15.479  0.00  0.00    +0.000 N 
ATOM     15  H   UNL     1       8.093   5.317  16.012  0.00  0.00    +0.000 HD
BRANCH  14  23
ATOM     16  C   UNL     1       8.847   6.070  12.719  0.00  0.00    +0.000 C 
ATOM     17  C   UNL     1       7.721   5.151  13.021  0.00  0.00    +0.000 A 
ATOM     18  N   UNL     1       7.266   4.343  12.055  0.00  0.00    +0.000 NA
ATOM     19  N   UNL     1       6.312   3.614  12.651  0.00  0.00    +0.000 N 
ATOM     20  C   UNL     1       5.580   2.651  11.862  0.00  0.00    +0.000 C 
ATOM     21  C   UNL     1       6.171   3.880  13.989  0.00  0.00    +0.000 A 
ATOM     22  C   UNL     1       5.247   3.143  14.884  0.00  0.00    +0.000 C 
ATOM     23  C   UNL     1       7.032   4.926  14.246  0.00  0.00    +0.000 A 
ENDBRANCH  14  23
ENDBRANCH   1  14
TORSDOF 3
ENDMDL
MODEL 8
REMARK VINA RESULT:      -6.7      4.559      6.945
REMARK  Name = 
REMARK  6 active torsions:
REMARK  status: ('A' for Active; 'I' for Inactive)
REMARK    1  A    between atoms: C_1  and  C_2
REMARK    2  A    between atoms: N_4  and  C_5
REMARK    3  A    between atoms: C_6  and  C_7
REMARK    4  A    between atoms: C_8  and  N_9
REMARK    5  A    between atoms: N_9  and  S_10
REMARK    6  A    between atoms: S_10  and  C_13
REMARK                            x       y       z     vdW  Elec       q    Type
REMARK                         _______ _______ _______ _____ _____    ______ ____
ROOT
ATOM      1  S   UNL     1       0.758   9.129  21.370  0.00  0.00    +0.000 S 
ATOM      2  O   UNL     1       1.693   9.324  22.462  0.00  0.00    +0.000 OA
ATOM      3  O   UNL     1      -0.557   8.583  21.613  0.00  0.00    +0.000 OA
ENDROOT
BRANCH   1   4
ATOM      4  C   UNL     1       1.575   8.100  20.165  0.00  0.00    +0.000 A 
ATOM      5  C   UNL     1       1.897   8.622  18.902  0.00  0.00    +0.000 A 
ATOM      6  C   UNL     1       2.618   7.843  17.992  0.00  0.00    +0.000 A 
ATOM      7  C   UNL     1       3.025   6.555  18.344  0.00  0.00    +0.000 A 
ATOM      8  C   UNL     1       2.732   6.052  19.617  0.00  0.00    +0.000 A 
ATOM      9  C   UNL     1       1.998   6.816  20.525  0.00  0.00    +0.000 A 
ATOM     10  O   UNL     1       3.137   4.812  20.040  0.00  0.00    +0.000 OA
ATOM     11  C   UNL     1       4.175   4.284  19.205  0.00  0.00    +0.000 C 
ATOM     12  C   UNL     1       3.824   4.462  17.738  0.00  0.00    +0.000 C 
ATOM     13  O   UNL     1       3.728   5.851  17.399  0.00  0.00    +0.000 OA
ENDBRANCH   1   4
BRANCH   1  14
ATOM     14  N   UNL     1       0.610  10.619  20.621  0.00  0.00    +0.000 N 
ATOM     15  H   UNL     1       1.480  11.017  20.274  0.00  0.00    +0.000 HD
BRANCH  14  23
ATOM     16  C   UNL     1      -1.224  10.333  17.975  0.00  0.00    +0.000 C 
ATOM     17  C   UNL     1      -1.424  11.136  19.206  0.00  0.00    +0.000 A 
ATOM     18  N   UNL     1      -2.549  11.850  19.341  0.00  0.00    +0.000 NA
ATOM     19  N   UNL     1      -2.453  12.400  20.559  0.00  0.00    +0.000 N 
ATOM     20  C   UNL     1      -3.506  13.277  21.010  0.00  0.00    +0.000 C 
ATOM     21  C   UNL     1      -1.327  12.022  21.247  0.00  0.00    +0.000 A 
ATOM     22  C   UNL     1      -1.040  12.424  22.645  0.00  0.00    +0.000 C 
ATOM     23  C   UNL     1      -0.603  11.248  20.364  0.00  0.00    +0.000 A 
ENDBRANCH  14  23
ENDBRANCH   1  14
TORSDOF 3
ENDMDL
MODEL 9
REMARK VINA RESULT:      -6.7      4.416      6.750
REMARK  Name = 
REMARK  6 active torsions:
REMARK  status: ('A' for Active; 'I' for Inactive)
REMARK    1  A    between atoms: C_1  and  C_2
REMARK    2  A    between atoms: N_4  and  C_5
REMARK    3  A    between atoms: C_6  and  C_7
REMARK    4  A    between atoms: C_8  and  N_9
REMARK    5  A    between atoms: N_9  and  S_10
REMARK    6  A    between atoms: S_10  and  C_13
REMARK                            x       y       z     vdW  Elec       q    Type
REMARK                         _______ _______ _______ _____ _____    ______ ____
ROOT
ATOM      1  S   UNL     1       0.843   8.953  21.253  0.00  0.00    +0.000 S 
ATOM      2  O   UNL     1       1.792   9.254  22.309  0.00  0.00    +0.000 OA
ATOM      3  O   UNL     1      -0.448   8.384  21.560  0.00  0.00    +0.000 OA
ENDROOT
BRANCH   1   4
ATOM      4  C   UNL     1       1.673   7.869  20.106  0.00  0.00    +0.000 A 
ATOM      5  C   UNL     1       2.074   8.353  18.851  0.00  0.00    +0.000 A 
ATOM      6  C   UNL     1       2.804   7.528  17.989  0.00  0.00    +0.000 A 
ATOM      7  C   UNL     1       3.140   6.232  18.382  0.00  0.00    +0.000 A 
ATOM      8  C   UNL     1       2.768   5.765  19.649  0.00  0.00    +0.000 A 
ATOM      9  C   UNL     1       2.025   6.576  20.507  0.00  0.00    +0.000 A 
ATOM     10  O   UNL     1       3.101   4.518  20.112  0.00  0.00    +0.000 OA
ATOM     11  C   UNL     1       4.154   3.932  19.336  0.00  0.00    +0.000 C 
ATOM     12  C   UNL     1       3.879   4.097  17.850  0.00  0.00    +0.000 C 
ATOM     13  O   UNL     1       3.857   5.482  17.484  0.00  0.00    +0.000 OA
ENDBRANCH   1   4
BRANCH   1  14
ATOM     14  N   UNL     1       0.633  10.382  20.405  0.00  0.00    +0.000 N 
ATOM     15  H   UNL     1       1.476  10.761  19.979  0.00  0.00    +0.000 HD
BRANCH  14  23
ATOM     16  C   UNL     1      -0.902  12.506  22.297  0.00  0.00    +0.000 C 
ATOM     17  C   UNL     1      -1.293  11.915  20.993  0.00  0.00    +0.000 A 
ATOM     18  N   UNL     1      -2.434  12.312  20.416  0.00  0.00    +0.000 NA
ATOM     19  N   UNL     1      -2.467  11.651  19.251  0.00  0.00    +0.000 N 
ATOM     20  C   UNL     1      -3.608  11.828  18.384  0.00  0.00    +0.000 C 
ATOM     21  C   UNL     1      -1.356  10.878  19.024  0.00  0.00    +0.000 A 
ATOM     22  C   UNL     1      -1.117  10.124  17.769  0.00  0.00    +0.000 C 
ATOM     23  C   UNL     1      -0.601  10.979  20.174  0.00  0.00    +0.000 A 
ENDBRANCH  14  23
ENDBRANCH   1  14
TORSDOF 3
ENDMDL
