MODEL 1
REMARK VINA RESULT:      -8.8      0.000      0.000
REMARK  Name = 
REMARK  9 active torsions:
REMARK  status: ('A' for Active; 'I' for Inactive)
REMARK    1  A    between atoms: C_1  and  C_2
REMARK    2  A    between atoms: N_4  and  C_5
REMARK    3  A    between atoms: C_5  and  C_6
REMARK    4  A    between atoms: C_5  and  C_7
REMARK    5  A    between atoms: C_10  and  C_11
REMARK    6  A    between atoms: C_14  and  O_15
REMARK    7  A    between atoms: O_15  and  C_16
REMARK    8  A    between atoms: C_19  and  C_20
REMARK    9  A    between atoms: C_21  and  O_22
REMARK                            x       y       z     vdW  Elec       q    Type
REMARK                         _______ _______ _______ _____ _____    ______ ____
ROOT
ATOM      1  C   UNL     1       1.481   8.784  19.921  0.00  0.00    +0.000 A 
ATOM      2  C   UNL     1       1.211   9.031  21.278  0.00  0.00    +0.000 A 
ATOM      3  C   UNL     1       0.724  10.267  21.707  0.00  0.00    +0.000 A 
ATOM      4  C   UNL     1       0.510  11.292  20.785  0.00  0.00    +0.000 A 
ATOM      5  C   UNL     1       0.718  11.052  19.431  0.00  0.00    +0.000 A 
ATOM      6  C   UNL     1       1.214   9.817  19.006  0.00  0.00    +0.000 A 
ENDROOT
BRANCH   1  10
ATOM      7  C   UNL     1       3.249   5.034  18.711  0.00  0.00    +0.000 A 
ATOM      8  C   UNL     1       2.593   5.149  19.945  0.00  0.00    +0.000 A 
ATOM      9  C   UNL     1       2.002   6.359  20.314  0.00  0.00    +0.000 A 
ATOM     10  C   UNL     1       2.045   7.492  19.489  0.00  0.00    +0.000 A 
ATOM     11  C   UNL     1       2.674   7.351  18.239  0.00  0.00    +0.000 A 
ATOM     12  C   UNL     1       3.266   6.142  17.859  0.00  0.00    +0.000 A 
BRANCH   7  13
ATOM     13  C   UNL     1       3.922   3.728  18.338  0.00  0.00    +0.000 C 
ATOM     14  C   UNL     1       4.017   2.796  19.548  0.00  0.00    +0.000 C 
BRANCH  13  18
ATOM     15  C   UNL     1       7.506   4.742  17.674  0.00  0.00    +0.000 C 
ATOM     16  C   UNL     1       6.249   4.559  18.475  0.00  0.00    +0.000 C 
ATOM     17  O   UNL     1       6.155   4.892  19.652  0.00  0.00    +0.000 OA
ATOM     18  N   UNL     1       5.229   3.992  17.755  0.00  0.00    +0.000 N 
ATOM     19  H   UNL     1       5.384   3.728  16.793  0.00  0.00    +0.000 HD
ENDBRANCH  13  18
ENDBRANCH   7  13
ENDBRANCH   1  10
BRANCH   4  20
ATOM     20  O   UNL     1       0.012  12.459  21.300  0.00  0.00    +0.000 OA
BRANCH  20  21
ATOM     21  C   UNL     1      -1.291  12.537  21.727  0.00  0.00    +0.000 A 
ATOM     22  C   UNL     1      -1.454  13.040  23.011  0.00  0.00    +0.000 A 
ATOM     23  C   UNL     1      -2.736  13.274  23.510  0.00  0.00    +0.000 A 
ATOM     24  C   UNL     1      -3.892  13.108  22.712  0.00  0.00    +0.000 A 
ATOM     25  C   UNL     1      -3.704  12.558  21.436  0.00  0.00    +0.000 A 
ATOM     26  C   UNL     1      -2.417  12.275  20.946  0.00  0.00    +0.000 A 
BRANCH  24  27
ATOM     27  C   UNL     1      -5.182  13.716  23.171  0.00  0.00    +0.000 A 
ATOM     28  C   UNL     1      -6.005  12.928  24.026  0.00  0.00    +0.000 A 
ATOM     29  C   UNL     1      -7.283  13.305  24.397  0.00  0.00    +0.000 A 
ATOM     30  C   UNL     1      -7.761  14.535  23.994  0.00  0.00    +0.000 A 
ATOM     31  C   UNL     1      -6.961  15.408  23.236  0.00  0.00    +0.000 A 
ATOM     32  C   UNL     1      -5.674  15.012  22.807  0.00  0.00    +0.000 A 
ATOM     33  C   UNL     1      -4.847  15.975  21.988  0.00  0.00    +0.000 C 
ATOM     34  C   UNL     1      -5.430  17.345  21.621  0.00  0.00    +0.000 C 
ATOM     35  C   UNL     1      -6.710  17.798  22.292  0.00  0.00    +0.000 C 
ATOM     36  C   UNL     1      -7.594  16.726  22.895  0.00  0.00    +0.000 C 
BRANCH  28  37
ATOM     37  O   UNL     1      -5.592  11.740  24.583  0.00  0.00    +0.000 OA
ATOM     38  H   UNL     1      -4.972  11.948  25.304  0.00  0.00    +0.000 HD
ENDBRANCH  28  37
ENDBRANCH  24  27
ENDBRANCH  20  21
ENDBRANCH   4  20
TORSDOF 7
ENDMDL
MODEL 2
REMARK VINA RESULT:      -8.8      3.911      5.465
REMARK  Name = 
REMARK  9 active torsions:
REMARK  status: ('A' for Active; 'I' for Inactive)
REMARK    1  A    between atoms: C_1  and  C_2
REMARK    2  A    between atoms: N_4  and  C_5
REMARK    3  A    between atoms: C_5  and  C_6
REMARK    4  A    between atoms: C_5  and  C_7
REMARK    5  A    between atoms: C_10  and  C_11
REMARK    6  A    between atoms: C_14  and  O_15
REMARK    7  A    between atoms: O_15  and  C_16
REMARK    8  A    between atoms: C_19  and  C_20
REMARK    9  A    between atoms: C_21  and  O_22
REMARK                            x       y       z     vdW  Elec       q    Type
REMARK                         _______ _______ _______ _____ _____    ______ ____
ROOT
ATOM      1  C   UNL     1       2.449   7.641  18.857  0.00  0.00    +0.000 A 
ATOM      2  C   UNL     1       2.070   7.382  20.186  0.00  0.00    +0.000 A 
ATOM      3  C   UNL     1       1.116   8.169  20.834  0.00  0.00    +0.000 A 
ATOM      4  C   UNL     1       0.528   9.245  20.167  0.00  0.00    +0.000 A 
ATOM      5  C   UNL     1       0.848   9.485  18.835  0.00  0.00    +0.000 A 
ATOM      6  C   UNL     1       1.810   8.701  18.193  0.00  0.00    +0.000 A 
ENDROOT
BRANCH   1  10
ATOM      7  C   UNL     1       5.605   5.321  17.036  0.00  0.00    +0.000 A 
ATOM      8  C   UNL     1       4.762   4.748  18.000  0.00  0.00    +0.000 A 
ATOM      9  C   UNL     1       3.728   5.500  18.562  0.00  0.00    +0.000 A 
ATOM     10  C   UNL     1       3.498   6.836  18.203  0.00  0.00    +0.000 A 
ATOM     11  C   UNL     1       4.327   7.385  17.209  0.00  0.00    +0.000 A 
ATOM     12  C   UNL     1       5.363   6.638  16.637  0.00  0.00    +0.000 A 
BRANCH   7  13
ATOM     13  C   UNL     1       6.748   4.508  16.462  0.00  0.00    +0.000 C 
ATOM     14  C   UNL     1       7.862   4.323  17.495  0.00  0.00    +0.000 C 
BRANCH  13  18
ATOM     15  C   UNL     1       7.605   5.411  12.889  0.00  0.00    +0.000 C 
ATOM     16  C   UNL     1       7.002   4.602  14.002  0.00  0.00    +0.000 C 
ATOM     17  O   UNL     1       6.370   3.569  13.808  0.00  0.00    +0.000 OA
ATOM     18  N   UNL     1       7.239   5.134  15.244  0.00  0.00    +0.000 N 
ATOM     19  H   UNL     1       7.756   5.999  15.326  0.00  0.00    +0.000 HD
ENDBRANCH  13  18
ENDBRANCH   7  13
ENDBRANCH   1  10
BRANCH   4  20
ATOM     20  O   UNL     1      -0.410   9.942  20.879  0.00  0.00    +0.000 OA
BRANCH  20  21
ATOM     21  C   UNL     1      -0.680  11.256  20.585  0.00  0.00    +0.000 A 
ATOM     22  C   UNL     1       0.079  12.179  21.294  0.00  0.00    +0.000 A 
ATOM     23  C   UNL     1      -0.025  13.539  20.999  0.00  0.00    +0.000 A 
ATOM     24  C   UNL     1      -0.811  14.015  19.924  0.00  0.00    +0.000 A 
ATOM     25  C   UNL     1      -1.600  13.070  19.254  0.00  0.00    +0.000 A 
ATOM     26  C   UNL     1      -1.536  11.703  19.578  0.00  0.00    +0.000 A 
BRANCH  24  27
ATOM     27  C   UNL     1      -0.596  15.413  19.433  0.00  0.00    +0.000 A 
ATOM     28  C   UNL     1      -1.630  16.358  19.685  0.00  0.00    +0.000 A 
ATOM     29  C   UNL     1      -1.628  17.637  19.157  0.00  0.00    +0.000 A 
ATOM     30  C   UNL     1      -0.539  18.054  18.419  0.00  0.00    +0.000 A 
ATOM     31  C   UNL     1       0.565  17.207  18.220  0.00  0.00    +0.000 A 
ATOM     32  C   UNL     1       0.551  15.881  18.710  0.00  0.00    +0.000 A 
ATOM     33  C   UNL     1       1.754  14.999  18.470  0.00  0.00    +0.000 C 
ATOM     34  C   UNL     1       2.947  15.550  17.682  0.00  0.00    +0.000 C 
ATOM     35  C   UNL     1       3.001  17.034  17.380  0.00  0.00    +0.000 C 
ATOM     36  C   UNL     1       1.694  17.799  17.427  0.00  0.00    +0.000 C 
BRANCH  28  37
ATOM     37  O   UNL     1      -2.708  16.096  20.500  0.00  0.00    +0.000 OA
ATOM     38  H   UNL     1      -3.516  16.197  19.967  0.00  0.00    +0.000 HD
ENDBRANCH  28  37
ENDBRANCH  24  27
ENDBRANCH  20  21
ENDBRANCH   4  20
TORSDOF 7
ENDMDL
MODEL 3
REMARK VINA RESULT:      -8.7      3.399      5.100
REMARK  Name = 
REMARK  9 active torsions:
REMARK  status: ('A' for Active; 'I' for Inactive)
REMARK    1  A    between atoms: C_1  and  C_2
REMARK    2  A    between atoms: N_4  and  C_5
REMARK    3  A    between atoms: C_5  and  C_6
REMARK    4  A    between atoms: C_5  and  C_7
REMARK    5  A    between atoms: C_10  and  C_11
REMARK    6  A    between atoms: C_14  and  O_15
REMARK    7  A    between atoms: O_15  and  C_16
REMARK    8  A    between atoms: C_19  and  C_20
REMARK    9  A    between atoms: C_21  and  O_22
REMARK                            x       y       z     vdW  Elec       q    Type
REMARK                         _______ _______ _______ _____ _____    ______ ____
ROOT
ATOM      1  C   UNL     1       1.171   8.233  20.692  0.00  0.00    +0.000 A 
ATOM      2  C   UNL     1       0.507   8.148  21.928  0.00  0.00    +0.000 A 
ATOM      3  C   UNL     1      -0.089   9.269  22.510  0.00  0.00    +0.000 A 
ATOM      4  C   UNL     1      -0.020  10.507  21.871  0.00  0.00    +0.000 A 
ATOM      5  C   UNL     1       0.585  10.604  20.622  0.00  0.00    +0.000 A 
ATOM      6  C   UNL     1       1.187   9.481  20.047  0.00  0.00    +0.000 A 
ENDROOT
BRANCH   1  10
ATOM      7  C   UNL     1       3.241   4.805  19.075  0.00  0.00    +0.000 A 
ATOM      8  C   UNL     1       2.449   4.684  20.227  0.00  0.00    +0.000 A 
ATOM      9  C   UNL     1       1.763   5.793  20.724  0.00  0.00    +0.000 A 
ATOM     10  C   UNL     1       1.841   7.053  20.114  0.00  0.00    +0.000 A 
ATOM     11  C   UNL     1       2.609   7.151  18.940  0.00  0.00    +0.000 A 
ATOM     12  C   UNL     1       3.297   6.044  18.431  0.00  0.00    +0.000 A 
BRANCH   7  13
ATOM     13  C   UNL     1       4.013   3.604  18.566  0.00  0.00    +0.000 C 
ATOM     14  C   UNL     1       4.016   2.476  19.601  0.00  0.00    +0.000 C 
BRANCH  13  18
ATOM     15  C   UNL     1       7.175   4.602  16.743  0.00  0.00    +0.000 C 
ATOM     16  C   UNL     1       5.736   4.199  16.892  0.00  0.00    +0.000 C 
ATOM     17  O   UNL     1       4.982   4.058  15.935  0.00  0.00    +0.000 OA
ATOM     18  N   UNL     1       5.363   4.002  18.197  0.00  0.00    +0.000 N 
ATOM     19  H   UNL     1       6.036   4.152  18.936  0.00  0.00    +0.000 HD
ENDBRANCH  13  18
ENDBRANCH   7  13
ENDBRANCH   1  10
BRANCH   4  20
ATOM     20  O   UNL     1      -0.651  11.540  22.511  0.00  0.00    +0.000 OA
BRANCH  20  21
ATOM     21  C   UNL     1      -0.917  12.715  21.852  0.00  0.00    +0.000 A 
ATOM     22  C   UNL     1      -0.104  13.782  22.211  0.00  0.00    +0.000 A 
ATOM     23  C   UNL     1      -0.204  14.995  21.529  0.00  0.00    +0.000 A 
ATOM     24  C   UNL     1      -1.045  15.154  20.403  0.00  0.00    +0.000 A 
ATOM     25  C   UNL     1      -1.887  14.078  20.088  0.00  0.00    +0.000 A 
ATOM     26  C   UNL     1      -1.825  12.869  20.803  0.00  0.00    +0.000 A 
BRANCH  24  27
ATOM     27  C   UNL     1      -0.839  16.335  19.505  0.00  0.00    +0.000 A 
ATOM     28  C   UNL     1      -1.876  17.309  19.462  0.00  0.00    +0.000 A 
ATOM     29  C   UNL     1      -1.882  18.364  18.567  0.00  0.00    +0.000 A 
ATOM     30  C   UNL     1      -0.798  18.537  17.730  0.00  0.00    +0.000 A 
ATOM     31  C   UNL     1       0.309  17.672  17.793  0.00  0.00    +0.000 A 
ATOM     32  C   UNL     1       0.302  16.560  18.666  0.00  0.00    +0.000 A 
ATOM     33  C   UNL     1       1.507  15.651  18.701  0.00  0.00    +0.000 C 
ATOM     34  C   UNL     1       2.695  15.936  17.774  0.00  0.00    +0.000 C 
ATOM     35  C   UNL     1       2.740  17.256  17.032  0.00  0.00    +0.000 C 
ATOM     36  C   UNL     1       1.430  17.995  16.850  0.00  0.00    +0.000 C 
BRANCH  28  37
ATOM     37  O   UNL     1      -2.948  17.307  20.325  0.00  0.00    +0.000 OA
ATOM     38  H   UNL     1      -3.623  17.906  19.962  0.00  0.00    +0.000 HD
ENDBRANCH  28  37
ENDBRANCH  24  27
ENDBRANCH  20  21
ENDBRANCH   4  20
TORSDOF 7
ENDMDL
MODEL 4
REMARK VINA RESULT:      -8.7      4.284      6.074
REMARK  Name = 
REMARK  9 active torsions:
REMARK  status: ('A' for Active; 'I' for Inactive)
REMARK    1  A    between atoms: C_1  and  C_2
REMARK    2  A    between atoms: N_4  and  C_5
REMARK    3  A    between atoms: C_5  and  C_6
REMARK    4  A    between atoms: C_5  and  C_7
REMARK    5  A    between atoms: C_10  and  C_11
REMARK    6  A    between atoms: C_14  and  O_15
REMARK    7  A    between atoms: O_15  and  C_16
REMARK    8  A    between atoms: C_19  and  C_20
REMARK    9  A    between atoms: C_21  and  O_22
REMARK                            x       y       z     vdW  Elec       q    Type
REMARK                         _______ _______ _______ _____ _____    ______ ____
ROOT
ATOM      1  C   UNL     1       2.632   7.202  18.642  0.00  0.00    +0.000 A 
ATOM      2  C   UNL     1       2.054   8.419  18.240  0.00  0.00    +0.000 A 
ATOM      3  C   UNL     1       1.187   9.122  19.079  0.00  0.00    +0.000 A 
ATOM      4  C   UNL     1       0.868   8.613  20.338  0.00  0.00    +0.000 A 
ATOM      5  C   UNL     1       1.471   7.439  20.778  0.00  0.00    +0.000 A 
ATOM      6  C   UNL     1       2.332   6.734  19.932  0.00  0.00    +0.000 A 
ENDROOT
BRANCH   1  10
ATOM      7  C   UNL     1       5.095   5.000  15.860  0.00  0.00    +0.000 A 
ATOM      8  C   UNL     1       5.254   6.385  16.014  0.00  0.00    +0.000 A 
ATOM      9  C   UNL     1       4.471   7.082  16.936  0.00  0.00    +0.000 A 
ATOM     10  C   UNL     1       3.504   6.444  17.725  0.00  0.00    +0.000 A 
ATOM     11  C   UNL     1       3.381   5.049  17.587  0.00  0.00    +0.000 A 
ATOM     12  C   UNL     1       4.165   4.342  16.669  0.00  0.00    +0.000 A 
BRANCH   7  13
ATOM     13  C   UNL     1       5.923   4.260  14.829  0.00  0.00    +0.000 C 
ATOM     14  C   UNL     1       7.179   5.054  14.461  0.00  0.00    +0.000 C 
BRANCH  13  18
ATOM     15  C   UNL     1       4.613   3.163  11.452  0.00  0.00    +0.000 C 
ATOM     16  C   UNL     1       5.631   3.370  12.538  0.00  0.00    +0.000 C 
ATOM     17  O   UNL     1       6.806   3.042  12.419  0.00  0.00    +0.000 OA
ATOM     18  N   UNL     1       5.109   3.965  13.659  0.00  0.00    +0.000 N 
ATOM     19  H   UNL     1       4.126   4.194  13.691  0.00  0.00    +0.000 HD
ENDBRANCH  13  18
ENDBRANCH   7  13
ENDBRANCH   1  10
BRANCH   4  20
ATOM     20  O   UNL     1       0.027   9.384  21.093  0.00  0.00    +0.000 OA
BRANCH  20  21
ATOM     21  C   UNL     1      -0.209  10.696  20.762  0.00  0.00    +0.000 A 
ATOM     22  C   UNL     1       0.574  11.619  21.442  0.00  0.00    +0.000 A 
ATOM     23  C   UNL     1       0.505  12.972  21.108  0.00  0.00    +0.000 A 
ATOM     24  C   UNL     1      -0.270  13.437  20.020  0.00  0.00    +0.000 A 
ATOM     25  C   UNL     1      -1.084  12.493  19.378  0.00  0.00    +0.000 A 
ATOM     26  C   UNL     1      -1.055  11.135  19.742  0.00  0.00    +0.000 A 
BRANCH  24  27
ATOM     27  C   UNL     1      -0.019  14.814  19.488  0.00  0.00    +0.000 A 
ATOM     28  C   UNL     1      -1.063  15.771  19.641  0.00  0.00    +0.000 A 
ATOM     29  C   UNL     1      -1.024  17.027  19.064  0.00  0.00    +0.000 A 
ATOM     30  C   UNL     1       0.110  17.412  18.377  0.00  0.00    +0.000 A 
ATOM     31  C   UNL     1       1.220  16.555  18.277  0.00  0.00    +0.000 A 
ATOM     32  C   UNL     1       1.170  15.250  18.817  0.00  0.00    +0.000 A 
ATOM     33  C   UNL     1       2.381  14.357  18.684  0.00  0.00    +0.000 C 
ATOM     34  C   UNL     1       3.622  14.874  17.948  0.00  0.00    +0.000 C 
ATOM     35  C   UNL     1       3.700  16.344  17.592  0.00  0.00    +0.000 C 
ATOM     36  C   UNL     1       2.397  17.113  17.531  0.00  0.00    +0.000 C 
BRANCH  28  37
ATOM     37  O   UNL     1      -2.188  15.543  20.400  0.00  0.00    +0.000 OA
ATOM     38  H   UNL     1      -2.875  15.183  19.813  0.00  0.00    +0.000 HD
ENDBRANCH  28  37
ENDBRANCH  24  27
ENDBRANCH  20  21
ENDBRANCH   4  20
TORSDOF 7
ENDMDL
MODEL 5
REMARK VINA RESULT:      -8.6      3.339      5.157
REMARK  Name = 
REMARK  9 active torsions:
REMARK  status: ('A' for Active; 'I' for Inactive)
REMARK    1  A    between atoms: C_1  and  C_2
REMARK    2  A    between atoms: N_4  and  C_5
REMARK    3  A    between atoms: C_5  and  C_6
REMARK    4  A    between atoms: C_5  and  C_7
REMARK    5  A    between atoms: C_10  and  C_11
REMARK    6  A    between atoms: C_14  and  O_15
REMARK    7  A    between atoms: O_15  and  C_16
REMARK    8  A    between atoms: C_19  and  C_20
REMARK    9  A    between atoms: C_21  and  O_22
REMARK                            x       y       z     vdW  Elec       q    Type
REMARK                         _______ _______ _______ _____ _____    ______ ____
ROOT
ATOM      1  C   UNL     1       1.181   8.612  20.583  0.00  0.00    +0.000 A 
ATOM      2  C   UNL     1       0.489   9.645  19.928  0.00  0.00    +0.000 A 
ATOM      3  C   UNL     1      -0.226  10.606  20.644  0.00  0.00    +0.000 A 
ATOM      4  C   UNL     1      -0.276  10.547  22.037  0.00  0.00    +0.000 A 
ATOM      5  C   UNL     1       0.446   9.566  22.709  0.00  0.00    +0.000 A 
ATOM      6  C   UNL     1       1.154   8.600  21.988  0.00  0.00    +0.000 A 
ENDROOT
BRANCH   1  10
ATOM      7  C   UNL     1       3.140   5.543  18.259  0.00  0.00    +0.000 A 
ATOM      8  C   UNL     1       3.151   6.879  17.832  0.00  0.00    +0.000 A 
ATOM      9  C   UNL     1       2.538   7.867  18.606  0.00  0.00    +0.000 A 
ATOM     10  C   UNL     1       1.889   7.572  19.813  0.00  0.00    +0.000 A 
ATOM     11  C   UNL     1       1.918   6.234  20.247  0.00  0.00    +0.000 A 
ATOM     12  C   UNL     1       2.533   5.238  19.480  0.00  0.00    +0.000 A 
BRANCH   7  13
ATOM     13  C   UNL     1       3.774   4.474  17.392  0.00  0.00    +0.000 C 
ATOM     14  C   UNL     1       3.014   3.151  17.509  0.00  0.00    +0.000 C 
BRANCH  13  18
ATOM     15  C   UNL     1       7.554   4.587  17.524  0.00  0.00    +0.000 C 
ATOM     16  C   UNL     1       6.182   4.872  16.983  0.00  0.00    +0.000 C 
ATOM     17  O   UNL     1       5.992   5.527  15.963  0.00  0.00    +0.000 OA
ATOM     18  N   UNL     1       5.179   4.322  17.739  0.00  0.00    +0.000 N 
ATOM     19  H   UNL     1       5.411   3.807  18.577  0.00  0.00    +0.000 HD
ENDBRANCH  13  18
ENDBRANCH   7  13
ENDBRANCH   1  10
BRANCH   4  20
ATOM     20  O   UNL     1      -0.985  11.545  22.648  0.00  0.00    +0.000 OA
BRANCH  20  21
ATOM     21  C   UNL     1      -1.178  12.752  22.021  0.00  0.00    +0.000 A 
ATOM     22  C   UNL     1      -0.178  13.690  22.242  0.00  0.00    +0.000 A 
ATOM     23  C   UNL     1      -0.207  14.911  21.567  0.00  0.00    +0.000 A 
ATOM     24  C   UNL     1      -1.177  15.198  20.578  0.00  0.00    +0.000 A 
ATOM     25  C   UNL     1      -2.200  14.255  20.407  0.00  0.00    +0.000 A 
ATOM     26  C   UNL     1      -2.203  13.043  21.119  0.00  0.00    +0.000 A 
BRANCH  24  27
ATOM     27  C   UNL     1      -0.943  16.346  19.645  0.00  0.00    +0.000 A 
ATOM     28  C   UNL     1      -1.964  17.334  19.559  0.00  0.00    +0.000 A 
ATOM     29  C   UNL     1      -1.945  18.359  18.631  0.00  0.00    +0.000 A 
ATOM     30  C   UNL     1      -0.849  18.488  17.800  0.00  0.00    +0.000 A 
ATOM     31  C   UNL     1       0.243  17.609  17.903  0.00  0.00    +0.000 A 
ATOM     32  C   UNL     1       0.210  16.527  18.812  0.00  0.00    +0.000 A 
ATOM     33  C   UNL     1       1.401  15.600  18.889  0.00  0.00    +0.000 C 
ATOM     34  C   UNL     1       2.602  15.838  17.967  0.00  0.00    +0.000 C 
ATOM     35  C   UNL     1       2.676  17.132  17.182  0.00  0.00    +0.000 C 
ATOM     36  C   UNL     1       1.380  17.885  16.963  0.00  0.00    +0.000 C 
BRANCH  28  37
ATOM     37  O   UNL     1      -3.045  17.376  20.410  0.00  0.00    +0.000 OA
ATOM     38  H   UNL     1      -3.077  18.263  20.806  0.00  0.00    +0.000 HD
ENDBRANCH  28  37
ENDBRANCH  24  27
ENDBRANCH  20  21
ENDBRANCH   4  20
TORSDOF 7
ENDMDL
MODEL 6
REMARK VINA RESULT:      -8.4      3.487      4.926
REMARK  Name = 
REMARK  9 active torsions:
REMARK  status: ('A' for Active; 'I' for Inactive)
REMARK    1  A    between atoms: C_1  and  C_2
REMARK    2  A    between atoms: N_4  and  C_5
REMARK    3  A    between atoms: C_5  and  C_6
REMARK    4  A    between atoms: C_5  and  C_7
REMARK    5  A    between atoms: C_10  and  C_11
REMARK    6  A    between atoms: C_14  and  O_15
REMARK    7  A    between atoms: O_15  and  C_16
REMARK    8  A    between atoms: C_19  and  C_20
REMARK    9  A    between atoms: C_21  and  O_22
REMARK                            x       y       z     vdW  Elec       q    Type
REMARK                         _______ _______ _______ _____ _____    ______ ____
ROOT
ATOM      1  C   UNL     1       2.979   7.356  18.186  0.00  0.00    +0.000 A 
ATOM      2  C   UNL     1       2.570   8.639  17.786  0.00  0.00    +0.000 A 
ATOM      3  C   UNL     1       1.752   9.426  18.600  0.00  0.00    +0.000 A 
ATOM      4  C   UNL     1       1.313   8.936  19.830  0.00  0.00    +0.000 A 
ATOM      5  C   UNL     1       1.751   7.691  20.270  0.00  0.00    +0.000 A 
ATOM      6  C   UNL     1       2.562   6.904  19.449  0.00  0.00    +0.000 A 
ENDROOT
BRANCH   1  10
ATOM      7  C   UNL     1       5.280   4.894  15.483  0.00  0.00    +0.000 A 
ATOM      8  C   UNL     1       5.379   6.293  15.435  0.00  0.00    +0.000 A 
ATOM      9  C   UNL     1       4.650   7.077  16.332  0.00  0.00    +0.000 A 
ATOM     10  C   UNL     1       3.799   6.514  17.293  0.00  0.00    +0.000 A 
ATOM     11  C   UNL     1       3.739   5.111  17.354  0.00  0.00    +0.000 A 
ATOM     12  C   UNL     1       4.468   4.316  16.462  0.00  0.00    +0.000 A 
BRANCH   7  13
ATOM     13  C   UNL     1       6.044   4.054  14.480  0.00  0.00    +0.000 C 
ATOM     14  C   UNL     1       7.302   4.783  14.000  0.00  0.00    +0.000 C 
BRANCH  13  18
ATOM     15  C   UNL     1       4.585   2.862  11.199  0.00  0.00    +0.000 C 
ATOM     16  C   UNL     1       5.660   3.157  12.206  0.00  0.00    +0.000 C 
ATOM     17  O   UNL     1       6.848   2.941  11.993  0.00  0.00    +0.000 OA
ATOM     18  N   UNL     1       5.174   3.692  13.371  0.00  0.00    +0.000 N 
ATOM     19  H   UNL     1       4.179   3.827  13.482  0.00  0.00    +0.000 HD
ENDBRANCH  13  18
ENDBRANCH   7  13
ENDBRANCH   1  10
BRANCH   4  20
ATOM     20  O   UNL     1       0.533   9.789  20.563  0.00  0.00    +0.000 OA
BRANCH  20  21
ATOM     21  C   UNL     1      -0.499  10.477  19.974  0.00  0.00    +0.000 A 
ATOM     22  C   UNL     1      -1.302   9.716  19.135  0.00  0.00    +0.000 A 
ATOM     23  C   UNL     1      -2.449  10.276  18.570  0.00  0.00    +0.000 A 
ATOM     24  C   UNL     1      -2.886  11.580  18.901  0.00  0.00    +0.000 A 
ATOM     25  C   UNL     1      -2.036  12.343  19.714  0.00  0.00    +0.000 A 
ATOM     26  C   UNL     1      -0.854  11.799  20.247  0.00  0.00    +0.000 A 
BRANCH  24  27
ATOM     27  C   UNL     1      -4.289  11.982  18.562  0.00  0.00    +0.000 A 
ATOM     28  C   UNL     1      -4.656  11.963  17.186  0.00  0.00    +0.000 A 
ATOM     29  C   UNL     1      -5.864  12.453  16.722  0.00  0.00    +0.000 A 
ATOM     30  C   UNL     1      -6.796  12.906  17.634  0.00  0.00    +0.000 A 
ATOM     31  C   UNL     1      -6.539  12.855  19.016  0.00  0.00    +0.000 A 
ATOM     32  C   UNL     1      -5.288  12.406  19.497  0.00  0.00    +0.000 A 
ATOM     33  C   UNL     1      -5.048  12.371  20.988  0.00  0.00    +0.000 C 
ATOM     34  C   UNL     1      -6.152  12.845  21.941  0.00  0.00    +0.000 C 
ATOM     35  C   UNL     1      -7.538  13.100  21.384  0.00  0.00    +0.000 C 
ATOM     36  C   UNL     1      -7.652  13.348  19.894  0.00  0.00    +0.000 C 
BRANCH  28  37
ATOM     37  O   UNL     1      -3.858  11.430  16.200  0.00  0.00    +0.000 OA
ATOM     38  H   UNL     1      -3.847  10.464  16.316  0.00  0.00    +0.000 HD
ENDBRANCH  28  37
ENDBRANCH  24  27
ENDBRANCH  20  21
ENDBRANCH   4  20
TORSDOF 7
ENDMDL
MODEL 7
REMARK VINA RESULT:      -8.4      2.269      3.094
REMARK  Name = 
REMARK  9 active torsions:
REMARK  status: ('A' for Active; 'I' for Inactive)
REMARK    1  A    between atoms: C_1  and  C_2
REMARK    2  A    between atoms: N_4  and  C_5
REMARK    3  A    between atoms: C_5  and  C_6
REMARK    4  A    between atoms: C_5  and  C_7
REMARK    5  A    between atoms: C_10  and  C_11
REMARK    6  A    between atoms: C_14  and  O_15
REMARK    7  A    between atoms: O_15  and  C_16
REMARK    8  A    between atoms: C_19  and  C_20
REMARK    9  A    between atoms: C_21  and  O_22
REMARK                            x       y       z     vdW  Elec       q    Type
REMARK                         _______ _______ _______ _____ _____    ______ ____
ROOT
ATOM      1  C   UNL     1       1.083   8.673  20.894  0.00  0.00    +0.000 A 
ATOM      2  C   UNL     1       0.794   9.929  20.335  0.00  0.00    +0.000 A 
ATOM      3  C   UNL     1       0.289  10.971  21.115  0.00  0.00    +0.000 A 
ATOM      4  C   UNL     1       0.048  10.773  22.474  0.00  0.00    +0.000 A 
ATOM      5  C   UNL     1       0.377   9.555  23.060  0.00  0.00    +0.000 A 
ATOM      6  C   UNL     1       0.874   8.512  22.275  0.00  0.00    +0.000 A 
ENDROOT
BRANCH   1  10
ATOM      7  C   UNL     1       2.616   5.441  18.474  0.00  0.00    +0.000 A 
ATOM      8  C   UNL     1       2.048   5.185  19.731  0.00  0.00    +0.000 A 
ATOM      9  C   UNL     1       1.531   6.235  20.493  0.00  0.00    +0.000 A 
ATOM     10  C   UNL     1       1.565   7.564  20.049  0.00  0.00    +0.000 A 
ATOM     11  C   UNL     1       2.103   7.801  18.771  0.00  0.00    +0.000 A 
ATOM     12  C   UNL     1       2.620   6.755  17.999  0.00  0.00    +0.000 A 
BRANCH   7  13
ATOM     13  C   UNL     1       3.209   4.299  17.673  0.00  0.00    +0.000 C 
ATOM     14  C   UNL     1       2.544   2.970  18.037  0.00  0.00    +0.000 C 
BRANCH  13  18
ATOM     15  C   UNL     1       6.968   4.555  17.327  0.00  0.00    +0.000 C 
ATOM     16  C   UNL     1       5.531   4.701  16.916  0.00  0.00    +0.000 C 
ATOM     17  O   UNL     1       5.192   5.170  15.834  0.00  0.00    +0.000 OA
ATOM     18  N   UNL     1       4.651   4.253  17.868  0.00  0.00    +0.000 N 
ATOM     19  H   UNL     1       5.003   3.894  18.743  0.00  0.00    +0.000 HD
ENDBRANCH  13  18
ENDBRANCH   7  13
ENDBRANCH   1  10
BRANCH   4  20
ATOM     20  O   UNL     1      -0.428  11.860  23.157  0.00  0.00    +0.000 OA
BRANCH  20  21
ATOM     21  C   UNL     1      -1.666  12.382  22.869  0.00  0.00    +0.000 A 
ATOM     22  C   UNL     1      -1.684  13.298  21.826  0.00  0.00    +0.000 A 
ATOM     23  C   UNL     1      -2.899  13.809  21.369  0.00  0.00    +0.000 A 
ATOM     24  C   UNL     1      -4.140  13.350  21.868  0.00  0.00    +0.000 A 
ATOM     25  C   UNL     1      -4.094  12.459  22.950  0.00  0.00    +0.000 A 
ATOM     26  C   UNL     1      -2.870  11.978  23.447  0.00  0.00    +0.000 A 
BRANCH  24  27
ATOM     27  C   UNL     1      -5.389  13.654  21.098  0.00  0.00    +0.000 A 
ATOM     28  C   UNL     1      -6.318  14.553  21.694  0.00  0.00    +0.000 A 
ATOM     29  C   UNL     1      -7.572  14.801  21.164  0.00  0.00    +0.000 A 
ATOM     30  C   UNL     1      -7.916  14.220  19.961  0.00  0.00    +0.000 A 
ATOM     31  C   UNL     1      -7.006  13.404  19.266  0.00  0.00    +0.000 A 
ATOM     32  C   UNL     1      -5.742  13.102  19.823  0.00  0.00    +0.000 A 
ATOM     33  C   UNL     1      -4.794  12.217  19.049  0.00  0.00    +0.000 C 
ATOM     34  C   UNL     1      -5.230  11.648  17.694  0.00  0.00    +0.000 C 
ATOM     35  C   UNL     1      -6.493  12.183  17.050  0.00  0.00    +0.000 C 
ATOM     36  C   UNL     1      -7.498  12.865  17.955  0.00  0.00    +0.000 C 
BRANCH  28  37
ATOM     37  O   UNL     1      -6.042  15.278  22.831  0.00  0.00    +0.000 OA
ATOM     38  H   UNL     1      -5.971  14.653  23.573  0.00  0.00    +0.000 HD
ENDBRANCH  28  37
ENDBRANCH  24  27
ENDBRANCH  20  21
ENDBRANCH   4  20
TORSDOF 7
ENDMDL
MODEL 8
REMARK VINA RESULT:      -8.3      4.094      5.830
REMARK  Name = 
REMARK  9 active torsions:
REMARK  status: ('A' for Active; 'I' for Inactive)
REMARK    1  A    between atoms: C_1  and  C_2
REMARK    2  A    between atoms: N_4  and  C_5
REMARK    3  A    between atoms: C_5  and  C_6
REMARK    4  A    between atoms: C_5  and  C_7
REMARK    5  A    between atoms: C_10  and  C_11
REMARK    6  A    between atoms: C_14  and  O_15
REMARK    7  A    between atoms: O_15  and  C_16
REMARK    8  A    between atoms: C_19  and  C_20
REMARK    9  A    between atoms: C_21  and  O_22
REMARK                            x       y       z     vdW  Elec       q    Type
REMARK                         _______ _______ _______ _____ _____    ______ ____
ROOT
ATOM      1  C   UNL     1       2.271   7.500  19.286  0.00  0.00    +0.000 A 
ATOM      2  C   UNL     1       1.814   8.690  18.695  0.00  0.00    +0.000 A 
ATOM      3  C   UNL     1       0.877   9.504  19.335  0.00  0.00    +0.000 A 
ATOM      4  C   UNL     1       0.366   9.136  20.580  0.00  0.00    +0.000 A 
ATOM      5  C   UNL     1       0.845   7.990  21.208  0.00  0.00    +0.000 A 
ATOM      6  C   UNL     1       1.775   7.173  20.560  0.00  0.00    +0.000 A 
ENDROOT
BRANCH   1  10
ATOM      7  C   UNL     1       5.141   4.957  17.297  0.00  0.00    +0.000 A 
ATOM      8  C   UNL     1       4.281   4.436  18.276  0.00  0.00    +0.000 A 
ATOM      9  C   UNL     1       3.339   5.261  18.893  0.00  0.00    +0.000 A 
ATOM     10  C   UNL     1       3.220   6.622  18.575  0.00  0.00    +0.000 A 
ATOM     11  C   UNL     1       4.062   7.122  17.566  0.00  0.00    +0.000 A 
ATOM     12  C   UNL     1       5.007   6.301  16.940  0.00  0.00    +0.000 A 
BRANCH   7  13
ATOM     13  C   UNL     1       6.185   4.061  16.663  0.00  0.00    +0.000 C 
ATOM     14  C   UNL     1       7.562   4.729  16.677  0.00  0.00    +0.000 C 
BRANCH  13  18
ATOM     15  C   UNL     1       5.697   3.806  12.920  0.00  0.00    +0.000 C 
ATOM     16  C   UNL     1       6.258   4.343  14.206  0.00  0.00    +0.000 C 
ATOM     17  O   UNL     1       7.061   5.269  14.246  0.00  0.00    +0.000 OA
ATOM     18  N   UNL     1       5.775   3.697  15.315  0.00  0.00    +0.000 N 
ATOM     19  H   UNL     1       5.126   2.931  15.204  0.00  0.00    +0.000 HD
ENDBRANCH  13  18
ENDBRANCH   7  13
ENDBRANCH   1  10
BRANCH   4  20
ATOM     20  O   UNL     1      -0.530  10.009  21.135  0.00  0.00    +0.000 OA
BRANCH  20  21
ATOM     21  C   UNL     1      -0.646  11.292  20.658  0.00  0.00    +0.000 A 
ATOM     22  C   UNL     1      -0.030  12.261  21.437  0.00  0.00    +0.000 A 
ATOM     23  C   UNL     1       0.017  13.585  20.996  0.00  0.00    +0.000 A 
ATOM     24  C   UNL     1      -0.459  13.965  19.720  0.00  0.00    +0.000 A 
ATOM     25  C   UNL     1      -1.116  12.978  18.971  0.00  0.00    +0.000 A 
ATOM     26  C   UNL     1      -1.209  11.653  19.433  0.00  0.00    +0.000 A 
BRANCH  24  27
ATOM     27  C   UNL     1      -0.054  15.295  19.163  0.00  0.00    +0.000 A 
ATOM     28  C   UNL     1      -1.022  16.338  19.198  0.00  0.00    +0.000 A 
ATOM     29  C   UNL     1      -0.833  17.563  18.584  0.00  0.00    +0.000 A 
ATOM     30  C   UNL     1       0.378  17.827  17.977  0.00  0.00    +0.000 A 
ATOM     31  C   UNL     1       1.417  16.880  17.997  0.00  0.00    +0.000 A 
ATOM     32  C   UNL     1       1.216  15.606  18.575  0.00  0.00    +0.000 A 
ATOM     33  C   UNL     1       2.355  14.613  18.571  0.00  0.00    +0.000 C 
ATOM     34  C   UNL     1       3.688  14.998  17.920  0.00  0.00    +0.000 C 
ATOM     35  C   UNL     1       3.917  16.441  17.521  0.00  0.00    +0.000 C 
ATOM     36  C   UNL     1       2.691  17.310  17.329  0.00  0.00    +0.000 C 
BRANCH  28  37
ATOM     37  O   UNL     1      -2.218  16.234  19.871  0.00  0.00    +0.000 OA
ATOM     38  H   UNL     1      -2.708  15.483  19.493  0.00  0.00    +0.000 HD
ENDBRANCH  28  37
ENDBRANCH  24  27
ENDBRANCH  20  21
ENDBRANCH   4  20
TORSDOF 7
ENDMDL
MODEL 9
REMARK VINA RESULT:      -8.2      3.243      5.252
REMARK  Name = 
REMARK  9 active torsions:
REMARK  status: ('A' for Active; 'I' for Inactive)
REMARK    1  A    between atoms: C_1  and  C_2
REMARK    2  A    between atoms: N_4  and  C_5
REMARK    3  A    between atoms: C_5  and  C_6
REMARK    4  A    between atoms: C_5  and  C_7
REMARK    5  A    between atoms: C_10  and  C_11
REMARK    6  A    between atoms: C_14  and  O_15
REMARK    7  A    between atoms: O_15  and  C_16
REMARK    8  A    between atoms: C_19  and  C_20
REMARK    9  A    between atoms: C_21  and  O_22
REMARK                            x       y       z     vdW  Elec       q    Type
REMARK                         _______ _______ _______ _____ _____    ______ ____
ROOT
ATOM      1  C   UNL     1       3.023   6.555  18.570  0.00  0.00    +0.000 A 
ATOM      2  C   UNL     1       2.604   7.893  18.460  0.00  0.00    +0.000 A 
ATOM      3  C   UNL     1       1.797   8.482  19.434  0.00  0.00    +0.000 A 
ATOM      4  C   UNL     1       1.378   7.739  20.538  0.00  0.00    +0.000 A 
ATOM      5  C   UNL     1       1.825   6.431  20.696  0.00  0.00    +0.000 A 
ATOM      6  C   UNL     1       2.626   5.841  19.714  0.00  0.00    +0.000 A 
ENDROOT
BRANCH   1  10
ATOM      7  C   UNL     1       5.284   4.729  15.375  0.00  0.00    +0.000 A 
ATOM      8  C   UNL     1       5.290   6.121  15.550  0.00  0.00    +0.000 A 
ATOM      9  C   UNL     1       4.577   6.698  16.603  0.00  0.00    +0.000 A 
ATOM     10  C   UNL     1       3.831   5.929  17.507  0.00  0.00    +0.000 A 
ATOM     11  C   UNL     1       3.865   4.533  17.342  0.00  0.00    +0.000 A 
ATOM     12  C   UNL     1       4.580   3.945  16.292  0.00  0.00    +0.000 A 
BRANCH   7  13
ATOM     13  C   UNL     1       6.029   4.118  14.206  0.00  0.00    +0.000 C 
ATOM     14  C   UNL     1       7.321   4.886  13.916  0.00  0.00    +0.000 C 
BRANCH  13  18
ATOM     15  C   UNL     1       4.293   3.227  10.964  0.00  0.00    +0.000 C 
ATOM     16  C   UNL     1       5.291   3.091  12.079  0.00  0.00    +0.000 C 
ATOM     17  O   UNL     1       6.134   2.201  12.112  0.00  0.00    +0.000 OA
ATOM     18  N   UNL     1       5.161   4.061  13.040  0.00  0.00    +0.000 N 
ATOM     19  H   UNL     1       4.432   4.755  12.953  0.00  0.00    +0.000 HD
ENDBRANCH  13  18
ENDBRANCH   7  13
ENDBRANCH   1  10
BRANCH   4  20
ATOM     20  O   UNL     1       0.607   8.411  21.447  0.00  0.00    +0.000 OA
BRANCH  20  21
ATOM     21  C   UNL     1       0.048   9.626  21.132  0.00  0.00    +0.000 A 
ATOM     22  C   UNL     1       0.498  10.692  21.899  0.00  0.00    +0.000 A 
ATOM     23  C   UNL     1       0.089  11.991  21.596  0.00  0.00    +0.000 A 
ATOM     24  C   UNL     1      -0.701  12.281  20.459  0.00  0.00    +0.000 A 
ATOM     25  C   UNL     1      -1.178  11.185  19.727  0.00  0.00    +0.000 A 
ATOM     26  C   UNL     1      -0.808   9.869  20.057  0.00  0.00    +0.000 A 
BRANCH  24  27
ATOM     27  C   UNL     1      -0.797  13.699  19.986  0.00  0.00    +0.000 A 
ATOM     28  C   UNL     1       0.066  14.090  18.923  0.00  0.00    +0.000 A 
ATOM     29  C   UNL     1       0.188  15.400  18.495  0.00  0.00    +0.000 A 
ATOM     30  C   UNL     1      -0.620  16.366  19.060  0.00  0.00    +0.000 A 
ATOM     31  C   UNL     1      -1.569  16.030  20.041  0.00  0.00    +0.000 A 
ATOM     32  C   UNL     1      -1.665  14.705  20.523  0.00  0.00    +0.000 A 
ATOM     33  C   UNL     1      -2.694  14.384  21.582  0.00  0.00    +0.000 C 
ATOM     34  C   UNL     1      -3.589  15.503  22.126  0.00  0.00    +0.000 C 
ATOM     35  C   UNL     1      -3.596  16.843  21.418  0.00  0.00    +0.000 C 
ATOM     36  C   UNL     1      -2.403  17.172  20.545  0.00  0.00    +0.000 C 
BRANCH  28  37
ATOM     37  O   UNL     1       0.833  13.198  18.208  0.00  0.00    +0.000 OA
ATOM     38  H   UNL     1       1.767  13.430  18.348  0.00  0.00    +0.000 HD
ENDBRANCH  28  37
ENDBRANCH  24  27
ENDBRANCH  20  21
ENDBRANCH   4  20
TORSDOF 7
ENDMDL
