MODEL 1
REMARK VINA RESULT:      -8.5      0.000      0.000
REMARK  Name = 
REMARK  4 active torsions:
REMARK  status: ('A' for Active; 'I' for Inactive)
REMARK    1  A    between atoms: C_1  and  C_2
REMARK    2  A    between atoms: C_5  and  C_6
REMARK    3  A    between atoms: C_18  and  C_19
REMARK    4  A    between atoms: C_24  and  N_25
REMARK                            x       y       z     vdW  Elec       q    Type
REMARK                         _______ _______ _______ _____ _____    ______ ____
ROOT
ATOM      1  C   UNL     1       3.429   5.301  19.098  0.00  0.00    +0.000 C 
ATOM      2  O   UNL     1       3.403   4.423  19.963  0.00  0.00    +0.000 OA
ATOM      3  N   UNL     1       2.660   6.462  19.201  0.00  0.00    +0.000 N 
ATOM      4  C   UNL     1       1.927   6.737  20.448  0.00  0.00    +0.000 C 
ATOM      5  C   UNL     1       1.782   8.260  20.738  0.00  0.00    +0.000 C 
ATOM      6  N   UNL     1       1.295   8.986  19.554  0.00  0.00    +0.000 N 
ATOM      7  C   UNL     1       0.246   9.897  19.472  0.00  0.00    +0.000 A 
ATOM      8  N   UNL     1      -0.086  10.294  18.278  0.00  0.00    +0.000 NA
ATOM      9  C   UNL     1      -1.046  11.228  18.124  0.00  0.00    +0.000 A 
ATOM     10  O   UNL     1      -1.961  11.180  17.317  0.00  0.00    +0.000 OA
ATOM     11  C   UNL     1      -0.920  12.391  18.991  0.00  0.00    +0.000 A 
ATOM     12  C   UNL     1      -0.537  13.630  18.486  0.00  0.00    +0.000 A 
ATOM     13  C   UNL     1      -0.523  14.733  19.338  0.00  0.00    +0.000 A 
ATOM     14  C   UNL     1      -1.113  14.585  20.606  0.00  0.00    +0.000 A 
ATOM     15  C   UNL     1      -1.483  13.305  21.088  0.00  0.00    +0.000 A 
ATOM     16  C   UNL     1      -1.183  12.163  20.334  0.00  0.00    +0.000 A 
ATOM     17  S   UNL     1      -0.617  10.532  20.932  0.00  0.00    +0.000 S 
ATOM     18  C   UNL     1       2.080   8.673  18.322  0.00  0.00    +0.000 C 
ATOM     19  C   UNL     1       2.091   7.164  18.049  0.00  0.00    +0.000 C 
ENDROOT
BRANCH   1  24
ATOM     20  C   UNL     1       7.032   4.874  14.541  0.00  0.00    +0.000 C 
ATOM     21  C   UNL     1       6.129   4.975  15.736  0.00  0.00    +0.000 A 
ATOM     22  C   UNL     1       6.324   5.946  16.725  0.00  0.00    +0.000 A 
ATOM     23  C   UNL     1       5.464   6.025  17.827  0.00  0.00    +0.000 A 
ATOM     24  C   UNL     1       4.388   5.130  17.961  0.00  0.00    +0.000 A 
ATOM     25  C   UNL     1       4.179   4.180  16.955  0.00  0.00    +0.000 A 
ATOM     26  C   UNL     1       5.051   4.086  15.866  0.00  0.00    +0.000 A 
ENDBRANCH   1  24
BRANCH  13  27
ATOM     27  C   UNL     1       0.065  16.050  18.900  0.00  0.00    +0.000 C 
ATOM     28  F   UNL     1      -0.692  16.694  17.970  0.00  0.00    +0.000 F 
ATOM     29  F   UNL     1       0.233  16.920  19.929  0.00  0.00    +0.000 F 
ATOM     30  F   UNL     1       1.291  15.890  18.331  0.00  0.00    +0.000 F 
ENDBRANCH  13  27
BRANCH  15  31
ATOM     31  N   UNL     1      -2.454  13.257  22.194  0.00  0.00    +0.000 N 
ATOM     32  O   UNL     1      -3.556  12.736  21.959  0.00  0.00    +0.000 OA
ATOM     33  O   UNL     1      -2.093  13.645  23.310  0.00  0.00    +0.000 OA
ENDBRANCH  15  31
TORSDOF 3
ENDMDL
MODEL 2
REMARK VINA RESULT:      -8.3      0.240      1.093
REMARK  Name = 
REMARK  4 active torsions:
REMARK  status: ('A' for Active; 'I' for Inactive)
REMARK    1  A    between atoms: C_1  and  C_2
REMARK    2  A    between atoms: C_5  and  C_6
REMARK    3  A    between atoms: C_18  and  C_19
REMARK    4  A    between atoms: C_24  and  N_25
REMARK                            x       y       z     vdW  Elec       q    Type
REMARK                         _______ _______ _______ _____ _____    ______ ____
ROOT
ATOM      1  C   UNL     1       3.425   5.456  18.835  0.00  0.00    +0.000 C 
ATOM      2  O   UNL     1       3.437   4.551  19.672  0.00  0.00    +0.000 OA
ATOM      3  N   UNL     1       2.648   6.606  19.002  0.00  0.00    +0.000 N 
ATOM      4  C   UNL     1       1.957   6.833  20.282  0.00  0.00    +0.000 C 
ATOM      5  C   UNL     1       1.808   8.344  20.625  0.00  0.00    +0.000 C 
ATOM      6  N   UNL     1       1.273   9.103  19.483  0.00  0.00    +0.000 N 
ATOM      7  C   UNL     1       0.214  10.004  19.467  0.00  0.00    +0.000 A 
ATOM      8  N   UNL     1      -0.164  10.435  18.298  0.00  0.00    +0.000 NA
ATOM      9  C   UNL     1      -1.137  11.364  18.208  0.00  0.00    +0.000 A 
ATOM     10  O   UNL     1      -2.080  11.332  17.431  0.00  0.00    +0.000 OA
ATOM     11  C   UNL     1      -0.991  12.501  19.106  0.00  0.00    +0.000 A 
ATOM     12  C   UNL     1      -0.639  13.758  18.629  0.00  0.00    +0.000 A 
ATOM     13  C   UNL     1      -0.605  14.834  19.515  0.00  0.00    +0.000 A 
ATOM     14  C   UNL     1      -1.148  14.640  20.797  0.00  0.00    +0.000 A 
ATOM     15  C   UNL     1      -1.489  13.342  21.249  0.00  0.00    +0.000 A 
ATOM     16  C   UNL     1      -1.206  12.227  20.450  0.00  0.00    +0.000 A 
ATOM     17  S   UNL     1      -0.604  10.584  20.975  0.00  0.00    +0.000 S 
ATOM     18  C   UNL     1       2.018   8.837  18.215  0.00  0.00    +0.000 C 
ATOM     19  C   UNL     1       2.033   7.338  17.894  0.00  0.00    +0.000 C 
ENDROOT
BRANCH   1  24
ATOM     20  C   UNL     1       7.155   4.766  14.415  0.00  0.00    +0.000 C 
ATOM     21  C   UNL     1       6.169   4.947  15.533  0.00  0.00    +0.000 A 
ATOM     22  C   UNL     1       5.163   4.007  15.784  0.00  0.00    +0.000 A 
ATOM     23  C   UNL     1       4.258   4.195  16.836  0.00  0.00    +0.000 A 
ATOM     24  C   UNL     1       4.344   5.331  17.660  0.00  0.00    +0.000 A 
ATOM     25  C   UNL     1       5.369   6.253  17.423  0.00  0.00    +0.000 A 
ATOM     26  C   UNL     1       6.258   6.078  16.359  0.00  0.00    +0.000 A 
ENDBRANCH   1  24
BRANCH  13  27
ATOM     27  C   UNL     1      -0.045  16.171  19.099  0.00  0.00    +0.000 C 
ATOM     28  F   UNL     1       1.219  16.093  18.599  0.00  0.00    +0.000 F 
ATOM     29  F   UNL     1      -0.796  16.784  18.150  0.00  0.00    +0.000 F 
ATOM     30  F   UNL     1       0.027  17.035  20.149  0.00  0.00    +0.000 F 
ENDBRANCH  13  27
BRANCH  15  31
ATOM     31  N   UNL     1      -2.421  13.248  22.387  0.00  0.00    +0.000 N 
ATOM     32  O   UNL     1      -3.478  12.623  22.204  0.00  0.00    +0.000 OA
ATOM     33  O   UNL     1      -2.064  13.708  23.477  0.00  0.00    +0.000 OA
ENDBRANCH  15  31
TORSDOF 3
ENDMDL
MODEL 3
REMARK VINA RESULT:      -8.1      0.521      1.283
REMARK  Name = 
REMARK  4 active torsions:
REMARK  status: ('A' for Active; 'I' for Inactive)
REMARK    1  A    between atoms: C_1  and  C_2
REMARK    2  A    between atoms: C_5  and  C_6
REMARK    3  A    between atoms: C_18  and  C_19
REMARK    4  A    between atoms: C_24  and  N_25
REMARK                            x       y       z     vdW  Elec       q    Type
REMARK                         _______ _______ _______ _____ _____    ______ ____
ROOT
ATOM      1  C   UNL     1       3.146   5.601  19.435  0.00  0.00    +0.000 C 
ATOM      2  O   UNL     1       3.085   4.757  20.330  0.00  0.00    +0.000 OA
ATOM      3  N   UNL     1       2.413   6.790  19.491  0.00  0.00    +0.000 N 
ATOM      4  C   UNL     1       1.682   7.132  20.722  0.00  0.00    +0.000 C 
ATOM      5  C   UNL     1       1.584   8.668  20.957  0.00  0.00    +0.000 C 
ATOM      6  N   UNL     1       1.128   9.367  19.745  0.00  0.00    +0.000 N 
ATOM      7  C   UNL     1       0.110  10.308  19.623  0.00  0.00    +0.000 A 
ATOM      8  N   UNL     1      -0.202  10.672  18.413  0.00  0.00    +0.000 NA
ATOM      9  C   UNL     1      -1.130  11.631  18.219  0.00  0.00    +0.000 A 
ATOM     10  O   UNL     1      -2.041  11.584  17.407  0.00  0.00    +0.000 OA
ATOM     11  C   UNL     1      -0.971  12.820  19.045  0.00  0.00    +0.000 A 
ATOM     12  C   UNL     1      -0.546  14.027  18.500  0.00  0.00    +0.000 A 
ATOM     13  C   UNL     1      -0.501  15.159  19.313  0.00  0.00    +0.000 A 
ATOM     14  C   UNL     1      -1.103  15.075  20.581  0.00  0.00    +0.000 A 
ATOM     15  C   UNL     1      -1.517  13.825  21.104  0.00  0.00    +0.000 A 
ATOM     16  C   UNL     1      -1.250  12.648  20.393  0.00  0.00    +0.000 A 
ATOM     17  S   UNL     1      -0.741  11.022  21.053  0.00  0.00    +0.000 S 
ATOM     18  C   UNL     1       1.911   8.985  18.530  0.00  0.00    +0.000 C 
ATOM     19  C   UNL     1       1.875   7.469  18.311  0.00  0.00    +0.000 C 
ENDROOT
BRANCH   1  24
ATOM     20  C   UNL     1       6.973   4.418  15.207  0.00  0.00    +0.000 C 
ATOM     21  C   UNL     1       5.965   4.733  16.274  0.00  0.00    +0.000 A 
ATOM     22  C   UNL     1       4.769   4.015  16.389  0.00  0.00    +0.000 A 
ATOM     23  C   UNL     1       3.846   4.323  17.397  0.00  0.00    +0.000 A 
ATOM     24  C   UNL     1       4.105   5.360  18.311  0.00  0.00    +0.000 A 
ATOM     25  C   UNL     1       5.314   6.055  18.209  0.00  0.00    +0.000 A 
ATOM     26  C   UNL     1       6.225   5.763  17.190  0.00  0.00    +0.000 A 
ENDBRANCH   1  24
BRANCH  13  27
ATOM     27  C   UNL     1       0.132  16.440  18.833  0.00  0.00    +0.000 C 
ATOM     28  F   UNL     1       0.153  17.417  19.780  0.00  0.00    +0.000 F 
ATOM     29  F   UNL     1       1.415  16.273  18.425  0.00  0.00    +0.000 F 
ATOM     30  F   UNL     1      -0.541  16.968  17.773  0.00  0.00    +0.000 F 
ENDBRANCH  13  27
BRANCH  15  31
ATOM     31  N   UNL     1      -2.497  13.848  22.205  0.00  0.00    +0.000 N 
ATOM     32  O   UNL     1      -2.229  14.559  23.186  0.00  0.00    +0.000 OA
ATOM     33  O   UNL     1      -3.563  13.242  22.055  0.00  0.00    +0.000 OA
ENDBRANCH  15  31
TORSDOF 3
ENDMDL
MODEL 4
REMARK VINA RESULT:      -8.0      0.646      1.018
REMARK  Name = 
REMARK  4 active torsions:
REMARK  status: ('A' for Active; 'I' for Inactive)
REMARK    1  A    between atoms: C_1  and  C_2
REMARK    2  A    between atoms: C_5  and  C_6
REMARK    3  A    between atoms: C_18  and  C_19
REMARK    4  A    between atoms: C_24  and  N_25
REMARK                            x       y       z     vdW  Elec       q    Type
REMARK                         _______ _______ _______ _____ _____    ______ ____
ROOT
ATOM      1  C   UNL     1       3.611   5.053  18.761  0.00  0.00    +0.000 C 
ATOM      2  O   UNL     1       3.574   4.096  19.535  0.00  0.00    +0.000 OA
ATOM      3  N   UNL     1       2.822   6.191  18.953  0.00  0.00    +0.000 N 
ATOM      4  C   UNL     1       2.051   6.333  20.199  0.00  0.00    +0.000 C 
ATOM      5  C   UNL     1       1.875   7.819  20.631  0.00  0.00    +0.000 C 
ATOM      6  N   UNL     1       1.411   8.651  19.510  0.00  0.00    +0.000 N 
ATOM      7  C   UNL     1       0.352   9.553  19.486  0.00  0.00    +0.000 A 
ATOM      8  N   UNL     1       0.047  10.060  18.327  0.00  0.00    +0.000 NA
ATOM      9  C   UNL     1      -0.922  10.994  18.237  0.00  0.00    +0.000 A 
ATOM     10  O   UNL     1      -1.813  11.014  17.402  0.00  0.00    +0.000 OA
ATOM     11  C   UNL     1      -0.837  12.069  19.216  0.00  0.00    +0.000 A 
ATOM     12  C   UNL     1      -0.459  13.355  18.845  0.00  0.00    +0.000 A 
ATOM     13  C   UNL     1      -0.484  14.370  19.800  0.00  0.00    +0.000 A 
ATOM     14  C   UNL     1      -1.107  14.092  21.030  0.00  0.00    +0.000 A 
ATOM     15  C   UNL     1      -1.471  12.767  21.374  0.00  0.00    +0.000 A 
ATOM     16  C   UNL     1      -1.134  11.707  20.522  0.00  0.00    +0.000 A 
ATOM     17  S   UNL     1      -0.561  10.033  20.975  0.00  0.00    +0.000 S 
ATOM     18  C   UNL     1       2.235   8.469  18.276  0.00  0.00    +0.000 C 
ATOM     19  C   UNL     1       2.276   6.995  17.859  0.00  0.00    +0.000 C 
ENDROOT
BRANCH   1  24
ATOM     20  C   UNL     1       7.326   5.096  14.274  0.00  0.00    +0.000 C 
ATOM     21  C   UNL     1       6.394   5.078  15.451  0.00  0.00    +0.000 A 
ATOM     22  C   UNL     1       6.475   6.037  16.467  0.00  0.00    +0.000 A 
ATOM     23  C   UNL     1       5.590   6.004  17.552  0.00  0.00    +0.000 A 
ATOM     24  C   UNL     1       4.603   5.006  17.640  0.00  0.00    +0.000 A 
ATOM     25  C   UNL     1       4.508   4.067  16.608  0.00  0.00    +0.000 A 
ATOM     26  C   UNL     1       5.405   4.086  15.536  0.00  0.00    +0.000 A 
ENDBRANCH   1  24
BRANCH  13  27
ATOM     27  C   UNL     1       0.096  15.731  19.510  0.00  0.00    +0.000 C 
ATOM     28  F   UNL     1       1.326  15.920  20.063  0.00  0.00    +0.000 F 
ATOM     29  F   UNL     1       0.231  15.973  18.181  0.00  0.00    +0.000 F 
ATOM     30  F   UNL     1      -0.688  16.728  20.004  0.00  0.00    +0.000 F 
ENDBRANCH  13  27
BRANCH  15  31
ATOM     31  N   UNL     1      -2.473  12.599  22.442  0.00  0.00    +0.000 N 
ATOM     32  O   UNL     1      -2.160  11.879  23.403  0.00  0.00    +0.000 OA
ATOM     33  O   UNL     1      -3.519  13.252  22.373  0.00  0.00    +0.000 OA
ENDBRANCH  15  31
TORSDOF 3
ENDMDL
MODEL 5
REMARK VINA RESULT:      -7.8      3.965      5.303
REMARK  Name = 
REMARK  4 active torsions:
REMARK  status: ('A' for Active; 'I' for Inactive)
REMARK    1  A    between atoms: C_1  and  C_2
REMARK    2  A    between atoms: C_5  and  C_6
REMARK    3  A    between atoms: C_18  and  C_19
REMARK    4  A    between atoms: C_24  and  N_25
REMARK                            x       y       z     vdW  Elec       q    Type
REMARK                         _______ _______ _______ _____ _____    ______ ____
ROOT
ATOM      1  C   UNL     1       2.274   7.923  18.584  0.00  0.00    +0.000 C 
ATOM      2  O   UNL     1       2.809   8.098  17.488  0.00  0.00    +0.000 OA
ATOM      3  N   UNL     1       1.413   8.869  19.145  0.00  0.00    +0.000 N 
ATOM      4  C   UNL     1       0.991  10.029  18.343  0.00  0.00    +0.000 C 
ATOM      5  C   UNL     1      -0.436  10.530  18.714  0.00  0.00    +0.000 C 
ATOM      6  N   UNL     1      -0.587  10.688  20.170  0.00  0.00    +0.000 N 
ATOM      7  C   UNL     1      -1.082  11.783  20.871  0.00  0.00    +0.000 A 
ATOM      8  N   UNL     1      -0.976  11.738  22.167  0.00  0.00    +0.000 NA
ATOM      9  C   UNL     1      -1.497  12.730  22.918  0.00  0.00    +0.000 A 
ATOM     10  O   UNL     1      -0.938  13.279  23.855  0.00  0.00    +0.000 OA
ATOM     11  C   UNL     1      -2.855  13.121  22.569  0.00  0.00    +0.000 A 
ATOM     12  C   UNL     1      -3.932  12.807  23.392  0.00  0.00    +0.000 A 
ATOM     13  C   UNL     1      -5.199  13.286  23.062  0.00  0.00    +0.000 A 
ATOM     14  C   UNL     1      -5.286  14.248  22.040  0.00  0.00    +0.000 A 
ATOM     15  C   UNL     1      -4.168  14.535  21.218  0.00  0.00    +0.000 A 
ATOM     16  C   UNL     1      -2.987  13.795  21.363  0.00  0.00    +0.000 A 
ATOM     17  S   UNL     1      -1.859  13.201  20.055  0.00  0.00    +0.000 S 
ATOM     18  C   UNL     1      -0.149   9.478  20.930  0.00  0.00    +0.000 C 
ATOM     19  C   UNL     1       1.298   9.110  20.585  0.00  0.00    +0.000 C 
ENDROOT
BRANCH   1  24
ATOM     20  C   UNL     1       3.048   2.686  21.013  0.00  0.00    +0.000 C 
ATOM     21  C   UNL     1       2.877   4.045  20.400  0.00  0.00    +0.000 A 
ATOM     22  C   UNL     1       3.734   4.511  19.396  0.00  0.00    +0.000 A 
ATOM     23  C   UNL     1       3.551   5.781  18.835  0.00  0.00    +0.000 A 
ATOM     24  C   UNL     1       2.503   6.612  19.269  0.00  0.00    +0.000 A 
ATOM     25  C   UNL     1       1.632   6.130  20.253  0.00  0.00    +0.000 A 
ATOM     26  C   UNL     1       1.828   4.872  20.829  0.00  0.00    +0.000 A 
ENDBRANCH   1  24
BRANCH  13  27
ATOM     27  C   UNL     1      -6.427  12.821  23.802  0.00  0.00    +0.000 C 
ATOM     28  F   UNL     1      -7.149  13.841  24.339  0.00  0.00    +0.000 F 
ATOM     29  F   UNL     1      -7.281  12.117  23.016  0.00  0.00    +0.000 F 
ATOM     30  F   UNL     1      -6.107  12.006  24.845  0.00  0.00    +0.000 F 
ENDBRANCH  13  27
BRANCH  15  31
ATOM     31  N   UNL     1      -4.186  15.809  20.478  0.00  0.00    +0.000 N 
ATOM     32  O   UNL     1      -5.246  16.122  19.914  0.00  0.00    +0.000 OA
ATOM     33  O   UNL     1      -3.189  16.536  20.537  0.00  0.00    +0.000 OA
ENDBRANCH  15  31
TORSDOF 3
ENDMDL
MODEL 6
REMARK VINA RESULT:      -7.5      1.364      1.539
REMARK  Name = 
REMARK  4 active torsions:
REMARK  status: ('A' for Active; 'I' for Inactive)
REMARK    1  A    between atoms: C_1  and  C_2
REMARK    2  A    between atoms: C_5  and  C_6
REMARK    3  A    between atoms: C_18  and  C_19
REMARK    4  A    between atoms: C_24  and  N_25
REMARK                            x       y       z     vdW  Elec       q    Type
REMARK                         _______ _______ _______ _____ _____    ______ ____
ROOT
ATOM      1  C   UNL     1       4.365   4.492  18.088  0.00  0.00    +0.000 C 
ATOM      2  O   UNL     1       4.416   3.493  18.806  0.00  0.00    +0.000 OA
ATOM      3  N   UNL     1       3.570   5.595  18.411  0.00  0.00    +0.000 N 
ATOM      4  C   UNL     1       2.906   5.647  19.724  0.00  0.00    +0.000 C 
ATOM      5  C   UNL     1       2.734   7.101  20.254  0.00  0.00    +0.000 C 
ATOM      6  N   UNL     1       2.156   7.981  19.226  0.00  0.00    +0.000 N 
ATOM      7  C   UNL     1       1.079   8.854  19.344  0.00  0.00    +0.000 A 
ATOM      8  N   UNL     1       0.664   9.416  18.246  0.00  0.00    +0.000 NA
ATOM      9  C   UNL     1      -0.329  10.326  18.292  0.00  0.00    +0.000 A 
ATOM     10  O   UNL     1      -1.290  10.368  17.538  0.00  0.00    +0.000 OA
ATOM     11  C   UNL     1      -0.185  11.347  19.320  0.00  0.00    +0.000 A 
ATOM     12  C   UNL     1       0.131  12.662  18.994  0.00  0.00    +0.000 A 
ATOM     13  C   UNL     1       0.165  13.621  20.005  0.00  0.00    +0.000 A 
ATOM     14  C   UNL     1      -0.343  13.259  21.265  0.00  0.00    +0.000 A 
ATOM     15  C   UNL     1      -0.647  11.907  21.561  0.00  0.00    +0.000 A 
ATOM     16  C   UNL     1      -0.361  10.906  20.624  0.00  0.00    +0.000 A 
ATOM     17  S   UNL     1       0.287   9.225  20.930  0.00  0.00    +0.000 S 
ATOM     18  C   UNL     1       2.875   7.890  17.919  0.00  0.00    +0.000 C 
ATOM     19  C   UNL     1       2.913   6.443  17.415  0.00  0.00    +0.000 C 
ENDROOT
BRANCH   1  24
ATOM     20  C   UNL     1       7.771   4.944  13.384  0.00  0.00    +0.000 C 
ATOM     21  C   UNL     1       6.915   4.808  14.610  0.00  0.00    +0.000 A 
ATOM     22  C   UNL     1       7.331   5.297  15.854  0.00  0.00    +0.000 A 
ATOM     23  C   UNL     1       6.512   5.162  16.983  0.00  0.00    +0.000 A 
ATOM     24  C   UNL     1       5.257   4.534  16.886  0.00  0.00    +0.000 A 
ATOM     25  C   UNL     1       4.835   4.073  15.635  0.00  0.00    +0.000 A 
ATOM     26  C   UNL     1       5.661   4.186  14.513  0.00  0.00    +0.000 A 
ENDBRANCH   1  24
BRANCH  13  27
ATOM     27  C   UNL     1       0.687  15.011  19.745  0.00  0.00    +0.000 C 
ATOM     28  F   UNL     1      -0.189  15.795  19.059  0.00  0.00    +0.000 F 
ATOM     29  F   UNL     1       0.991  15.681  20.885  0.00  0.00    +0.000 F 
ATOM     30  F   UNL     1       1.826  14.990  18.998  0.00  0.00    +0.000 F 
ENDBRANCH  13  27
BRANCH  15  31
ATOM     31  N   UNL     1      -1.548  11.653  22.699  0.00  0.00    +0.000 N 
ATOM     32  O   UNL     1      -2.626  12.269  22.715  0.00  0.00    +0.000 OA
ATOM     33  O   UNL     1      -1.233  10.782  23.515  0.00  0.00    +0.000 OA
ENDBRANCH  15  31
TORSDOF 3
ENDMDL
MODEL 7
REMARK VINA RESULT:      -7.4      1.619      2.078
REMARK  Name = 
REMARK  4 active torsions:
REMARK  status: ('A' for Active; 'I' for Inactive)
REMARK    1  A    between atoms: C_1  and  C_2
REMARK    2  A    between atoms: C_5  and  C_6
REMARK    3  A    between atoms: C_18  and  C_19
REMARK    4  A    between atoms: C_24  and  N_25
REMARK                            x       y       z     vdW  Elec       q    Type
REMARK                         _______ _______ _______ _____ _____    ______ ____
ROOT
ATOM      1  C   UNL     1       4.439   4.335  17.738  0.00  0.00    +0.000 C 
ATOM      2  O   UNL     1       4.448   3.275  18.367  0.00  0.00    +0.000 OA
ATOM      3  N   UNL     1       3.680   5.433  18.150  0.00  0.00    +0.000 N 
ATOM      4  C   UNL     1       3.005   5.395  19.458  0.00  0.00    +0.000 C 
ATOM      5  C   UNL     1       2.879   6.803  20.111  0.00  0.00    +0.000 C 
ATOM      6  N   UNL     1       2.343   7.789  19.159  0.00  0.00    +0.000 N 
ATOM      7  C   UNL     1       1.296   8.686  19.344  0.00  0.00    +0.000 A 
ATOM      8  N   UNL     1       0.912   9.355  18.296  0.00  0.00    +0.000 NA
ATOM      9  C   UNL     1      -0.050  10.293  18.414  0.00  0.00    +0.000 A 
ATOM     10  O   UNL     1      -1.000  10.434  17.660  0.00  0.00    +0.000 OA
ATOM     11  C   UNL     1       0.120  11.215  19.528  0.00  0.00    +0.000 A 
ATOM     12  C   UNL     1       0.485  12.541  19.319  0.00  0.00    +0.000 A 
ATOM     13  C   UNL     1       0.542  13.408  20.409  0.00  0.00    +0.000 A 
ATOM     14  C   UNL     1       0.009  12.956  21.629  0.00  0.00    +0.000 A 
ATOM     15  C   UNL     1      -0.345  11.596  21.805  0.00  0.00    +0.000 A 
ATOM     16  C   UNL     1      -0.084  10.670  20.787  0.00  0.00    +0.000 A 
ATOM     17  S   UNL     1       0.501   8.947  20.950  0.00  0.00    +0.000 S 
ATOM     18  C   UNL     1       3.071   7.786  17.854  0.00  0.00    +0.000 C 
ATOM     19  C   UNL     1       3.064   6.387  17.227  0.00  0.00    +0.000 C 
ENDROOT
BRANCH   1  24
ATOM     20  C   UNL     1       7.890   5.064  13.102  0.00  0.00    +0.000 C 
ATOM     21  C   UNL     1       7.023   4.856  14.310  0.00  0.00    +0.000 A 
ATOM     22  C   UNL     1       7.411   5.303  15.579  0.00  0.00    +0.000 A 
ATOM     23  C   UNL     1       6.582   5.102  16.690  0.00  0.00    +0.000 A 
ATOM     24  C   UNL     1       5.345   4.448  16.551  0.00  0.00    +0.000 A 
ATOM     25  C   UNL     1       4.950   4.028  15.277  0.00  0.00    +0.000 A 
ATOM     26  C   UNL     1       5.786   4.208  14.172  0.00  0.00    +0.000 A 
ENDBRANCH   1  24
BRANCH  13  27
ATOM     27  C   UNL     1       1.116  14.796  20.274  0.00  0.00    +0.000 C 
ATOM     28  F   UNL     1       2.457  14.803  20.042  0.00  0.00    +0.000 F 
ATOM     29  F   UNL     1       0.547  15.505  19.267  0.00  0.00    +0.000 F 
ATOM     30  F   UNL     1       0.934  15.528  21.408  0.00  0.00    +0.000 F 
ENDBRANCH  13  27
BRANCH  15  31
ATOM     31  N   UNL     1      -1.266  11.277  22.910  0.00  0.00    +0.000 N 
ATOM     32  O   UNL     1      -0.907  10.401  23.713  0.00  0.00    +0.000 OA
ATOM     33  O   UNL     1      -2.291  11.956  23.034  0.00  0.00    +0.000 OA
ENDBRANCH  15  31
TORSDOF 3
ENDMDL
MODEL 8
REMARK VINA RESULT:      -7.4      3.930      5.108
REMARK  Name = 
REMARK  4 active torsions:
REMARK  status: ('A' for Active; 'I' for Inactive)
REMARK    1  A    between atoms: C_1  and  C_2
REMARK    2  A    between atoms: C_5  and  C_6
REMARK    3  A    between atoms: C_18  and  C_19
REMARK    4  A    between atoms: C_24  and  N_25
REMARK                            x       y       z     vdW  Elec       q    Type
REMARK                         _______ _______ _______ _____ _____    ______ ____
ROOT
ATOM      1  C   UNL     1       2.429   7.807  18.429  0.00  0.00    +0.000 C 
ATOM      2  O   UNL     1       3.232   8.079  17.535  0.00  0.00    +0.000 OA
ATOM      3  N   UNL     1       1.575   8.770  18.973  0.00  0.00    +0.000 N 
ATOM      4  C   UNL     1       1.501  10.103  18.353  0.00  0.00    +0.000 C 
ATOM      5  C   UNL     1       0.096  10.758  18.500  0.00  0.00    +0.000 C 
ATOM      6  N   UNL     1      -0.385  10.687  19.889  0.00  0.00    +0.000 N 
ATOM      7  C   UNL     1      -0.904  11.711  20.675  0.00  0.00    +0.000 A 
ATOM      8  N   UNL     1      -1.123  11.428  21.926  0.00  0.00    +0.000 NA
ATOM      9  C   UNL     1      -1.690  12.348  22.733  0.00  0.00    +0.000 A 
ATOM     10  O   UNL     1      -1.316  12.631  23.861  0.00  0.00    +0.000 OA
ATOM     11  C   UNL     1      -2.867  13.008  22.185  0.00  0.00    +0.000 A 
ATOM     12  C   UNL     1      -4.140  12.737  22.674  0.00  0.00    +0.000 A 
ATOM     13  C   UNL     1      -5.223  13.464  22.182  0.00  0.00    +0.000 A 
ATOM     14  C   UNL     1      -4.945  14.589  21.384  0.00  0.00    +0.000 A 
ATOM     15  C   UNL     1      -3.635  14.826  20.900  0.00  0.00    +0.000 A 
ATOM     16  C   UNL     1      -2.621  13.892  21.144  0.00  0.00    +0.000 A 
ATOM     17  S   UNL     1      -1.286  13.355  20.018  0.00  0.00    +0.000 S 
ATOM     18  C   UNL     1      -0.291   9.310  20.462  0.00  0.00    +0.000 C 
ATOM     19  C   UNL     1       1.142   8.776  20.371  0.00  0.00    +0.000 C 
ENDROOT
BRANCH   1  24
ATOM     20  C   UNL     1       1.740   2.282  20.139  0.00  0.00    +0.000 C 
ATOM     21  C   UNL     1       1.942   3.696  19.678  0.00  0.00    +0.000 A 
ATOM     22  C   UNL     1       1.674   4.085  18.360  0.00  0.00    +0.000 A 
ATOM     23  C   UNL     1       1.865   5.412  17.955  0.00  0.00    +0.000 A 
ATOM     24  C   UNL     1       2.328   6.379  18.866  0.00  0.00    +0.000 A 
ATOM     25  C   UNL     1       2.567   5.991  20.189  0.00  0.00    +0.000 A 
ATOM     26  C   UNL     1       2.399   4.662  20.588  0.00  0.00    +0.000 A 
ENDBRANCH   1  24
BRANCH  13  27
ATOM     27  C   UNL     1      -6.641  13.085  22.528  0.00  0.00    +0.000 C 
ATOM     28  F   UNL     1      -7.203  12.231  21.629  0.00  0.00    +0.000 F 
ATOM     29  F   UNL     1      -6.745  12.488  23.742  0.00  0.00    +0.000 F 
ATOM     30  F   UNL     1      -7.459  14.173  22.564  0.00  0.00    +0.000 F 
ENDBRANCH  13  27
BRANCH  15  31
ATOM     31  N   UNL     1      -3.322  16.194  20.451  0.00  0.00    +0.000 N 
ATOM     32  O   UNL     1      -4.268  16.887  20.043  0.00  0.00    +0.000 OA
ATOM     33  O   UNL     1      -2.166  16.608  20.591  0.00  0.00    +0.000 OA
ENDBRANCH  15  31
TORSDOF 3
ENDMDL
MODEL 9
REMARK VINA RESULT:      -7.3      6.136      8.591
REMARK  Name = 
REMARK  4 active torsions:
REMARK  status: ('A' for Active; 'I' for Inactive)
REMARK    1  A    between atoms: C_1  and  C_2
REMARK    2  A    between atoms: C_5  and  C_6
REMARK    3  A    between atoms: C_18  and  C_19
REMARK    4  A    between atoms: C_24  and  N_25
REMARK                            x       y       z     vdW  Elec       q    Type
REMARK                         _______ _______ _______ _____ _____    ______ ____
ROOT
ATOM      1  C   UNL     1      -2.136  12.016  19.559  0.00  0.00    +0.000 C 
ATOM      2  O   UNL     1      -2.860  11.928  20.553  0.00  0.00    +0.000 OA
ATOM      3  N   UNL     1      -0.854  12.568  19.625  0.00  0.00    +0.000 N 
ATOM      4  C   UNL     1      -0.275  12.897  20.938  0.00  0.00    +0.000 C 
ATOM      5  C   UNL     1       1.275  12.754  20.965  0.00  0.00    +0.000 C 
ATOM      6  N   UNL     1       1.896  13.438  19.819  0.00  0.00    +0.000 N 
ATOM      7  C   UNL     1       2.956  14.338  19.824  0.00  0.00    +0.000 A 
ATOM      8  N   UNL     1       3.227  14.921  18.692  0.00  0.00    +0.000 NA
ATOM      9  C   UNL     1       4.285  15.753  18.602  0.00  0.00    +0.000 A 
ATOM     10  O   UNL     1       4.283  16.849  18.062  0.00  0.00    +0.000 OA
ATOM     11  C   UNL     1       5.521  15.245  19.181  0.00  0.00    +0.000 A 
ATOM     12  C   UNL     1       6.585  14.850  18.377  0.00  0.00    +0.000 A 
ATOM     13  C   UNL     1       7.780  14.461  18.980  0.00  0.00    +0.000 A 
ATOM     14  C   UNL     1       7.926  14.704  20.357  0.00  0.00    +0.000 A 
ATOM     15  C   UNL     1       6.815  15.100  21.143  0.00  0.00    +0.000 A 
ATOM     16  C   UNL     1       5.541  15.169  20.566  0.00  0.00    +0.000 A 
ATOM     17  S   UNL     1       3.940  14.687  21.303  0.00  0.00    +0.000 S 
ATOM     18  C   UNL     1       1.272  13.060  18.515  0.00  0.00    +0.000 C 
ATOM     19  C   UNL     1      -0.238  13.324  18.534  0.00  0.00    +0.000 C 
ENDROOT
BRANCH   1  24
ATOM     20  C   UNL     1      -3.900   9.908  14.423  0.00  0.00    +0.000 C 
ATOM     21  C   UNL     1      -3.448  10.421  15.760  0.00  0.00    +0.000 A 
ATOM     22  C   UNL     1      -2.230  10.026  16.325  0.00  0.00    +0.000 A 
ATOM     23  C   UNL     1      -1.826  10.523  17.571  0.00  0.00    +0.000 A 
ATOM     24  C   UNL     1      -2.638  11.428  18.277  0.00  0.00    +0.000 A 
ATOM     25  C   UNL     1      -3.841  11.842  17.695  0.00  0.00    +0.000 A 
ATOM     26  C   UNL     1      -4.255  11.329  16.462  0.00  0.00    +0.000 A 
ENDBRANCH   1  24
BRANCH  13  27
ATOM     27  C   UNL     1       8.894  13.840  18.176  0.00  0.00    +0.000 C 
ATOM     28  F   UNL     1       9.793  13.159  18.938  0.00  0.00    +0.000 F 
ATOM     29  F   UNL     1       8.445  12.966  17.240  0.00  0.00    +0.000 F 
ATOM     30  F   UNL     1       9.617  14.780  17.506  0.00  0.00    +0.000 F 
ENDBRANCH  13  27
BRANCH  15  31
ATOM     31  N   UNL     1       7.102  15.738  22.440  0.00  0.00    +0.000 N 
ATOM     32  O   UNL     1       7.059  16.978  22.483  0.00  0.00    +0.000 OA
ATOM     33  O   UNL     1       7.274  15.014  23.426  0.00  0.00    +0.000 OA
ENDBRANCH  15  31
TORSDOF 3
ENDMDL
