MODEL 1
REMARK VINA RESULT:      -8.4      0.000      0.000
REMARK  Name = 
REMARK  7 active torsions:
REMARK  status: ('A' for Active; 'I' for Inactive)
REMARK    1  A    between atoms: C_1  and  C_2
REMARK    2  A    between atoms: C_2  and  C_3
REMARK    3  A    between atoms: C_3  and  N_4
REMARK    4  A    between atoms: N_4  and  C_5
REMARK    5  A    between atoms: N_4  and  C_12
REMARK    6  A    between atoms: C_5  and  C_6
REMARK    7  A    between atoms: C_19  and  O_20
REMARK                            x       y       z     vdW  Elec       q    Type
REMARK                         _______ _______ _______ _____ _____    ______ ____
ROOT
ATOM      1  C   UNL     1       3.977   5.296  17.297  0.00  0.00    +0.000 C 
ATOM      2  C   UNL     1       3.668   6.171  18.534  0.00  0.00    +0.000 C 
ATOM      3  C   UNL     1       2.214   5.873  18.976  0.00  0.00    +0.000 C 
ATOM      4  C   UNL     1       2.146   4.450  19.470  0.00  0.00    +0.000 A 
ATOM      5  C   UNL     1       1.247   4.093  20.482  0.00  0.00    +0.000 A 
ATOM      6  C   UNL     1       1.574   3.061  21.339  0.00  0.00    +0.000 A 
ATOM      7  C   UNL     1       2.831   2.442  21.215  0.00  0.00    +0.000 A 
ATOM      8  C   UNL     1       3.630   2.719  20.103  0.00  0.00    +0.000 A 
ATOM      9  C   UNL     1       3.214   3.613  19.127  0.00  0.00    +0.000 A 
ATOM     10  C   UNL     1       3.899   3.806  17.785  0.00  0.00    +0.000 C 
ENDROOT
BRANCH   8  11
ATOM     11  O   UNL     1       4.905   2.231  20.066  0.00  0.00    +0.000 OA
ATOM     12  H   UNL     1       4.807   1.264  19.999  0.00  0.00    +0.000 HD
ENDBRANCH   8  11
BRANCH   1  13
ATOM     13  N   UNL     1       5.235   5.591  16.541  0.00  0.00    +0.000 NA
BRANCH  13  14
ATOM     14  C   UNL     1       6.107   6.519  17.304  0.00  0.00    +0.000 C 
BRANCH  14  16
ATOM     15  C   UNL     1       7.666   5.830  19.244  0.00  0.00    +0.000 C 
ATOM     16  C   UNL     1       7.495   6.013  17.746  0.00  0.00    +0.000 C 
ENDBRANCH  14  16
ENDBRANCH  13  14
BRANCH  13  17
ATOM     17  C   UNL     1       5.958   4.390  16.060  0.00  0.00    +0.000 C 
BRANCH  17  18
ATOM     18  C   UNL     1       6.360   4.332  14.591  0.00  0.00    +0.000 A 
ATOM     19  C   UNL     1       5.679   3.513  13.677  0.00  0.00    +0.000 A 
ATOM     20  C   UNL     1       6.045   3.462  12.330  0.00  0.00    +0.000 A 
ATOM     21  C   UNL     1       7.086   4.258  11.864  0.00  0.00    +0.000 A 
ATOM     22  C   UNL     1       7.759   5.100  12.744  0.00  0.00    +0.000 A 
ATOM     23  C   UNL     1       7.392   5.141  14.092  0.00  0.00    +0.000 A 
ENDBRANCH  17  18
ENDBRANCH  13  17
ENDBRANCH   1  13
TORSDOF 6
ENDMDL
MODEL 2
REMARK VINA RESULT:      -8.3      0.479      1.163
REMARK  Name = 
REMARK  7 active torsions:
REMARK  status: ('A' for Active; 'I' for Inactive)
REMARK    1  A    between atoms: C_1  and  C_2
REMARK    2  A    between atoms: C_2  and  C_3
REMARK    3  A    between atoms: C_3  and  N_4
REMARK    4  A    between atoms: N_4  and  C_5
REMARK    5  A    between atoms: N_4  and  C_12
REMARK    6  A    between atoms: C_5  and  C_6
REMARK    7  A    between atoms: C_19  and  O_20
REMARK                            x       y       z     vdW  Elec       q    Type
REMARK                         _______ _______ _______ _____ _____    ______ ____
ROOT
ATOM      1  C   UNL     1       3.822   5.415  17.201  0.00  0.00    +0.000 C 
ATOM      2  C   UNL     1       3.605   6.265  18.474  0.00  0.00    +0.000 C 
ATOM      3  C   UNL     1       2.200   5.932  19.034  0.00  0.00    +0.000 C 
ATOM      4  C   UNL     1       2.201   4.500  19.509  0.00  0.00    +0.000 A 
ATOM      5  C   UNL     1       1.398   4.111  20.587  0.00  0.00    +0.000 A 
ATOM      6  C   UNL     1       1.817   3.073  21.396  0.00  0.00    +0.000 A 
ATOM      7  C   UNL     1       3.070   2.481  21.155  0.00  0.00    +0.000 A 
ATOM      8  C   UNL     1       3.765   2.791  19.984  0.00  0.00    +0.000 A 
ATOM      9  C   UNL     1       3.250   3.690  19.062  0.00  0.00    +0.000 A 
ATOM     10  C   UNL     1       3.814   3.917  17.669  0.00  0.00    +0.000 C 
ENDROOT
BRANCH   8  11
ATOM     11  O   UNL     1       5.041   2.328  19.830  0.00  0.00    +0.000 OA
ATOM     12  H   UNL     1       5.483   2.982  19.257  0.00  0.00    +0.000 HD
ENDBRANCH   8  11
BRANCH   1  13
ATOM     13  N   UNL     1       5.006   5.746  16.346  0.00  0.00    +0.000 NA
BRANCH  13  14
ATOM     14  C   UNL     1       5.800   6.849  16.943  0.00  0.00    +0.000 C 
BRANCH  14  16
ATOM     15  C   UNL     1       8.005   7.713  17.973  0.00  0.00    +0.000 C 
ATOM     16  C   UNL     1       7.191   6.513  17.519  0.00  0.00    +0.000 C 
ENDBRANCH  14  16
ENDBRANCH  13  14
BRANCH  13  17
ATOM     17  C   UNL     1       5.838   4.578  15.971  0.00  0.00    +0.000 C 
BRANCH  17  18
ATOM     18  C   UNL     1       6.317   4.469  14.528  0.00  0.00    +0.000 A 
ATOM     19  C   UNL     1       7.391   5.237  14.053  0.00  0.00    +0.000 A 
ATOM     20  C   UNL     1       7.834   5.136  12.733  0.00  0.00    +0.000 A 
ATOM     21  C   UNL     1       7.225   4.236  11.865  0.00  0.00    +0.000 A 
ATOM     22  C   UNL     1       6.176   3.441  12.319  0.00  0.00    +0.000 A 
ATOM     23  C   UNL     1       5.734   3.552  13.640  0.00  0.00    +0.000 A 
ENDBRANCH  17  18
ENDBRANCH  13  17
ENDBRANCH   1  13
TORSDOF 6
ENDMDL
MODEL 3
REMARK VINA RESULT:      -8.2      1.480      1.993
REMARK  Name = 
REMARK  7 active torsions:
REMARK  status: ('A' for Active; 'I' for Inactive)
REMARK    1  A    between atoms: C_1  and  C_2
REMARK    2  A    between atoms: C_2  and  C_3
REMARK    3  A    between atoms: C_3  and  N_4
REMARK    4  A    between atoms: N_4  and  C_5
REMARK    5  A    between atoms: N_4  and  C_12
REMARK    6  A    between atoms: C_5  and  C_6
REMARK    7  A    between atoms: C_19  and  O_20
REMARK                            x       y       z     vdW  Elec       q    Type
REMARK                         _______ _______ _______ _____ _____    ______ ____
ROOT
ATOM      1  C   UNL     1       5.103   4.395  17.526  0.00  0.00    +0.000 C 
ATOM      2  C   UNL     1       3.805   3.814  16.919  0.00  0.00    +0.000 C 
ATOM      3  C   UNL     1       3.368   2.613  17.795  0.00  0.00    +0.000 C 
ATOM      4  C   UNL     1       2.971   3.133  19.155  0.00  0.00    +0.000 A 
ATOM      5  C   UNL     1       1.976   2.488  19.898  0.00  0.00    +0.000 A 
ATOM      6  C   UNL     1       1.196   3.229  20.763  0.00  0.00    +0.000 A 
ATOM      7  C   UNL     1       1.377   4.622  20.824  0.00  0.00    +0.000 A 
ATOM      8  C   UNL     1       2.477   5.203  20.187  0.00  0.00    +0.000 A 
ATOM      9  C   UNL     1       3.384   4.431  19.478  0.00  0.00    +0.000 A 
ATOM     10  C   UNL     1       4.718   4.931  18.950  0.00  0.00    +0.000 C 
ENDROOT
BRANCH   8  11
ATOM     11  O   UNL     1       2.563   6.565  20.126  0.00  0.00    +0.000 OA
ATOM     12  H   UNL     1       3.370   6.747  19.611  0.00  0.00    +0.000 HD
ENDBRANCH   8  11
BRANCH   1  13
ATOM     13  N   UNL     1       5.852   5.404  16.712  0.00  0.00    +0.000 NA
BRANCH  13  14
ATOM     14  C   UNL     1       6.124   6.629  17.504  0.00  0.00    +0.000 C 
BRANCH  14  16
ATOM     15  C   UNL     1       7.857   8.532  17.705  0.00  0.00    +0.000 C 
ATOM     16  C   UNL     1       7.594   7.037  17.730  0.00  0.00    +0.000 C 
ENDBRANCH  14  16
ENDBRANCH  13  14
BRANCH  13  17
ATOM     17  C   UNL     1       7.063   4.874  16.041  0.00  0.00    +0.000 C 
BRANCH  17  18
ATOM     18  C   UNL     1       6.998   4.611  14.541  0.00  0.00    +0.000 A 
ATOM     19  C   UNL     1       6.109   3.670  13.999  0.00  0.00    +0.000 A 
ATOM     20  C   UNL     1       6.046   3.432  12.625  0.00  0.00    +0.000 A 
ATOM     21  C   UNL     1       6.857   4.157  11.758  0.00  0.00    +0.000 A 
ATOM     22  C   UNL     1       7.727   5.117  12.267  0.00  0.00    +0.000 A 
ATOM     23  C   UNL     1       7.789   5.346  13.644  0.00  0.00    +0.000 A 
ENDBRANCH  17  18
ENDBRANCH  13  17
ENDBRANCH   1  13
TORSDOF 6
ENDMDL
MODEL 4
REMARK VINA RESULT:      -8.1      1.163      1.631
REMARK  Name = 
REMARK  7 active torsions:
REMARK  status: ('A' for Active; 'I' for Inactive)
REMARK    1  A    between atoms: C_1  and  C_2
REMARK    2  A    between atoms: C_2  and  C_3
REMARK    3  A    between atoms: C_3  and  N_4
REMARK    4  A    between atoms: N_4  and  C_5
REMARK    5  A    between atoms: N_4  and  C_12
REMARK    6  A    between atoms: C_5  and  C_6
REMARK    7  A    between atoms: C_19  and  O_20
REMARK                            x       y       z     vdW  Elec       q    Type
REMARK                         _______ _______ _______ _____ _____    ______ ____
ROOT
ATOM      1  C   UNL     1       4.551   5.279  17.651  0.00  0.00    +0.000 C 
ATOM      2  C   UNL     1       4.589   5.376  19.194  0.00  0.00    +0.000 C 
ATOM      3  C   UNL     1       3.180   5.798  19.678  0.00  0.00    +0.000 C 
ATOM      4  C   UNL     1       2.215   4.679  19.375  0.00  0.00    +0.000 A 
ATOM      5  C   UNL     1       1.112   4.450  20.206  0.00  0.00    +0.000 A 
ATOM      6  C   UNL     1       0.622   3.165  20.335  0.00  0.00    +0.000 A 
ATOM      7  C   UNL     1       1.288   2.111  19.683  0.00  0.00    +0.000 A 
ATOM      8  C   UNL     1       2.284   2.399  18.747  0.00  0.00    +0.000 A 
ATOM      9  C   UNL     1       2.643   3.708  18.462  0.00  0.00    +0.000 A 
ATOM     10  C   UNL     1       3.541   4.126  17.310  0.00  0.00    +0.000 C 
ENDROOT
BRANCH   8  11
ATOM     11  O   UNL     1       3.024   1.373  18.231  0.00  0.00    +0.000 OA
ATOM     12  H   UNL     1       2.861   1.397  17.271  0.00  0.00    +0.000 HD
ENDBRANCH   8  11
BRANCH   1  13
ATOM     13  N   UNL     1       5.859   5.130  16.938  0.00  0.00    +0.000 NA
BRANCH  13  14
ATOM     14  C   UNL     1       6.991   5.148  17.897  0.00  0.00    +0.000 C 
BRANCH  14  16
ATOM     15  C   UNL     1       7.210   7.656  17.326  0.00  0.00    +0.000 C 
ATOM     16  C   UNL     1       7.798   6.454  18.044  0.00  0.00    +0.000 C 
ENDBRANCH  14  16
ENDBRANCH  13  14
BRANCH  13  17
ATOM     17  C   UNL     1       5.919   3.982  16.001  0.00  0.00    +0.000 C 
BRANCH  17  18
ATOM     18  C   UNL     1       6.426   4.234  14.586  0.00  0.00    +0.000 A 
ATOM     19  C   UNL     1       7.430   5.179  14.324  0.00  0.00    +0.000 A 
ATOM     20  C   UNL     1       7.897   5.408  13.029  0.00  0.00    +0.000 A 
ATOM     21  C   UNL     1       7.385   4.670  11.966  0.00  0.00    +0.000 A 
ATOM     22  C   UNL     1       6.408   3.707  12.203  0.00  0.00    +0.000 A 
ATOM     23  C   UNL     1       5.941   3.487  13.501  0.00  0.00    +0.000 A 
ENDBRANCH  17  18
ENDBRANCH  13  17
ENDBRANCH   1  13
TORSDOF 6
ENDMDL
MODEL 5
REMARK VINA RESULT:      -8.1      1.489      2.241
REMARK  Name = 
REMARK  7 active torsions:
REMARK  status: ('A' for Active; 'I' for Inactive)
REMARK    1  A    between atoms: C_1  and  C_2
REMARK    2  A    between atoms: C_2  and  C_3
REMARK    3  A    between atoms: C_3  and  N_4
REMARK    4  A    between atoms: N_4  and  C_5
REMARK    5  A    between atoms: N_4  and  C_12
REMARK    6  A    between atoms: C_5  and  C_6
REMARK    7  A    between atoms: C_19  and  O_20
REMARK                            x       y       z     vdW  Elec       q    Type
REMARK                         _______ _______ _______ _____ _____    ______ ____
ROOT
ATOM      1  C   UNL     1       5.127   4.335  17.587  0.00  0.00    +0.000 C 
ATOM      2  C   UNL     1       3.840   3.748  16.962  0.00  0.00    +0.000 C 
ATOM      3  C   UNL     1       3.383   2.561  17.846  0.00  0.00    +0.000 C 
ATOM      4  C   UNL     1       2.961   3.100  19.190  0.00  0.00    +0.000 A 
ATOM      5  C   UNL     1       1.949   2.467  19.922  0.00  0.00    +0.000 A 
ATOM      6  C   UNL     1       1.154   3.222  20.761  0.00  0.00    +0.000 A 
ATOM      7  C   UNL     1       1.336   4.616  20.805  0.00  0.00    +0.000 A 
ATOM      8  C   UNL     1       2.449   5.186  20.183  0.00  0.00    +0.000 A 
ATOM      9  C   UNL     1       3.369   4.402  19.503  0.00  0.00    +0.000 A 
ATOM     10  C   UNL     1       4.714   4.893  18.995  0.00  0.00    +0.000 C 
ENDROOT
BRANCH   8  11
ATOM     11  O   UNL     1       2.540   6.546  20.104  0.00  0.00    +0.000 OA
ATOM     12  H   UNL     1       2.878   6.729  19.208  0.00  0.00    +0.000 HD
ENDBRANCH   8  11
BRANCH   1  13
ATOM     13  N   UNL     1       5.894   5.332  16.773  0.00  0.00    +0.000 NA
BRANCH  13  14
ATOM     14  C   UNL     1       6.231   6.530  17.581  0.00  0.00    +0.000 C 
BRANCH  14  16
ATOM     15  C   UNL     1       7.755   8.606  17.768  0.00  0.00    +0.000 C 
ATOM     16  C   UNL     1       7.646   7.127  17.438  0.00  0.00    +0.000 C 
ENDBRANCH  14  16
ENDBRANCH  13  14
BRANCH  13  17
ATOM     17  C   UNL     1       7.067   4.769  16.062  0.00  0.00    +0.000 C 
BRANCH  17  18
ATOM     18  C   UNL     1       6.965   4.564  14.555  0.00  0.00    +0.000 A 
ATOM     19  C   UNL     1       7.801   5.255  13.664  0.00  0.00    +0.000 A 
ATOM     20  C   UNL     1       7.711   5.065  12.284  0.00  0.00    +0.000 A 
ATOM     21  C   UNL     1       6.797   4.152  11.767  0.00  0.00    +0.000 A 
ATOM     22  C   UNL     1       5.976   3.433  12.632  0.00  0.00    +0.000 A 
ATOM     23  C   UNL     1       6.067   3.633  14.012  0.00  0.00    +0.000 A 
ENDBRANCH  17  18
ENDBRANCH  13  17
ENDBRANCH   1  13
TORSDOF 6
ENDMDL
MODEL 6
REMARK VINA RESULT:      -8.0      1.035      3.821
REMARK  Name = 
REMARK  7 active torsions:
REMARK  status: ('A' for Active; 'I' for Inactive)
REMARK    1  A    between atoms: C_1  and  C_2
REMARK    2  A    between atoms: C_2  and  C_3
REMARK    3  A    between atoms: C_3  and  N_4
REMARK    4  A    between atoms: N_4  and  C_5
REMARK    5  A    between atoms: N_4  and  C_12
REMARK    6  A    between atoms: C_5  and  C_6
REMARK    7  A    between atoms: C_19  and  O_20
REMARK                            x       y       z     vdW  Elec       q    Type
REMARK                         _______ _______ _______ _____ _____    ______ ____
ROOT
ATOM      1  C   UNL     1       3.862   4.169  16.719  0.00  0.00    +0.000 C 
ATOM      2  C   UNL     1       3.219   5.303  17.550  0.00  0.00    +0.000 C 
ATOM      3  C   UNL     1       1.792   4.850  17.949  0.00  0.00    +0.000 C 
ATOM      4  C   UNL     1       1.909   3.681  18.896  0.00  0.00    +0.000 A 
ATOM      5  C   UNL     1       0.948   3.478  19.893  0.00  0.00    +0.000 A 
ATOM      6  C   UNL     1       1.324   2.873  21.076  0.00  0.00    +0.000 A 
ATOM      7  C   UNL     1       2.677   2.541  21.274  0.00  0.00    +0.000 A 
ATOM      8  C   UNL     1       3.570   2.617  20.203  0.00  0.00    +0.000 A 
ATOM      9  C   UNL     1       3.150   3.036  18.949  0.00  0.00    +0.000 A 
ATOM     10  C   UNL     1       3.982   2.936  17.682  0.00  0.00    +0.000 C 
ENDROOT
BRANCH   8  11
ATOM     11  O   UNL     1       4.903   2.437  20.438  0.00  0.00    +0.000 OA
ATOM     12  H   UNL     1       5.332   3.251  20.119  0.00  0.00    +0.000 HD
ENDBRANCH   8  11
BRANCH   1  13
ATOM     13  N   UNL     1       5.145   4.478  16.012  0.00  0.00    +0.000 NA
BRANCH  13  14
ATOM     14  C   UNL     1       5.134   3.934  14.631  0.00  0.00    +0.000 C 
BRANCH  14  16
ATOM     15  C   UNL     1       6.327   3.495  12.384  0.00  0.00    +0.000 C 
ATOM     16  C   UNL     1       6.426   4.044  13.797  0.00  0.00    +0.000 C 
ENDBRANCH  14  16
ENDBRANCH  13  14
BRANCH  13  17
ATOM     17  C   UNL     1       5.546   5.904  16.064  0.00  0.00    +0.000 C 
BRANCH  17  18
ATOM     18  C   UNL     1       6.572   6.326  17.110  0.00  0.00    +0.000 A 
ATOM     19  C   UNL     1       7.130   7.613  17.111  0.00  0.00    +0.000 A 
ATOM     20  C   UNL     1       8.067   8.001  18.070  0.00  0.00    +0.000 A 
ATOM     21  C   UNL     1       8.443   7.112  19.072  0.00  0.00    +0.000 A 
ATOM     22  C   UNL     1       7.883   5.838  19.110  0.00  0.00    +0.000 A 
ATOM     23  C   UNL     1       6.951   5.454  18.143  0.00  0.00    +0.000 A 
ENDBRANCH  17  18
ENDBRANCH  13  17
ENDBRANCH   1  13
TORSDOF 6
ENDMDL
MODEL 7
REMARK VINA RESULT:      -8.0      1.024      3.730
REMARK  Name = 
REMARK  7 active torsions:
REMARK  status: ('A' for Active; 'I' for Inactive)
REMARK    1  A    between atoms: C_1  and  C_2
REMARK    2  A    between atoms: C_2  and  C_3
REMARK    3  A    between atoms: C_3  and  N_4
REMARK    4  A    between atoms: N_4  and  C_5
REMARK    5  A    between atoms: N_4  and  C_12
REMARK    6  A    between atoms: C_5  and  C_6
REMARK    7  A    between atoms: C_19  and  O_20
REMARK                            x       y       z     vdW  Elec       q    Type
REMARK                         _______ _______ _______ _____ _____    ______ ____
ROOT
ATOM      1  C   UNL     1       3.927   4.288  16.771  0.00  0.00    +0.000 C 
ATOM      2  C   UNL     1       3.427   5.444  17.668  0.00  0.00    +0.000 C 
ATOM      3  C   UNL     1       1.959   5.142  18.059  0.00  0.00    +0.000 C 
ATOM      4  C   UNL     1       1.941   3.919  18.942  0.00  0.00    +0.000 A 
ATOM      5  C   UNL     1       0.967   3.779  19.937  0.00  0.00    +0.000 A 
ATOM      6  C   UNL     1       1.275   3.071  21.083  0.00  0.00    +0.000 A 
ATOM      7  C   UNL     1       2.579   2.571  21.248  0.00  0.00    +0.000 A 
ATOM      8  C   UNL     1       3.469   2.597  20.172  0.00  0.00    +0.000 A 
ATOM      9  C   UNL     1       3.096   3.129  18.947  0.00  0.00    +0.000 A 
ATOM     10  C   UNL     1       3.904   2.999  17.667  0.00  0.00    +0.000 C 
ENDROOT
BRANCH   8  11
ATOM     11  O   UNL     1       4.772   2.248  20.383  0.00  0.00    +0.000 OA
ATOM     12  H   UNL     1       5.138   2.078  19.495  0.00  0.00    +0.000 HD
ENDBRANCH   8  11
BRANCH   1  13
ATOM     13  N   UNL     1       5.234   4.479  16.067  0.00  0.00    +0.000 NA
BRANCH  13  14
ATOM     14  C   UNL     1       5.226   3.810  14.742  0.00  0.00    +0.000 C 
BRANCH  14  16
ATOM     15  C   UNL     1       6.268   3.446  12.408  0.00  0.00    +0.000 C 
ATOM     16  C   UNL     1       6.301   4.219  13.715  0.00  0.00    +0.000 C 
ENDBRANCH  14  16
ENDBRANCH  13  14
BRANCH  13  17
ATOM     17  C   UNL     1       5.692   5.887  15.996  0.00  0.00    +0.000 C 
BRANCH  17  18
ATOM     18  C   UNL     1       6.663   6.383  17.061  0.00  0.00    +0.000 A 
ATOM     19  C   UNL     1       7.134   5.534  18.075  0.00  0.00    +0.000 A 
ATOM     20  C   UNL     1       8.026   5.986  19.048  0.00  0.00    +0.000 A 
ATOM     21  C   UNL     1       8.491   7.297  19.009  0.00  0.00    +0.000 A 
ATOM     22  C   UNL     1       8.062   8.151  17.996  0.00  0.00    +0.000 A 
ATOM     23  C   UNL     1       7.164   7.694  17.029  0.00  0.00    +0.000 A 
ENDBRANCH  17  18
ENDBRANCH  13  17
ENDBRANCH   1  13
TORSDOF 6
ENDMDL
MODEL 8
REMARK VINA RESULT:      -7.7      1.597      2.333
REMARK  Name = 
REMARK  7 active torsions:
REMARK  status: ('A' for Active; 'I' for Inactive)
REMARK    1  A    between atoms: C_1  and  C_2
REMARK    2  A    between atoms: C_2  and  C_3
REMARK    3  A    between atoms: C_3  and  N_4
REMARK    4  A    between atoms: N_4  and  C_5
REMARK    5  A    between atoms: N_4  and  C_12
REMARK    6  A    between atoms: C_5  and  C_6
REMARK    7  A    between atoms: C_19  and  O_20
REMARK                            x       y       z     vdW  Elec       q    Type
REMARK                         _______ _______ _______ _____ _____    ______ ____
ROOT
ATOM      1  C   UNL     1       5.092   5.208  18.128  0.00  0.00    +0.000 C 
ATOM      2  C   UNL     1       5.262   3.693  18.391  0.00  0.00    +0.000 C 
ATOM      3  C   UNL     1       4.768   3.402  19.830  0.00  0.00    +0.000 C 
ATOM      4  C   UNL     1       3.281   3.650  19.885  0.00  0.00    +0.000 A 
ATOM      5  C   UNL     1       2.470   2.905  20.749  0.00  0.00    +0.000 A 
ATOM      6  C   UNL     1       1.158   2.660  20.395  0.00  0.00    +0.000 A 
ATOM      7  C   UNL     1       0.693   3.106  19.145  0.00  0.00    +0.000 A 
ATOM      8  C   UNL     1       1.480   3.973  18.385  0.00  0.00    +0.000 A 
ATOM      9  C   UNL     1       2.726   4.387  18.832  0.00  0.00    +0.000 A 
ATOM     10  C   UNL     1       3.549   5.493  18.194  0.00  0.00    +0.000 C 
ENDROOT
BRANCH   8  11
ATOM     11  O   UNL     1       1.088   4.281  17.113  0.00  0.00    +0.000 OA
ATOM     12  H   UNL     1       1.801   3.948  16.537  0.00  0.00    +0.000 HD
ENDBRANCH   8  11
BRANCH   1  13
ATOM     13  N   UNL     1       5.731   5.769  16.896  0.00  0.00    +0.000 NA
BRANCH  13  14
ATOM     14  C   UNL     1       6.153   7.175  17.110  0.00  0.00    +0.000 C 
BRANCH  14  16
ATOM     15  C   UNL     1       7.972   8.903  17.720  0.00  0.00    +0.000 C 
ATOM     16  C   UNL     1       7.594   7.437  17.591  0.00  0.00    +0.000 C 
ENDBRANCH  14  16
ENDBRANCH  13  14
BRANCH  13  17
ATOM     17  C   UNL     1       6.811   4.926  16.328  0.00  0.00    +0.000 C 
BRANCH  17  18
ATOM     18  C   UNL     1       6.808   4.669  14.826  0.00  0.00    +0.000 A 
ATOM     19  C   UNL     1       7.726   5.301  13.973  0.00  0.00    +0.000 A 
ATOM     20  C   UNL     1       7.726   5.063  12.597  0.00  0.00    +0.000 A 
ATOM     21  C   UNL     1       6.822   4.159  12.049  0.00  0.00    +0.000 A 
ATOM     22  C   UNL     1       5.921   3.497  12.878  0.00  0.00    +0.000 A 
ATOM     23  C   UNL     1       5.921   3.744  14.253  0.00  0.00    +0.000 A 
ENDBRANCH  17  18
ENDBRANCH  13  17
ENDBRANCH   1  13
TORSDOF 6
ENDMDL
MODEL 9
REMARK VINA RESULT:      -7.5      0.696      1.297
REMARK  Name = 
REMARK  7 active torsions:
REMARK  status: ('A' for Active; 'I' for Inactive)
REMARK    1  A    between atoms: C_1  and  C_2
REMARK    2  A    between atoms: C_2  and  C_3
REMARK    3  A    between atoms: C_3  and  N_4
REMARK    4  A    between atoms: N_4  and  C_5
REMARK    5  A    between atoms: N_4  and  C_12
REMARK    6  A    between atoms: C_5  and  C_6
REMARK    7  A    between atoms: C_19  and  O_20
REMARK                            x       y       z     vdW  Elec       q    Type
REMARK                         _______ _______ _______ _____ _____    ______ ____
ROOT
ATOM      1  C   UNL     1       4.146   5.165  17.413  0.00  0.00    +0.000 C 
ATOM      2  C   UNL     1       3.737   6.044  18.617  0.00  0.00    +0.000 C 
ATOM      3  C   UNL     1       2.260   5.724  18.959  0.00  0.00    +0.000 C 
ATOM      4  C   UNL     1       2.183   4.303  19.460  0.00  0.00    +0.000 A 
ATOM      5  C   UNL     1       1.222   3.938  20.410  0.00  0.00    +0.000 A 
ATOM      6  C   UNL     1       1.506   2.918  21.296  0.00  0.00    +0.000 A 
ATOM      7  C   UNL     1       2.779   2.322  21.266  0.00  0.00    +0.000 A 
ATOM      8  C   UNL     1       3.649   2.605  20.211  0.00  0.00    +0.000 A 
ATOM      9  C   UNL     1       3.287   3.483  19.200  0.00  0.00    +0.000 A 
ATOM     10  C   UNL     1       4.060   3.678  17.907  0.00  0.00    +0.000 C 
ENDROOT
BRANCH   8  11
ATOM     11  O   UNL     1       4.932   2.140  20.267  0.00  0.00    +0.000 OA
ATOM     12  H   UNL     1       5.418   2.648  19.592  0.00  0.00    +0.000 HD
ENDBRANCH   8  11
BRANCH   1  13
ATOM     13  N   UNL     1       5.449   5.478  16.744  0.00  0.00    +0.000 NA
BRANCH  13  14
ATOM     14  C   UNL     1       6.388   4.334  16.851  0.00  0.00    +0.000 C 
BRANCH  14  16
ATOM     15  C   UNL     1       7.675   5.588  18.704  0.00  0.00    +0.000 C 
ATOM     16  C   UNL     1       7.722   4.554  17.593  0.00  0.00    +0.000 C 
ENDBRANCH  14  16
ENDBRANCH  13  14
BRANCH  13  17
ATOM     17  C   UNL     1       5.320   5.988  15.358  0.00  0.00    +0.000 C 
BRANCH  17  18
ATOM     18  C   UNL     1       5.871   5.133  14.222  0.00  0.00    +0.000 A 
ATOM     19  C   UNL     1       7.178   5.306  13.742  0.00  0.00    +0.000 A 
ATOM     20  C   UNL     1       7.684   4.521  12.705  0.00  0.00    +0.000 A 
ATOM     21  C   UNL     1       6.896   3.521  12.144  0.00  0.00    +0.000 A 
ATOM     22  C   UNL     1       5.606   3.309  12.622  0.00  0.00    +0.000 A 
ATOM     23  C   UNL     1       5.103   4.103  13.656  0.00  0.00    +0.000 A 
ENDBRANCH  17  18
ENDBRANCH  13  17
ENDBRANCH   1  13
TORSDOF 6
ENDMDL
