MODEL 1
REMARK VINA RESULT:      -7.8      0.000      0.000
REMARK  Name = 
REMARK  6 active torsions:
REMARK  status: ('A' for Active; 'I' for Inactive)
REMARK    1  A    between atoms: C_1  and  O_2
REMARK    2  A    between atoms: O_2  and  C_3
REMARK    3  A    between atoms: C_5  and  N_6
REMARK    4  A    between atoms: C_7  and  C_9
REMARK    5  A    between atoms: C_10  and  C_11
REMARK    6  A    between atoms: C_20  and  C_21
REMARK                            x       y       z     vdW  Elec       q    Type
REMARK                         _______ _______ _______ _____ _____    ______ ____
ROOT
ATOM      1  N   UNL     1       2.242   6.139  20.908  0.00  0.00    +0.000 N 
ATOM      2  C   UNL     1       1.997   5.004  20.146  0.00  0.00    +0.000 C 
ATOM      3  O   UNL     1       1.081   4.879  19.341  0.00  0.00    +0.000 OA
ATOM      4  H   UNL     1       2.998   6.145  21.586  0.00  0.00    +0.000 HD
ENDROOT
BRANCH   1   7
ATOM      5  C   UNL     1      -0.027   8.980  21.801  0.00  0.00    +0.000 A 
ATOM      6  C   UNL     1       0.647   7.768  21.852  0.00  0.00    +0.000 A 
ATOM      7  C   UNL     1       1.529   7.374  20.837  0.00  0.00    +0.000 A 
ATOM      8  C   UNL     1       1.715   8.191  19.705  0.00  0.00    +0.000 A 
ATOM      9  N   UNL     1       2.551   7.816  18.710  0.00  0.00    +0.000 NA
ATOM     10  C   UNL     1       2.690   8.652  17.643  0.00  0.00    +0.000 A 
ATOM     11  C   UNL     1       2.027   9.859  17.511  0.00  0.00    +0.000 A 
ATOM     12  C   UNL     1       1.168  10.241  18.531  0.00  0.00    +0.000 A 
ATOM     13  C   UNL     1       1.001   9.415  19.648  0.00  0.00    +0.000 A 
ATOM     14  C   UNL     1       0.136   9.793  20.688  0.00  0.00    +0.000 A 
BRANCH   5  16
ATOM     15  C   UNL     1      -0.969  10.847  22.901  0.00  0.00    +0.000 C 
ATOM     16  O   UNL     1      -0.888   9.427  22.767  0.00  0.00    +0.000 OA
ENDBRANCH   5  16
ENDBRANCH   1   7
BRANCH   2  17
ATOM     17  C   UNL     1       2.936   3.917  20.307  0.00  0.00    +0.000 A 
ATOM     18  C   UNL     1       4.159   3.696  19.579  0.00  0.00    +0.000 A 
ATOM     19  N   UNL     1       4.715   2.540  19.979  0.00  0.00    +0.000 NA
ATOM     20  O   UNL     1       3.863   1.982  20.901  0.00  0.00    +0.000 OA
ATOM     21  C   UNL     1       2.804   2.804  21.110  0.00  0.00    +0.000 A 
ATOM     22  C   UNL     1       1.782   2.315  22.054  0.00  0.00    +0.000 C 
BRANCH  18  23
ATOM     23  C   UNL     1       4.838   4.573  18.603  0.00  0.00    +0.000 A 
ATOM     24  C   UNL     1       5.956   5.324  19.023  0.00  0.00    +0.000 A 
ATOM     25  C   UNL     1       6.663   6.151  18.143  0.00  0.00    +0.000 A 
ATOM     26  C   UNL     1       6.292   6.222  16.809  0.00  0.00    +0.000 A 
ATOM     27  C   UNL     1       5.193   5.489  16.363  0.00  0.00    +0.000 A 
ATOM     28  C   UNL     1       4.457   4.684  17.250  0.00  0.00    +0.000 A 
ATOM     29 CL   UNL     1       3.063   3.908  16.577  0.00  0.00    +0.000 Cl
ENDBRANCH  18  23
ENDBRANCH   2  17
TORSDOF 4
ENDMDL
MODEL 2
REMARK VINA RESULT:      -7.7      4.983      8.745
REMARK  Name = 
REMARK  6 active torsions:
REMARK  status: ('A' for Active; 'I' for Inactive)
REMARK    1  A    between atoms: C_1  and  O_2
REMARK    2  A    between atoms: O_2  and  C_3
REMARK    3  A    between atoms: C_5  and  N_6
REMARK    4  A    between atoms: C_7  and  C_9
REMARK    5  A    between atoms: C_10  and  C_11
REMARK    6  A    between atoms: C_20  and  C_21
REMARK                            x       y       z     vdW  Elec       q    Type
REMARK                         _______ _______ _______ _____ _____    ______ ____
ROOT
ATOM      1  N   UNL     1      -1.674  10.057  19.075  0.00  0.00    +0.000 N 
ATOM      2  C   UNL     1      -0.505  10.676  19.496  0.00  0.00    +0.000 C 
ATOM      3  O   UNL     1       0.060  11.591  18.908  0.00  0.00    +0.000 OA
ATOM      4  H   UNL     1      -2.054   9.274  19.600  0.00  0.00    +0.000 HD
ENDROOT
BRANCH   1   7
ATOM      5  C   UNL     1      -2.880  10.340  15.541  0.00  0.00    +0.000 A 
ATOM      6  C   UNL     1      -2.104  10.014  16.645  0.00  0.00    +0.000 A 
ATOM      7  C   UNL     1      -2.460  10.418  17.939  0.00  0.00    +0.000 A 
ATOM      8  C   UNL     1      -3.604  11.215  18.142  0.00  0.00    +0.000 A 
ATOM      9  N   UNL     1      -3.950  11.625  19.383  0.00  0.00    +0.000 NA
ATOM     10  C   UNL     1      -5.070  12.392  19.513  0.00  0.00    +0.000 A 
ATOM     11  C   UNL     1      -5.872  12.779  18.455  0.00  0.00    +0.000 A 
ATOM     12  C   UNL     1      -5.514  12.360  17.183  0.00  0.00    +0.000 A 
ATOM     13  C   UNL     1      -4.375  11.566  17.005  0.00  0.00    +0.000 A 
ATOM     14  C   UNL     1      -4.005  11.134  15.722  0.00  0.00    +0.000 A 
BRANCH   5  16
ATOM     15  C   UNL     1      -3.713   9.926  13.369  0.00  0.00    +0.000 C 
ATOM     16  O   UNL     1      -2.594   9.963  14.258  0.00  0.00    +0.000 OA
ENDBRANCH   5  16
ENDBRANCH   1   7
BRANCH   2  17
ATOM     17  C   UNL     1       0.043  10.211  20.750  0.00  0.00    +0.000 A 
ATOM     18  C   UNL     1      -0.123  10.800  22.055  0.00  0.00    +0.000 A 
ATOM     19  N   UNL     1       0.598  10.107  22.952  0.00  0.00    +0.000 NA
ATOM     20  O   UNL     1       1.266   9.126  22.261  0.00  0.00    +0.000 OA
ATOM     21  C   UNL     1       0.931   9.175  20.947  0.00  0.00    +0.000 A 
ATOM     22  C   UNL     1       1.604   8.198  20.071  0.00  0.00    +0.000 C 
BRANCH  18  23
ATOM     23  C   UNL     1      -0.994  11.918  22.472  0.00  0.00    +0.000 A 
ATOM     24  C   UNL     1      -2.229  11.627  23.089  0.00  0.00    +0.000 A 
ATOM     25  C   UNL     1      -3.087  12.638  23.536  0.00  0.00    +0.000 A 
ATOM     26  C   UNL     1      -2.716  13.969  23.409  0.00  0.00    +0.000 A 
ATOM     27  C   UNL     1      -1.500  14.287  22.807  0.00  0.00    +0.000 A 
ATOM     28  C   UNL     1      -0.650  13.277  22.324  0.00  0.00    +0.000 A 
ATOM     29 CL   UNL     1       0.780  13.824  21.514  0.00  0.00    +0.000 Cl
ENDBRANCH  18  23
ENDBRANCH   2  17
TORSDOF 4
ENDMDL
MODEL 3
REMARK VINA RESULT:      -7.7      1.719      2.913
REMARK  Name = 
REMARK  6 active torsions:
REMARK  status: ('A' for Active; 'I' for Inactive)
REMARK    1  A    between atoms: C_1  and  O_2
REMARK    2  A    between atoms: O_2  and  C_3
REMARK    3  A    between atoms: C_5  and  N_6
REMARK    4  A    between atoms: C_7  and  C_9
REMARK    5  A    between atoms: C_10  and  C_11
REMARK    6  A    between atoms: C_20  and  C_21
REMARK                            x       y       z     vdW  Elec       q    Type
REMARK                         _______ _______ _______ _____ _____    ______ ____
ROOT
ATOM      1  N   UNL     1       2.395   6.852  20.068  0.00  0.00    +0.000 N 
ATOM      2  C   UNL     1       2.444   5.816  19.146  0.00  0.00    +0.000 C 
ATOM      3  O   UNL     1       2.020   5.872  17.998  0.00  0.00    +0.000 OA
ATOM      4  H   UNL     1       2.730   6.708  21.017  0.00  0.00    +0.000 HD
ENDROOT
BRANCH   1   7
ATOM      5  C   UNL     1       1.836  10.180  18.445  0.00  0.00    +0.000 A 
ATOM      6  C   UNL     1       2.318   8.903  18.698  0.00  0.00    +0.000 A 
ATOM      7  C   UNL     1       1.918   8.176  19.827  0.00  0.00    +0.000 A 
ATOM      8  C   UNL     1       1.040   8.753  20.766  0.00  0.00    +0.000 A 
ATOM      9  N   UNL     1       0.658   8.069  21.868  0.00  0.00    +0.000 NA
ATOM     10  C   UNL     1      -0.195   8.682  22.737  0.00  0.00    +0.000 A 
ATOM     11  C   UNL     1      -0.691   9.961  22.564  0.00  0.00    +0.000 A 
ATOM     12  C   UNL     1      -0.296  10.663  21.435  0.00  0.00    +0.000 A 
ATOM     13  C   UNL     1       0.574  10.069  20.513  0.00  0.00    +0.000 A 
ATOM     14  C   UNL     1       0.979  10.768  19.366  0.00  0.00    +0.000 A 
BRANCH   5  16
ATOM     15  C   UNL     1       2.650  12.250  17.649  0.00  0.00    +0.000 C 
ATOM     16  O   UNL     1       2.177  10.933  17.355  0.00  0.00    +0.000 OA
ENDBRANCH   5  16
ENDBRANCH   1   7
BRANCH   2  17
ATOM     17  C   UNL     1       3.088   4.600  19.591  0.00  0.00    +0.000 A 
ATOM     18  C   UNL     1       4.422   4.149  19.287  0.00  0.00    +0.000 A 
ATOM     19  N   UNL     1       4.621   2.940  19.838  0.00  0.00    +0.000 NA
ATOM     20  O   UNL     1       3.442   2.572  20.438  0.00  0.00    +0.000 OA
ATOM     21  C   UNL     1       2.526   3.563  20.305  0.00  0.00    +0.000 A 
ATOM     22  C   UNL     1       1.192   3.292  20.874  0.00  0.00    +0.000 C 
BRANCH  18  23
ATOM     23  C   UNL     1       5.510   4.858  18.582  0.00  0.00    +0.000 A 
ATOM     24  C   UNL     1       6.501   5.514  19.342  0.00  0.00    +0.000 A 
ATOM     25  C   UNL     1       7.576   6.177  18.738  0.00  0.00    +0.000 A 
ATOM     26  C   UNL     1       7.707   6.172  17.357  0.00  0.00    +0.000 A 
ATOM     27  C   UNL     1       6.745   5.528  16.580  0.00  0.00    +0.000 A 
ATOM     28  C   UNL     1       5.644   4.891  17.179  0.00  0.00    +0.000 A 
ATOM     29 CL   UNL     1       4.481   4.218  16.086  0.00  0.00    +0.000 Cl
ENDBRANCH  18  23
ENDBRANCH   2  17
TORSDOF 4
ENDMDL
MODEL 4
REMARK VINA RESULT:      -7.7      1.988      3.193
REMARK  Name = 
REMARK  6 active torsions:
REMARK  status: ('A' for Active; 'I' for Inactive)
REMARK    1  A    between atoms: C_1  and  O_2
REMARK    2  A    between atoms: O_2  and  C_3
REMARK    3  A    between atoms: C_5  and  N_6
REMARK    4  A    between atoms: C_7  and  C_9
REMARK    5  A    between atoms: C_10  and  C_11
REMARK    6  A    between atoms: C_20  and  C_21
REMARK                            x       y       z     vdW  Elec       q    Type
REMARK                         _______ _______ _______ _____ _____    ______ ____
ROOT
ATOM      1  N   UNL     1       2.410   6.780  19.929  0.00  0.00    +0.000 N 
ATOM      2  C   UNL     1       2.466   5.774  18.974  0.00  0.00    +0.000 C 
ATOM      3  O   UNL     1       2.060   5.873  17.821  0.00  0.00    +0.000 OA
ATOM      4  H   UNL     1       2.728   6.600  20.877  0.00  0.00    +0.000 HD
ENDROOT
BRANCH   1   7
ATOM      5  C   UNL     1       1.902  10.162  18.405  0.00  0.00    +0.000 A 
ATOM      6  C   UNL     1       2.369   8.873  18.623  0.00  0.00    +0.000 A 
ATOM      7  C   UNL     1       1.949   8.115  19.725  0.00  0.00    +0.000 A 
ATOM      8  C   UNL     1       1.068   8.672  20.672  0.00  0.00    +0.000 A 
ATOM      9  N   UNL     1       0.667   7.958  21.748  0.00  0.00    +0.000 NA
ATOM     10  C   UNL     1      -0.188   8.552  22.627  0.00  0.00    +0.000 A 
ATOM     11  C   UNL     1      -0.670   9.842  22.489  0.00  0.00    +0.000 A 
ATOM     12  C   UNL     1      -0.255  10.574  21.387  0.00  0.00    +0.000 A 
ATOM     13  C   UNL     1       0.618  10.000  20.456  0.00  0.00    +0.000 A 
ATOM     14  C   UNL     1       1.042  10.730  19.335  0.00  0.00    +0.000 A 
BRANCH   5  16
ATOM     15  C   UNL     1       2.634  12.286  17.673  0.00  0.00    +0.000 C 
ATOM     16  O   UNL     1       2.263  10.945  17.343  0.00  0.00    +0.000 OA
ENDBRANCH   5  16
ENDBRANCH   1   7
BRANCH   2  17
ATOM     17  C   UNL     1       3.090   4.538  19.388  0.00  0.00    +0.000 A 
ATOM     18  C   UNL     1       4.220   3.878  18.784  0.00  0.00    +0.000 A 
ATOM     19  N   UNL     1       4.456   2.721  19.425  0.00  0.00    +0.000 NA
ATOM     20  O   UNL     1       3.482   2.587  20.385  0.00  0.00    +0.000 OA
ATOM     21  C   UNL     1       2.671   3.673  20.376  0.00  0.00    +0.000 A 
ATOM     22  C   UNL     1       1.552   3.652  21.336  0.00  0.00    +0.000 C 
BRANCH  18  23
ATOM     23  C   UNL     1       5.108   4.348  17.702  0.00  0.00    +0.000 A 
ATOM     24  C   UNL     1       4.777   4.040  16.366  0.00  0.00    +0.000 A 
ATOM     25  C   UNL     1       5.557   4.481  15.291  0.00  0.00    +0.000 A 
ATOM     26  C   UNL     1       6.673   5.272  15.522  0.00  0.00    +0.000 A 
ATOM     27  C   UNL     1       7.023   5.596  16.832  0.00  0.00    +0.000 A 
ATOM     28  C   UNL     1       6.264   5.127  17.917  0.00  0.00    +0.000 A 
ATOM     29 CL   UNL     1       6.873   5.528  19.488  0.00  0.00    +0.000 Cl
ENDBRANCH  18  23
ENDBRANCH   2  17
TORSDOF 4
ENDMDL
MODEL 5
REMARK VINA RESULT:      -7.6      1.121      1.442
REMARK  Name = 
REMARK  6 active torsions:
REMARK  status: ('A' for Active; 'I' for Inactive)
REMARK    1  A    between atoms: C_1  and  O_2
REMARK    2  A    between atoms: O_2  and  C_3
REMARK    3  A    between atoms: C_5  and  N_6
REMARK    4  A    between atoms: C_7  and  C_9
REMARK    5  A    between atoms: C_10  and  C_11
REMARK    6  A    between atoms: C_20  and  C_21
REMARK                            x       y       z     vdW  Elec       q    Type
REMARK                         _______ _______ _______ _____ _____    ______ ____
ROOT
ATOM      1  N   UNL     1       2.388   6.141  20.693  0.00  0.00    +0.000 N 
ATOM      2  C   UNL     1       2.293   5.107  19.771  0.00  0.00    +0.000 C 
ATOM      3  O   UNL     1       1.482   5.052  18.854  0.00  0.00    +0.000 OA
ATOM      4  H   UNL     1       3.061   6.088  21.452  0.00  0.00    +0.000 HD
ENDROOT
BRANCH   1   7
ATOM      5  C   UNL     1      -0.003   8.823  21.748  0.00  0.00    +0.000 A 
ATOM      6  C   UNL     1       0.725   7.641  21.729  0.00  0.00    +0.000 A 
ATOM      7  C   UNL     1       1.621   7.345  20.694  0.00  0.00    +0.000 A 
ATOM      8  C   UNL     1       1.769   8.234  19.611  0.00  0.00    +0.000 A 
ATOM      9  N   UNL     1       2.619   7.954  18.596  0.00  0.00    +0.000 NA
ATOM     10  C   UNL     1       2.718   8.855  17.579  0.00  0.00    +0.000 A 
ATOM     11  C   UNL     1       2.002  10.038  17.517  0.00  0.00    +0.000 A 
ATOM     12  C   UNL     1       1.130  10.322  18.557  0.00  0.00    +0.000 A 
ATOM     13  C   UNL     1       1.001   9.426  19.624  0.00  0.00    +0.000 A 
ATOM     14  C   UNL     1       0.122   9.705  20.683  0.00  0.00    +0.000 A 
BRANCH   5  16
ATOM     15  C   UNL     1      -0.901  10.565  23.067  0.00  0.00    +0.000 C 
ATOM     16  O   UNL     1      -0.881   9.174  22.737  0.00  0.00    +0.000 OA
ENDBRANCH   5  16
ENDBRANCH   1   7
BRANCH   2  17
ATOM     17  C   UNL     1       3.266   4.046  19.905  0.00  0.00    +0.000 A 
ATOM     18  C   UNL     1       4.462   3.846  19.127  0.00  0.00    +0.000 A 
ATOM     19  N   UNL     1       5.064   2.710  19.518  0.00  0.00    +0.000 NA
ATOM     20  O   UNL     1       4.267   2.144  20.483  0.00  0.00    +0.000 OA
ATOM     21  C   UNL     1       3.198   2.942  20.727  0.00  0.00    +0.000 A 
ATOM     22  C   UNL     1       2.231   2.440  21.722  0.00  0.00    +0.000 C 
BRANCH  18  23
ATOM     23  C   UNL     1       5.075   4.726  18.111  0.00  0.00    +0.000 A 
ATOM     24  C   UNL     1       4.480   4.811  16.835  0.00  0.00    +0.000 A 
ATOM     25  C   UNL     1       4.991   5.649  15.837  0.00  0.00    +0.000 A 
ATOM     26  C   UNL     1       6.091   6.452  16.101  0.00  0.00    +0.000 A 
ATOM     27  C   UNL     1       6.697   6.393  17.355  0.00  0.00    +0.000 A 
ATOM     28  C   UNL     1       6.210   5.527  18.349  0.00  0.00    +0.000 A 
ATOM     29 CL   UNL     1       7.121   5.489  19.822  0.00  0.00    +0.000 Cl
ENDBRANCH  18  23
ENDBRANCH   2  17
TORSDOF 4
ENDMDL
MODEL 6
REMARK VINA RESULT:      -7.3      1.788      2.024
REMARK  Name = 
REMARK  6 active torsions:
REMARK  status: ('A' for Active; 'I' for Inactive)
REMARK    1  A    between atoms: C_1  and  O_2
REMARK    2  A    between atoms: O_2  and  C_3
REMARK    3  A    between atoms: C_5  and  N_6
REMARK    4  A    between atoms: C_7  and  C_9
REMARK    5  A    between atoms: C_10  and  C_11
REMARK    6  A    between atoms: C_20  and  C_21
REMARK                            x       y       z     vdW  Elec       q    Type
REMARK                         _______ _______ _______ _____ _____    ______ ____
ROOT
ATOM      1  N   UNL     1       2.247   6.865  19.142  0.00  0.00    +0.000 N 
ATOM      2  C   UNL     1       2.624   5.656  19.711  0.00  0.00    +0.000 C 
ATOM      3  O   UNL     1       2.605   5.404  20.910  0.00  0.00    +0.000 OA
ATOM      4  H   UNL     1       2.336   7.007  18.140  0.00  0.00    +0.000 HD
ENDROOT
BRANCH   1   7
ATOM      5  C   UNL     1       0.564   8.945  21.762  0.00  0.00    +0.000 A 
ATOM      6  C   UNL     1       1.070   7.850  21.075  0.00  0.00    +0.000 A 
ATOM      7  C   UNL     1       1.702   7.990  19.833  0.00  0.00    +0.000 A 
ATOM      8  C   UNL     1       1.798   9.258  19.226  0.00  0.00    +0.000 A 
ATOM      9  N   UNL     1       2.391   9.405  18.020  0.00  0.00    +0.000 NA
ATOM     10  C   UNL     1       2.453  10.658  17.487  0.00  0.00    +0.000 A 
ATOM     11  C   UNL     1       1.944  11.789  18.101  0.00  0.00    +0.000 A 
ATOM     12  C   UNL     1       1.333  11.635  19.336  0.00  0.00    +0.000 A 
ATOM     13  C   UNL     1       1.253  10.367  19.923  0.00  0.00    +0.000 A 
ATOM     14  C   UNL     1       0.639  10.200  21.174  0.00  0.00    +0.000 A 
BRANCH   5  16
ATOM     15  C   UNL     1      -0.828  10.019  23.340  0.00  0.00    +0.000 C 
ATOM     16  O   UNL     1      -0.050   8.874  22.983  0.00  0.00    +0.000 OA
ENDBRANCH   5  16
ENDBRANCH   1   7
BRANCH   2  17
ATOM     17  C   UNL     1       3.030   4.620  18.789  0.00  0.00    +0.000 A 
ATOM     18  C   UNL     1       4.271   4.527  18.061  0.00  0.00    +0.000 A 
ATOM     19  N   UNL     1       4.239   3.450  17.259  0.00  0.00    +0.000 NA
ATOM     20  O   UNL     1       2.998   2.877  17.404  0.00  0.00    +0.000 OA
ATOM     21  C   UNL     1       2.276   3.564  18.324  0.00  0.00    +0.000 A 
ATOM     22  C   UNL     1       0.902   3.081  18.559  0.00  0.00    +0.000 C 
BRANCH  18  23
ATOM     23  C   UNL     1       5.484   5.363  18.172  0.00  0.00    +0.000 A 
ATOM     24  C   UNL     1       6.371   5.138  19.245  0.00  0.00    +0.000 A 
ATOM     25  C   UNL     1       7.554   5.872  19.392  0.00  0.00    +0.000 A 
ATOM     26  C   UNL     1       7.898   6.829  18.448  0.00  0.00    +0.000 A 
ATOM     27  C   UNL     1       7.043   7.071  17.375  0.00  0.00    +0.000 A 
ATOM     28  C   UNL     1       5.837   6.362  17.242  0.00  0.00    +0.000 A 
ATOM     29 CL   UNL     1       4.831   6.835  15.913  0.00  0.00    +0.000 Cl
ENDBRANCH  18  23
ENDBRANCH   2  17
TORSDOF 4
ENDMDL
MODEL 7
REMARK VINA RESULT:      -7.2      4.617      7.330
REMARK  Name = 
REMARK  6 active torsions:
REMARK  status: ('A' for Active; 'I' for Inactive)
REMARK    1  A    between atoms: C_1  and  O_2
REMARK    2  A    between atoms: O_2  and  C_3
REMARK    3  A    between atoms: C_5  and  N_6
REMARK    4  A    between atoms: C_7  and  C_9
REMARK    5  A    between atoms: C_10  and  C_11
REMARK    6  A    between atoms: C_20  and  C_21
REMARK                            x       y       z     vdW  Elec       q    Type
REMARK                         _______ _______ _______ _____ _____    ______ ____
ROOT
ATOM      1  N   UNL     1      -1.679  10.349  19.075  0.00  0.00    +0.000 N 
ATOM      2  C   UNL     1      -0.854  11.264  19.716  0.00  0.00    +0.000 C 
ATOM      3  O   UNL     1      -0.653  12.414  19.344  0.00  0.00    +0.000 OA
ATOM      4  H   UNL     1      -1.756   9.399  19.426  0.00  0.00    +0.000 HD
ENDROOT
BRANCH   1   7
ATOM      5  C   UNL     1      -2.907  10.381  15.538  0.00  0.00    +0.000 A 
ATOM      6  C   UNL     1      -2.109  10.162  16.652  0.00  0.00    +0.000 A 
ATOM      7  C   UNL     1      -2.489  10.602  17.927  0.00  0.00    +0.000 A 
ATOM      8  C   UNL     1      -3.685  11.327  18.098  0.00  0.00    +0.000 A 
ATOM      9  N   UNL     1      -4.056  11.771  19.321  0.00  0.00    +0.000 NA
ATOM     10  C   UNL     1      -5.225  12.465  19.420  0.00  0.00    +0.000 A 
ATOM     11  C   UNL     1      -6.054  12.746  18.349  0.00  0.00    +0.000 A 
ATOM     12  C   UNL     1      -5.670  12.292  17.096  0.00  0.00    +0.000 A 
ATOM     13  C   UNL     1      -4.480  11.571  16.949  0.00  0.00    +0.000 A 
ATOM     14  C   UNL     1      -4.083  11.105  15.687  0.00  0.00    +0.000 A 
BRANCH   5  16
ATOM     15  C   UNL     1      -3.701   9.902  13.365  0.00  0.00    +0.000 C 
ATOM     16  O   UNL     1      -2.598   9.965  14.272  0.00  0.00    +0.000 OA
ENDBRANCH   5  16
ENDBRANCH   1   7
BRANCH   2  17
ATOM     17  C   UNL     1      -0.229  10.808  20.937  0.00  0.00    +0.000 A 
ATOM     18  C   UNL     1       0.720   9.735  21.091  0.00  0.00    +0.000 A 
ATOM     19  N   UNL     1       1.015   9.582  22.393  0.00  0.00    +0.000 NA
ATOM     20  O   UNL     1       0.245  10.484  23.088  0.00  0.00    +0.000 OA
ATOM     21  C   UNL     1      -0.491  11.226  22.224  0.00  0.00    +0.000 A 
ATOM     22  C   UNL     1      -1.397  12.218  22.834  0.00  0.00    +0.000 C 
BRANCH  18  23
ATOM     23  C   UNL     1       1.400   8.932  20.054  0.00  0.00    +0.000 A 
ATOM     24  C   UNL     1       1.561   7.546  20.260  0.00  0.00    +0.000 A 
ATOM     25  C   UNL     1       2.168   6.723  19.305  0.00  0.00    +0.000 A 
ATOM     26  C   UNL     1       2.600   7.259  18.100  0.00  0.00    +0.000 A 
ATOM     27  C   UNL     1       2.451   8.625  17.867  0.00  0.00    +0.000 A 
ATOM     28  C   UNL     1       1.875   9.463  18.837  0.00  0.00    +0.000 A 
ATOM     29 CL   UNL     1       1.843  11.150  18.447  0.00  0.00    +0.000 Cl
ENDBRANCH  18  23
ENDBRANCH   2  17
TORSDOF 4
ENDMDL
MODEL 8
REMARK VINA RESULT:      -7.2      7.376      9.954
REMARK  Name = 
REMARK  6 active torsions:
REMARK  status: ('A' for Active; 'I' for Inactive)
REMARK    1  A    between atoms: C_1  and  O_2
REMARK    2  A    between atoms: O_2  and  C_3
REMARK    3  A    between atoms: C_5  and  N_6
REMARK    4  A    between atoms: C_7  and  C_9
REMARK    5  A    between atoms: C_10  and  C_11
REMARK    6  A    between atoms: C_20  and  C_21
REMARK                            x       y       z     vdW  Elec       q    Type
REMARK                         _______ _______ _______ _____ _____    ______ ____
ROOT
ATOM      1  N   UNL     1      -1.835  12.585  19.328  0.00  0.00    +0.000 N 
ATOM      2  C   UNL     1      -0.732  11.986  19.922  0.00  0.00    +0.000 C 
ATOM      3  O   UNL     1      -0.381  10.825  19.749  0.00  0.00    +0.000 OA
ATOM      4  H   UNL     1      -2.082  13.543  19.560  0.00  0.00    +0.000 HD
ENDROOT
BRANCH   1   7
ATOM      5  C   UNL     1      -3.057  10.938  16.195  0.00  0.00    +0.000 A 
ATOM      6  C   UNL     1      -2.222  11.543  17.125  0.00  0.00    +0.000 A 
ATOM      7  C   UNL     1      -2.702  11.989  18.363  0.00  0.00    +0.000 A 
ATOM      8  C   UNL     1      -4.071  11.874  18.675  0.00  0.00    +0.000 A 
ATOM      9  N   UNL     1      -4.551  12.314  19.860  0.00  0.00    +0.000 NA
ATOM     10  C   UNL     1      -5.885  12.172  20.103  0.00  0.00    +0.000 A 
ATOM     11  C   UNL     1      -6.779  11.607  19.211  0.00  0.00    +0.000 A 
ATOM     12  C   UNL     1      -6.286  11.158  17.996  0.00  0.00    +0.000 A 
ATOM     13  C   UNL     1      -4.922  11.280  17.708  0.00  0.00    +0.000 A 
ATOM     14  C   UNL     1      -4.411  10.827  16.481  0.00  0.00    +0.000 A 
BRANCH   5  16
ATOM     15  C   UNL     1      -3.696  10.085  14.086  0.00  0.00    +0.000 C 
ATOM     16  O   UNL     1      -2.646  10.470  14.977  0.00  0.00    +0.000 OA
ENDBRANCH   5  16
ENDBRANCH   1   7
BRANCH   2  17
ATOM     17  C   UNL     1       0.068  12.835  20.776  0.00  0.00    +0.000 A 
ATOM     18  C   UNL     1      -0.346  13.516  21.976  0.00  0.00    +0.000 A 
ATOM     19  N   UNL     1       0.673  14.257  22.444  0.00  0.00    +0.000 NA
ATOM     20  O   UNL     1       1.711  14.120  21.555  0.00  0.00    +0.000 OA
ATOM     21  C   UNL     1       1.361  13.264  20.563  0.00  0.00    +0.000 A 
ATOM     22  C   UNL     1       2.371  13.047  19.510  0.00  0.00    +0.000 C 
BRANCH  18  23
ATOM     23  C   UNL     1      -1.620  13.413  22.716  0.00  0.00    +0.000 A 
ATOM     24  C   UNL     1      -2.414  14.569  22.870  0.00  0.00    +0.000 A 
ATOM     25  C   UNL     1      -3.647  14.535  23.532  0.00  0.00    +0.000 A 
ATOM     26  C   UNL     1      -4.135  13.336  24.029  0.00  0.00    +0.000 A 
ATOM     27  C   UNL     1      -3.374  12.176  23.889  0.00  0.00    +0.000 A 
ATOM     28  C   UNL     1      -2.120  12.210  23.256  0.00  0.00    +0.000 A 
ATOM     29 CL   UNL     1      -1.247  10.714  23.240  0.00  0.00    +0.000 Cl
ENDBRANCH  18  23
ENDBRANCH   2  17
TORSDOF 4
ENDMDL
MODEL 9
REMARK VINA RESULT:      -7.0      2.280      4.367
REMARK  Name = 
REMARK  6 active torsions:
REMARK  status: ('A' for Active; 'I' for Inactive)
REMARK    1  A    between atoms: C_1  and  O_2
REMARK    2  A    between atoms: O_2  and  C_3
REMARK    3  A    between atoms: C_5  and  N_6
REMARK    4  A    between atoms: C_7  and  C_9
REMARK    5  A    between atoms: C_10  and  C_11
REMARK    6  A    between atoms: C_20  and  C_21
REMARK                            x       y       z     vdW  Elec       q    Type
REMARK                         _______ _______ _______ _____ _____    ______ ____
ROOT
ATOM      1  N   UNL     1       2.455   7.523  19.132  0.00  0.00    +0.000 N 
ATOM      2  C   UNL     1       3.250   7.264  18.024  0.00  0.00    +0.000 C 
ATOM      3  O   UNL     1       3.124   7.793  16.926  0.00  0.00    +0.000 OA
ATOM      4  H   UNL     1       2.599   7.006  19.995  0.00  0.00    +0.000 HD
ENDROOT
BRANCH   1   7
ATOM      5  C   UNL     1      -0.240   9.926  18.142  0.00  0.00    +0.000 A 
ATOM      6  C   UNL     1       0.794   9.003  18.065  0.00  0.00    +0.000 A 
ATOM      7  C   UNL     1       1.410   8.493  19.215  0.00  0.00    +0.000 A 
ATOM      8  C   UNL     1       1.018   8.947  20.489  0.00  0.00    +0.000 A 
ATOM      9  N   UNL     1       1.615   8.474  21.607  0.00  0.00    +0.000 NA
ATOM     10  C   UNL     1       1.189   8.953  22.810  0.00  0.00    +0.000 A 
ATOM     11  C   UNL     1       0.185   9.893  22.960  0.00  0.00    +0.000 A 
ATOM     12  C   UNL     1      -0.424  10.379  21.812  0.00  0.00    +0.000 A 
ATOM     13  C   UNL     1      -0.020   9.911  20.557  0.00  0.00    +0.000 A 
ATOM     14  C   UNL     1      -0.632  10.393  19.389  0.00  0.00    +0.000 A 
BRANCH   5  16
ATOM     15  C   UNL     1      -2.206   9.939  16.831  0.00  0.00    +0.000 C 
ATOM     16  O   UNL     1      -0.890  10.450  17.057  0.00  0.00    +0.000 OA
ENDBRANCH   5  16
ENDBRANCH   1   7
BRANCH   2  17
ATOM     17  C   UNL     1       4.328   6.322  18.222  0.00  0.00    +0.000 A 
ATOM     18  C   UNL     1       4.268   5.043  18.884  0.00  0.00    +0.000 A 
ATOM     19  N   UNL     1       5.496   4.499  18.918  0.00  0.00    +0.000 NA
ATOM     20  O   UNL     1       6.355   5.409  18.350  0.00  0.00    +0.000 OA
ATOM     21  C   UNL     1       5.663   6.494  17.922  0.00  0.00    +0.000 A 
ATOM     22  C   UNL     1       6.464   7.576  17.320  0.00  0.00    +0.000 C 
BRANCH  18  23
ATOM     23  C   UNL     1       3.091   4.308  19.391  0.00  0.00    +0.000 A 
ATOM     24  C   UNL     1       2.763   4.408  20.759  0.00  0.00    +0.000 A 
ATOM     25  C   UNL     1       1.644   3.763  21.299  0.00  0.00    +0.000 A 
ATOM     26  C   UNL     1       0.803   3.028  20.477  0.00  0.00    +0.000 A 
ATOM     27  C   UNL     1       1.100   2.914  19.120  0.00  0.00    +0.000 A 
ATOM     28  C   UNL     1       2.241   3.530  18.579  0.00  0.00    +0.000 A 
ATOM     29 CL   UNL     1       2.535   3.222  16.899  0.00  0.00    +0.000 Cl
ENDBRANCH  18  23
ENDBRANCH   2  17
TORSDOF 4
ENDMDL
