MODEL 1
REMARK VINA RESULT:      -8.4      0.000      0.000
REMARK  Name = 
REMARK  3 active torsions:
REMARK  status: ('A' for Active; 'I' for Inactive)
REMARK    1  A    between atoms: C_15  and  N_16
REMARK    2  A    between atoms: C_19  and  C_20
REMARK    3  A    between atoms: C_20  and  C_21
REMARK                            x       y       z     vdW  Elec       q    Type
REMARK                         _______ _______ _______ _____ _____    ______ ____
ROOT
ATOM      1  O   UNL     1      -1.569  10.033  17.959  0.00  0.00    +0.000 OA
ATOM      2  C   UNL     1      -0.709  10.541  18.702  0.00  0.00    +0.000 C 
ATOM      3  N   UNL     1      -0.238  11.775  18.348  0.00  0.00    +0.000 N 
ATOM      4  C   UNL     1       0.810  12.500  18.935  0.00  0.00    +0.000 A 
ATOM      5  C   UNL     1       1.623  13.222  18.053  0.00  0.00    +0.000 A 
ATOM      6  C   UNL     1       2.780  13.844  18.515  0.00  0.00    +0.000 A 
ATOM      7  C   UNL     1       3.070  13.852  19.876  0.00  0.00    +0.000 A 
ATOM      8  C   UNL     1       2.205  13.232  20.777  0.00  0.00    +0.000 A 
ATOM      9  C   UNL     1       1.094  12.515  20.314  0.00  0.00    +0.000 A 
ATOM     10  C   UNL     1       0.310  11.782  21.287  0.00  0.00    +0.000 A 
ATOM     11  N   UNL     1       0.006  12.120  22.529  0.00  0.00    +0.000 NA
ATOM     12  N   UNL     1      -0.664  11.048  23.068  0.00  0.00    +0.000 NA
ATOM     13  N   UNL     1      -0.764  10.060  22.191  0.00  0.00    +0.000 NA
ATOM     14  N   UNL     1      -0.164  10.522  21.079  0.00  0.00    +0.000 N 
ATOM     15  C   UNL     1      -0.111   9.736  19.863  0.00  0.00    +0.000 C 
ATOM     16  H   UNL     1      -0.566  12.069  17.433  0.00  0.00    +0.000 HD
ENDROOT
BRANCH  15  17
ATOM     17  N   UNL     1       1.292   9.228  19.582  0.00  0.00    +0.000 NA
ATOM     18  C   UNL     1       1.501   7.946  20.298  0.00  0.00    +0.000 C 
ATOM     19  C   UNL     1       2.755   7.184  19.859  0.00  0.00    +0.000 C 
ATOM     20  C   UNL     1       2.760   6.911  18.352  0.00  0.00    +0.000 C 
ATOM     21  C   UNL     1       2.711   8.287  17.677  0.00  0.00    +0.000 C 
ATOM     22  C   UNL     1       1.486   9.093  18.120  0.00  0.00    +0.000 C 
BRANCH  20  23
ATOM     23  C   UNL     1       1.617   5.964  17.885  0.00  0.00    +0.000 C 
BRANCH  23  24
ATOM     24  C   UNL     1       2.062   4.515  17.875  0.00  0.00    +0.000 A 
ATOM     25  C   UNL     1       1.248   3.526  18.443  0.00  0.00    +0.000 A 
ATOM     26  C   UNL     1       1.746   2.241  18.659  0.00  0.00    +0.000 A 
ATOM     27  C   UNL     1       3.044   1.921  18.270  0.00  0.00    +0.000 A 
ATOM     28  C   UNL     1       3.830   2.870  17.619  0.00  0.00    +0.000 A 
ATOM     29  C   UNL     1       3.341   4.162  17.418  0.00  0.00    +0.000 A 
ENDBRANCH  23  24
ENDBRANCH  20  23
ENDBRANCH  15  17
TORSDOF 3
ENDMDL
MODEL 2
REMARK VINA RESULT:      -8.1      0.972      1.046
REMARK  Name = 
REMARK  3 active torsions:
REMARK  status: ('A' for Active; 'I' for Inactive)
REMARK    1  A    between atoms: C_15  and  N_16
REMARK    2  A    between atoms: C_19  and  C_20
REMARK    3  A    between atoms: C_20  and  C_21
REMARK                            x       y       z     vdW  Elec       q    Type
REMARK                         _______ _______ _______ _____ _____    ______ ____
ROOT
ATOM      1  O   UNL     1      -1.598   9.936  17.935  0.00  0.00    +0.000 OA
ATOM      2  C   UNL     1      -0.739  10.453  18.674  0.00  0.00    +0.000 C 
ATOM      3  N   UNL     1      -0.308  11.706  18.337  0.00  0.00    +0.000 N 
ATOM      4  C   UNL     1       0.730  12.448  18.921  0.00  0.00    +0.000 A 
ATOM      5  C   UNL     1       1.508  13.208  18.041  0.00  0.00    +0.000 A 
ATOM      6  C   UNL     1       2.656  13.853  18.496  0.00  0.00    +0.000 A 
ATOM      7  C   UNL     1       2.968  13.842  19.852  0.00  0.00    +0.000 A 
ATOM      8  C   UNL     1       2.135  13.182  20.754  0.00  0.00    +0.000 A 
ATOM      9  C   UNL     1       1.036  12.444  20.295  0.00  0.00    +0.000 A 
ATOM     10  C   UNL     1       0.288  11.671  21.266  0.00  0.00    +0.000 A 
ATOM     11  N   UNL     1      -0.004  11.976  22.519  0.00  0.00    +0.000 NA
ATOM     12  N   UNL     1      -0.635  10.876  23.048  0.00  0.00    +0.000 NA
ATOM     13  N   UNL     1      -0.724   9.904  22.153  0.00  0.00    +0.000 NA
ATOM     14  N   UNL     1      -0.155  10.403  21.041  0.00  0.00    +0.000 N 
ATOM     15  C   UNL     1      -0.101   9.642  19.809  0.00  0.00    +0.000 C 
ATOM     16  H   UNL     1      -0.659  12.008  17.433  0.00  0.00    +0.000 HD
ENDROOT
BRANCH  15  17
ATOM     17  N   UNL     1       1.311   9.178  19.496  0.00  0.00    +0.000 NA
ATOM     18  C   UNL     1       1.654   8.031  20.370  0.00  0.00    +0.000 C 
ATOM     19  C   UNL     1       2.923   7.284  19.949  0.00  0.00    +0.000 C 
ATOM     20  C   UNL     1       2.843   6.791  18.501  0.00  0.00    +0.000 C 
ATOM     21  C   UNL     1       2.656   8.047  17.641  0.00  0.00    +0.000 C 
ATOM     22  C   UNL     1       1.412   8.839  18.057  0.00  0.00    +0.000 C 
BRANCH  20  23
ATOM     23  C   UNL     1       1.737   5.722  18.266  0.00  0.00    +0.000 C 
BRANCH  23  24
ATOM     24  C   UNL     1       1.938   4.508  19.150  0.00  0.00    +0.000 A 
ATOM     25  C   UNL     1       0.956   4.147  20.083  0.00  0.00    +0.000 A 
ATOM     26  C   UNL     1       1.230   3.191  21.060  0.00  0.00    +0.000 A 
ATOM     27  C   UNL     1       2.468   2.555  21.089  0.00  0.00    +0.000 A 
ATOM     28  C   UNL     1       3.417   2.838  20.108  0.00  0.00    +0.000 A 
ATOM     29  C   UNL     1       3.154   3.807  19.139  0.00  0.00    +0.000 A 
ENDBRANCH  23  24
ENDBRANCH  20  23
ENDBRANCH  15  17
TORSDOF 3
ENDMDL
MODEL 3
REMARK VINA RESULT:      -7.1      4.985      7.603
REMARK  Name = 
REMARK  3 active torsions:
REMARK  status: ('A' for Active; 'I' for Inactive)
REMARK    1  A    between atoms: C_15  and  N_16
REMARK    2  A    between atoms: C_19  and  C_20
REMARK    3  A    between atoms: C_20  and  C_21
REMARK                            x       y       z     vdW  Elec       q    Type
REMARK                         _______ _______ _______ _____ _____    ______ ____
ROOT
ATOM      1  O   UNL     1      -0.833  11.148  18.152  0.00  0.00    +0.000 OA
ATOM      2  C   UNL     1      -0.916  11.561  19.323  0.00  0.00    +0.000 C 
ATOM      3  N   UNL     1      -2.164  11.896  19.772  0.00  0.00    +0.000 N 
ATOM      4  C   UNL     1      -2.509  12.498  20.992  0.00  0.00    +0.000 A 
ATOM      5  C   UNL     1      -3.547  13.435  20.939  0.00  0.00    +0.000 A 
ATOM      6  C   UNL     1      -3.859  14.202  22.059  0.00  0.00    +0.000 A 
ATOM      7  C   UNL     1      -3.219  13.956  23.270  0.00  0.00    +0.000 A 
ATOM      8  C   UNL     1      -2.263  12.946  23.361  0.00  0.00    +0.000 A 
ATOM      9  C   UNL     1      -1.867  12.239  22.218  0.00  0.00    +0.000 A 
ATOM     10  C   UNL     1      -0.775  11.296  22.351  0.00  0.00    +0.000 A 
ATOM     11  N   UNL     1      -0.493  10.494  23.364  0.00  0.00    +0.000 NA
ATOM     12  N   UNL     1       0.695   9.879  23.051  0.00  0.00    +0.000 NA
ATOM     13  N   UNL     1       1.151  10.295  21.879  0.00  0.00    +0.000 NA
ATOM     14  N   UNL     1       0.230  11.172  21.440  0.00  0.00    +0.000 N 
ATOM     15  C   UNL     1       0.351  11.817  20.148  0.00  0.00    +0.000 C 
ATOM     16  H   UNL     1      -2.859  11.885  19.033  0.00  0.00    +0.000 HD
ENDROOT
BRANCH  15  17
ATOM     17  N   UNL     1       0.690  13.291  20.286  0.00  0.00    +0.000 NA
ATOM     18  C   UNL     1       2.050  13.429  20.859  0.00  0.00    +0.000 C 
ATOM     19  C   UNL     1       2.625  14.846  20.767  0.00  0.00    +0.000 C 
ATOM     20  C   UNL     1       2.646  15.361  19.325  0.00  0.00    +0.000 C 
ATOM     21  C   UNL     1       1.187  15.349  18.855  0.00  0.00    +0.000 C 
ATOM     22  C   UNL     1       0.567  13.952  18.966  0.00  0.00    +0.000 C 
BRANCH  20  23
ATOM     23  C   UNL     1       3.594  14.557  18.388  0.00  0.00    +0.000 C 
BRANCH  23  24
ATOM     24  C   UNL     1       4.945  15.230  18.252  0.00  0.00    +0.000 A 
ATOM     25  C   UNL     1       6.040  14.512  17.750  0.00  0.00    +0.000 A 
ATOM     26  C   UNL     1       7.329  15.034  17.847  0.00  0.00    +0.000 A 
ATOM     27  C   UNL     1       7.533  16.294  18.404  0.00  0.00    +0.000 A 
ATOM     28  C   UNL     1       6.442  17.055  18.819  0.00  0.00    +0.000 A 
ATOM     29  C   UNL     1       5.152  16.528  18.740  0.00  0.00    +0.000 A 
ENDBRANCH  23  24
ENDBRANCH  20  23
ENDBRANCH  15  17
TORSDOF 3
ENDMDL
MODEL 4
REMARK VINA RESULT:      -7.0      2.979      8.482
REMARK  Name = 
REMARK  3 active torsions:
REMARK  status: ('A' for Active; 'I' for Inactive)
REMARK    1  A    between atoms: C_15  and  N_16
REMARK    2  A    between atoms: C_19  and  C_20
REMARK    3  A    between atoms: C_20  and  C_21
REMARK                            x       y       z     vdW  Elec       q    Type
REMARK                         _______ _______ _______ _____ _____    ______ ____
ROOT
ATOM      1  O   UNL     1      -0.821  10.991  23.108  0.00  0.00    +0.000 OA
ATOM      2  C   UNL     1      -0.581  10.866  21.893  0.00  0.00    +0.000 C 
ATOM      3  N   UNL     1      -0.035   9.679  21.490  0.00  0.00    +0.000 N 
ATOM      4  C   UNL     1       0.441   9.336  20.216  0.00  0.00    +0.000 A 
ATOM      5  C   UNL     1       1.592   8.540  20.186  0.00  0.00    +0.000 A 
ATOM      6  C   UNL     1       2.233   8.277  18.978  0.00  0.00    +0.000 A 
ATOM      7  C   UNL     1       1.665   8.704  17.782  0.00  0.00    +0.000 A 
ATOM      8  C   UNL     1       0.457   9.400  17.793  0.00  0.00    +0.000 A 
ATOM      9  C   UNL     1      -0.142   9.761  19.007  0.00  0.00    +0.000 A 
ATOM     10  C   UNL     1      -1.324  10.598  18.955  0.00  0.00    +0.000 A 
ATOM     11  N   UNL     1      -2.313  10.581  18.076  0.00  0.00    +0.000 NA
ATOM     12  N   UNL     1      -3.134  11.635  18.398  0.00  0.00    +0.000 NA
ATOM     13  N   UNL     1      -2.664  12.301  19.442  0.00  0.00    +0.000 NA
ATOM     14  N   UNL     1      -1.541  11.650  19.792  0.00  0.00    +0.000 N 
ATOM     15  C   UNL     1      -0.755  12.056  20.941  0.00  0.00    +0.000 C 
ATOM     16  H   UNL     1       0.229   9.087  22.273  0.00  0.00    +0.000 HD
ENDROOT
BRANCH  15  17
ATOM     17  N   UNL     1       0.561  12.690  20.525  0.00  0.00    +0.000 NA
ATOM     18  C   UNL     1       0.403  13.317  19.191  0.00  0.00    +0.000 C 
ATOM     19  C   UNL     1       1.556  14.243  18.796  0.00  0.00    +0.000 C 
ATOM     20  C   UNL     1       1.784  15.347  19.832  0.00  0.00    +0.000 C 
ATOM     21  C   UNL     1       2.107  14.627  21.147  0.00  0.00    +0.000 C 
ATOM     22  C   UNL     1       0.988  13.664  21.556  0.00  0.00    +0.000 C 
BRANCH  20  23
ATOM     23  C   UNL     1       0.591  16.340  19.960  0.00  0.00    +0.000 C 
BRANCH  23  24
ATOM     24  C   UNL     1       0.513  17.272  18.768  0.00  0.00    +0.000 A 
ATOM     25  C   UNL     1      -0.720  17.814  18.379  0.00  0.00    +0.000 A 
ATOM     26  C   UNL     1      -0.848  18.469  17.155  0.00  0.00    +0.000 A 
ATOM     27  C   UNL     1       0.261  18.628  16.329  0.00  0.00    +0.000 A 
ATOM     28  C   UNL     1       1.511  18.177  16.749  0.00  0.00    +0.000 A 
ATOM     29  C   UNL     1       1.639  17.505  17.965  0.00  0.00    +0.000 A 
ENDBRANCH  23  24
ENDBRANCH  20  23
ENDBRANCH  15  17
TORSDOF 3
ENDMDL
MODEL 5
REMARK VINA RESULT:      -6.9      7.717     10.462
REMARK  Name = 
REMARK  3 active torsions:
REMARK  status: ('A' for Active; 'I' for Inactive)
REMARK    1  A    between atoms: C_15  and  N_16
REMARK    2  A    between atoms: C_19  and  C_20
REMARK    3  A    between atoms: C_20  and  C_21
REMARK                            x       y       z     vdW  Elec       q    Type
REMARK                         _______ _______ _______ _____ _____    ______ ____
ROOT
ATOM      1  O   UNL     1       8.449  17.144  18.094  0.00  0.00    +0.000 OA
ATOM      2  C   UNL     1       8.440  16.073  18.729  0.00  0.00    +0.000 C 
ATOM      3  N   UNL     1       9.233  15.066  18.251  0.00  0.00    +0.000 N 
ATOM      4  C   UNL     1       9.306  13.739  18.700  0.00  0.00    +0.000 A 
ATOM      5  C   UNL     1       9.472  12.765  17.709  0.00  0.00    +0.000 A 
ATOM      6  C   UNL     1       9.399  11.413  18.033  0.00  0.00    +0.000 A 
ATOM      7  C   UNL     1       9.279  11.021  19.363  0.00  0.00    +0.000 A 
ATOM      8  C   UNL     1       9.228  11.984  20.371  0.00  0.00    +0.000 A 
ATOM      9  C   UNL     1       9.196  13.347  20.048  0.00  0.00    +0.000 A 
ATOM     10  C   UNL     1       9.007  14.292  21.130  0.00  0.00    +0.000 A 
ATOM     11  N   UNL     1       9.480  14.243  22.365  0.00  0.00    +0.000 NA
ATOM     12  N   UNL     1       8.934  15.314  23.030  0.00  0.00    +0.000 NA
ATOM     13  N   UNL     1       8.131  16.007  22.237  0.00  0.00    +0.000 NA
ATOM     14  N   UNL     1       8.184  15.374  21.051  0.00  0.00    +0.000 N 
ATOM     15  C   UNL     1       7.464  15.868  19.894  0.00  0.00    +0.000 C 
ATOM     16  H   UNL     1       9.637  15.285  17.346  0.00  0.00    +0.000 HD
ENDROOT
BRANCH  15  17
ATOM     17  N   UNL     1       6.287  14.976  19.542  0.00  0.00    +0.000 NA
ATOM     18  C   UNL     1       5.281  15.041  20.630  0.00  0.00    +0.000 C 
ATOM     19  C   UNL     1       3.925  14.432  20.263  0.00  0.00    +0.000 C 
ATOM     20  C   UNL     1       3.330  15.075  19.006  0.00  0.00    +0.000 C 
ATOM     21  C   UNL     1       4.347  14.824  17.886  0.00  0.00    +0.000 C 
ATOM     22  C   UNL     1       5.727  15.390  18.234  0.00  0.00    +0.000 C 
BRANCH  20  23
ATOM     23  C   UNL     1       2.980  16.582  19.183  0.00  0.00    +0.000 C 
BRANCH  23  24
ATOM     24  C   UNL     1       1.820  16.991  18.298  0.00  0.00    +0.000 A 
ATOM     25  C   UNL     1       2.049  17.772  17.156  0.00  0.00    +0.000 A 
ATOM     26  C   UNL     1       0.982  18.356  16.476  0.00  0.00    +0.000 A 
ATOM     27  C   UNL     1      -0.325  18.130  16.900  0.00  0.00    +0.000 A 
ATOM     28  C   UNL     1      -0.569  17.278  17.976  0.00  0.00    +0.000 A 
ATOM     29  C   UNL     1       0.498  16.707  18.671  0.00  0.00    +0.000 A 
ENDBRANCH  23  24
ENDBRANCH  20  23
ENDBRANCH  15  17
TORSDOF 3
ENDMDL
MODEL 6
REMARK VINA RESULT:      -6.8      2.592      4.037
REMARK  Name = 
REMARK  3 active torsions:
REMARK  status: ('A' for Active; 'I' for Inactive)
REMARK    1  A    between atoms: C_15  and  N_16
REMARK    2  A    between atoms: C_19  and  C_20
REMARK    3  A    between atoms: C_20  and  C_21
REMARK                            x       y       z     vdW  Elec       q    Type
REMARK                         _______ _______ _______ _____ _____    ______ ____
ROOT
ATOM      1  O   UNL     1       0.990  13.079  18.796  0.00  0.00    +0.000 OA
ATOM      2  C   UNL     1       0.025  12.892  19.560  0.00  0.00    +0.000 C 
ATOM      3  N   UNL     1      -0.202  13.844  20.514  0.00  0.00    +0.000 N 
ATOM      4  C   UNL     1      -1.132  13.810  21.564  0.00  0.00    +0.000 A 
ATOM      5  C   UNL     1      -0.704  14.360  22.778  0.00  0.00    +0.000 A 
ATOM      6  C   UNL     1      -1.490  14.233  23.921  0.00  0.00    +0.000 A 
ATOM      7  C   UNL     1      -2.758  13.665  23.835  0.00  0.00    +0.000 A 
ATOM      8  C   UNL     1      -3.239  13.218  22.606  0.00  0.00    +0.000 A 
ATOM      9  C   UNL     1      -2.418  13.245  21.471  0.00  0.00    +0.000 A 
ATOM     10  C   UNL     1      -2.927  12.643  20.254  0.00  0.00    +0.000 A 
ATOM     11  N   UNL     1      -4.163  12.647  19.783  0.00  0.00    +0.000 NA
ATOM     12  N   UNL     1      -4.151  11.854  18.661  0.00  0.00    +0.000 NA
ATOM     13  N   UNL     1      -2.942  11.358  18.443  0.00  0.00    +0.000 NA
ATOM     14  N   UNL     1      -2.179  11.856  19.432  0.00  0.00    +0.000 N 
ATOM     15  C   UNL     1      -0.759  11.575  19.511  0.00  0.00    +0.000 C 
ATOM     16  H   UNL     1       0.542  14.534  20.559  0.00  0.00    +0.000 HD
ENDROOT
BRANCH  15  17
ATOM     17  N   UNL     1      -0.435  10.638  20.662  0.00  0.00    +0.000 NA
ATOM     18  C   UNL     1      -0.842   9.259  20.301  0.00  0.00    +0.000 C 
ATOM     19  C   UNL     1      -0.298   8.182  21.243  0.00  0.00    +0.000 C 
ATOM     20  C   UNL     1       1.229   8.231  21.346  0.00  0.00    +0.000 C 
ATOM     21  C   UNL     1       1.568   9.627  21.884  0.00  0.00    +0.000 C 
ATOM     22  C   UNL     1       1.008  10.732  20.984  0.00  0.00    +0.000 C 
BRANCH  20  23
ATOM     23  C   UNL     1       1.957   7.901  20.010  0.00  0.00    +0.000 C 
BRANCH  23  24
ATOM     24  C   UNL     1       1.995   6.409  19.750  0.00  0.00    +0.000 A 
ATOM     25  C   UNL     1       2.231   5.927  18.455  0.00  0.00    +0.000 A 
ATOM     26  C   UNL     1       2.028   4.580  18.156  0.00  0.00    +0.000 A 
ATOM     27  C   UNL     1       1.632   3.694  19.155  0.00  0.00    +0.000 A 
ATOM     28  C   UNL     1       1.486   4.145  20.466  0.00  0.00    +0.000 A 
ATOM     29  C   UNL     1       1.671   5.496  20.765  0.00  0.00    +0.000 A 
ENDBRANCH  23  24
ENDBRANCH  20  23
ENDBRANCH  15  17
TORSDOF 3
ENDMDL
MODEL 7
REMARK VINA RESULT:      -6.7      4.524      6.735
REMARK  Name = 
REMARK  3 active torsions:
REMARK  status: ('A' for Active; 'I' for Inactive)
REMARK    1  A    between atoms: C_15  and  N_16
REMARK    2  A    between atoms: C_19  and  C_20
REMARK    3  A    between atoms: C_20  and  C_21
REMARK                            x       y       z     vdW  Elec       q    Type
REMARK                         _______ _______ _______ _____ _____    ______ ____
ROOT
ATOM      1  O   UNL     1       2.237   3.243  16.609  0.00  0.00    +0.000 OA
ATOM      2  C   UNL     1       2.385   3.995  17.590  0.00  0.00    +0.000 C 
ATOM      3  N   UNL     1       1.538   5.065  17.681  0.00  0.00    +0.000 N 
ATOM      4  C   UNL     1       1.577   6.120  18.606  0.00  0.00    +0.000 A 
ATOM      5  C   UNL     1       1.249   7.385  18.105  0.00  0.00    +0.000 A 
ATOM      6  C   UNL     1       1.409   8.517  18.899  0.00  0.00    +0.000 A 
ATOM      7  C   UNL     1       1.783   8.385  20.233  0.00  0.00    +0.000 A 
ATOM      8  C   UNL     1       2.001   7.118  20.773  0.00  0.00    +0.000 A 
ATOM      9  C   UNL     1       1.945   5.980  19.958  0.00  0.00    +0.000 A 
ATOM     10  C   UNL     1       2.313   4.708  20.547  0.00  0.00    +0.000 A 
ATOM     11  N   UNL     1       2.080   4.265  21.771  0.00  0.00    +0.000 NA
ATOM     12  N   UNL     1       2.719   3.052  21.870  0.00  0.00    +0.000 NA
ATOM     13  N   UNL     1       3.345   2.751  20.742  0.00  0.00    +0.000 NA
ATOM     14  N   UNL     1       3.085   3.781  19.916  0.00  0.00    +0.000 N 
ATOM     15  C   UNL     1       3.565   3.797  18.549  0.00  0.00    +0.000 C 
ATOM     16  H   UNL     1       0.968   5.182  16.849  0.00  0.00    +0.000 HD
ENDROOT
BRANCH  15  17
ATOM     17  N   UNL     1       4.675   4.816  18.355  0.00  0.00    +0.000 NA
ATOM     18  C   UNL     1       5.978   4.188  18.680  0.00  0.00    +0.000 C 
ATOM     19  C   UNL     1       7.193   5.009  18.239  0.00  0.00    +0.000 C 
ATOM     20  C   UNL     1       7.159   5.320  16.739  0.00  0.00    +0.000 C 
ATOM     21  C   UNL     1       5.868   6.114  16.506  0.00  0.00    +0.000 C 
ATOM     22  C   UNL     1       4.632   5.336  16.969  0.00  0.00    +0.000 C 
BRANCH  20  23
ATOM     23  C   UNL     1       7.267   4.056  15.837  0.00  0.00    +0.000 C 
BRANCH  23  24
ATOM     24  C   UNL     1       7.102   4.403  14.371  0.00  0.00    +0.000 A 
ATOM     25  C   UNL     1       6.210   3.674  13.572  0.00  0.00    +0.000 A 
ATOM     26  C   UNL     1       6.227   3.816  12.186  0.00  0.00    +0.000 A 
ATOM     27  C   UNL     1       7.101   4.720  11.587  0.00  0.00    +0.000 A 
ATOM     28  C   UNL     1       7.926   5.518  12.378  0.00  0.00    +0.000 A 
ATOM     29  C   UNL     1       7.925   5.365  13.765  0.00  0.00    +0.000 A 
ENDBRANCH  23  24
ENDBRANCH  20  23
ENDBRANCH  15  17
TORSDOF 3
ENDMDL
MODEL 8
REMARK VINA RESULT:      -6.7      2.597      4.137
REMARK  Name = 
REMARK  3 active torsions:
REMARK  status: ('A' for Active; 'I' for Inactive)
REMARK    1  A    between atoms: C_15  and  N_16
REMARK    2  A    between atoms: C_19  and  C_20
REMARK    3  A    between atoms: C_20  and  C_21
REMARK                            x       y       z     vdW  Elec       q    Type
REMARK                         _______ _______ _______ _____ _____    ______ ____
ROOT
ATOM      1  O   UNL     1       1.211  13.313  19.480  0.00  0.00    +0.000 OA
ATOM      2  C   UNL     1       0.136  12.972  20.006  0.00  0.00    +0.000 C 
ATOM      3  N   UNL     1      -0.369  13.799  20.971  0.00  0.00    +0.000 N 
ATOM      4  C   UNL     1      -1.482  13.583  21.797  0.00  0.00    +0.000 A 
ATOM      5  C   UNL     1      -1.362  14.032  23.117  0.00  0.00    +0.000 A 
ATOM      6  C   UNL     1      -2.345  13.726  24.055  0.00  0.00    +0.000 A 
ATOM      7  C   UNL     1      -3.508  13.075  23.657  0.00  0.00    +0.000 A 
ATOM      8  C   UNL     1      -3.688  12.724  22.320  0.00  0.00    +0.000 A 
ATOM      9  C   UNL     1      -2.663  12.933  21.388  0.00  0.00    +0.000 A 
ATOM     10  C   UNL     1      -2.858  12.426  20.044  0.00  0.00    +0.000 A 
ATOM     11  N   UNL     1      -3.969  12.385  19.328  0.00  0.00    +0.000 NA
ATOM     12  N   UNL     1      -3.655  11.718  18.168  0.00  0.00    +0.000 NA
ATOM     13  N   UNL     1      -2.385  11.342  18.164  0.00  0.00    +0.000 NA
ATOM     14  N   UNL     1      -1.888  11.790  19.331  0.00  0.00    +0.000 N 
ATOM     15  C   UNL     1      -0.492  11.612  19.679  0.00  0.00    +0.000 C 
ATOM     16  H   UNL     1       0.280  14.535  21.230  0.00  0.00    +0.000 HD
ENDROOT
BRANCH  15  17
ATOM     17  N   UNL     1      -0.315  10.587  20.786  0.00  0.00    +0.000 NA
ATOM     18  C   UNL     1      -0.751   9.257  20.296  0.00  0.00    +0.000 C 
ATOM     19  C   UNL     1      -0.344   8.094  21.204  0.00  0.00    +0.000 C 
ATOM     20  C   UNL     1       1.168   8.057  21.443  0.00  0.00    +0.000 C 
ATOM     21  C   UNL     1       1.521   9.395  22.103  0.00  0.00    +0.000 C 
ATOM     22  C   UNL     1       1.096  10.585  21.237  0.00  0.00    +0.000 C 
BRANCH  20  23
ATOM     23  C   UNL     1       1.997   7.777  20.155  0.00  0.00    +0.000 C 
BRANCH  23  24
ATOM     24  C   UNL     1       1.918   6.320  19.747  0.00  0.00    +0.000 A 
ATOM     25  C   UNL     1       1.734   5.327  20.720  0.00  0.00    +0.000 A 
ATOM     26  C   UNL     1       1.903   3.982  20.395  0.00  0.00    +0.000 A 
ATOM     27  C   UNL     1       2.213   3.612  19.089  0.00  0.00    +0.000 A 
ATOM     28  C   UNL     1       2.305   4.584  18.094  0.00  0.00    +0.000 A 
ATOM     29  C   UNL     1       2.154   5.933  18.420  0.00  0.00    +0.000 A 
ENDBRANCH  23  24
ENDBRANCH  20  23
ENDBRANCH  15  17
TORSDOF 3
ENDMDL
MODEL 9
REMARK VINA RESULT:      -6.6      2.877      4.489
REMARK  Name = 
REMARK  3 active torsions:
REMARK  status: ('A' for Active; 'I' for Inactive)
REMARK    1  A    between atoms: C_15  and  N_16
REMARK    2  A    between atoms: C_19  and  C_20
REMARK    3  A    between atoms: C_20  and  C_21
REMARK                            x       y       z     vdW  Elec       q    Type
REMARK                         _______ _______ _______ _____ _____    ______ ____
ROOT
ATOM      1  O   UNL     1       0.233  13.829  18.484  0.00  0.00    +0.000 OA
ATOM      2  C   UNL     1      -0.738  13.361  19.108  0.00  0.00    +0.000 C 
ATOM      3  N   UNL     1      -1.369  14.198  19.986  0.00  0.00    +0.000 N 
ATOM      4  C   UNL     1      -2.393  13.886  20.892  0.00  0.00    +0.000 A 
ATOM      5  C   UNL     1      -2.326  14.526  22.135  0.00  0.00    +0.000 A 
ATOM      6  C   UNL     1      -3.200  14.167  23.158  0.00  0.00    +0.000 A 
ATOM      7  C   UNL     1      -4.222  13.254  22.912  0.00  0.00    +0.000 A 
ATOM      8  C   UNL     1      -4.367  12.696  21.642  0.00  0.00    +0.000 A 
ATOM      9  C   UNL     1      -3.432  12.970  20.636  0.00  0.00    +0.000 A 
ATOM     10  C   UNL     1      -3.560  12.256  19.381  0.00  0.00    +0.000 A 
ATOM     11  N   UNL     1      -4.661  11.903  18.739  0.00  0.00    +0.000 NA
ATOM     12  N   UNL     1      -4.255  11.158  17.658  0.00  0.00    +0.000 NA
ATOM     13  N   UNL     1      -2.936  11.037  17.632  0.00  0.00    +0.000 NA
ATOM     14  N   UNL     1      -2.504  11.728  18.703  0.00  0.00    +0.000 N 
ATOM     15  C   UNL     1      -1.091  11.873  18.993  0.00  0.00    +0.000 C 
ATOM     16  H   UNL     1      -0.872  15.075  20.112  0.00  0.00    +0.000 HD
ENDROOT
BRANCH  15  17
ATOM     17  N   UNL     1      -0.682  11.063  20.211  0.00  0.00    +0.000 NA
ATOM     18  C   UNL     1      -1.028   9.639  19.990  0.00  0.00    +0.000 C 
ATOM     19  C   UNL     1      -0.399   8.679  21.004  0.00  0.00    +0.000 C 
ATOM     20  C   UNL     1       1.126   8.812  21.047  0.00  0.00    +0.000 C 
ATOM     21  C   UNL     1       1.408  10.266  21.445  0.00  0.00    +0.000 C 
ATOM     22  C   UNL     1       0.764  11.256  20.470  0.00  0.00    +0.000 C 
BRANCH  20  23
ATOM     23  C   UNL     1       1.827   8.398  19.720  0.00  0.00    +0.000 C 
BRANCH  23  24
ATOM     24  C   UNL     1       2.069   6.903  19.662  0.00  0.00    +0.000 A 
ATOM     25  C   UNL     1       2.478   6.304  18.462  0.00  0.00    +0.000 A 
ATOM     26  C   UNL     1       2.468   4.916  18.328  0.00  0.00    +0.000 A 
ATOM     27  C   UNL     1       2.093   4.113  19.402  0.00  0.00    +0.000 A 
ATOM     28  C   UNL     1       1.776   4.695  20.628  0.00  0.00    +0.000 A 
ATOM     29  C   UNL     1       1.768   6.084  20.761  0.00  0.00    +0.000 A 
ENDBRANCH  23  24
ENDBRANCH  20  23
ENDBRANCH  15  17
TORSDOF 3
ENDMDL
