MODEL 1
REMARK VINA RESULT:      -7.8      0.000      0.000
REMARK  Name = 
REMARK  7 active torsions:
REMARK  status: ('A' for Active; 'I' for Inactive)
REMARK    1  A    between atoms: C_1  and  C_2
REMARK    2  A    between atoms: C_2  and  C_3
REMARK    3  A    between atoms: C_3  and  C_4
REMARK    4  A    between atoms: C_6  and  N_7
REMARK    5  A    between atoms: C_10  and  N_11
REMARK    6  A    between atoms: C_12  and  C_14
REMARK    7  A    between atoms: C_15  and  C_16
REMARK                            x       y       z     vdW  Elec       q    Type
REMARK                         _______ _______ _______ _____ _____    ______ ____
ROOT
ATOM      1  C   UNL     1       0.228   9.756  21.564  0.00  0.00    +0.000 A 
ATOM      2  C   UNL     1       0.545  10.469  20.418  0.00  0.00    +0.000 A 
ATOM      3  C   UNL     1       1.303   9.862  19.425  0.00  0.00    +0.000 A 
ATOM      4  C   UNL     1       1.647   8.501  19.584  0.00  0.00    +0.000 A 
ATOM      5  C   UNL     1       2.354   7.788  18.599  0.00  0.00    +0.000 A 
ATOM      6  C   UNL     1       2.730   6.455  18.751  0.00  0.00    +0.000 A 
ATOM      7  C   UNL     1       2.354   5.804  19.921  0.00  0.00    +0.000 A 
ATOM      8  C   UNL     1       1.636   6.500  20.911  0.00  0.00    +0.000 A 
ATOM      9  C   UNL     1       1.277   7.842  20.771  0.00  0.00    +0.000 A 
ATOM     10  N   UNL     1       0.589   8.461  21.748  0.00  0.00    +0.000 NA
ENDROOT
BRANCH   6  11
ATOM     11  N   UNL     1       3.473   5.760  17.763  0.00  0.00    +0.000 N 
ATOM     12  C   UNL     1       4.740   5.233  17.942  0.00  0.00    +0.000 C 
ATOM     13  O   UNL     1       5.410   5.258  18.974  0.00  0.00    +0.000 OA
ATOM     14  H   UNL     1       3.021   5.632  16.868  0.00  0.00    +0.000 HD
BRANCH  12  15
ATOM     15  C   UNL     1       5.297   4.570  16.736  0.00  0.00    +0.000 C 
ATOM     16  C   UNL     1       5.576   5.357  15.682  0.00  0.00    +0.000 C 
BRANCH  16  17
ATOM     17  C   UNL     1       6.135   4.916  14.402  0.00  0.00    +0.000 A 
ATOM     18  C   UNL     1       7.374   5.367  13.931  0.00  0.00    +0.000 A 
ATOM     19  C   UNL     1       7.887   4.895  12.722  0.00  0.00    +0.000 A 
ATOM     20  C   UNL     1       7.170   3.957  11.980  0.00  0.00    +0.000 A 
ATOM     21  C   UNL     1       5.948   3.487  12.454  0.00  0.00    +0.000 A 
ATOM     22 CL   UNL     1       5.074   2.316  11.547  0.00  0.00    +0.000 Cl
ATOM     23  C   UNL     1       5.431   3.957  13.660  0.00  0.00    +0.000 A 
ENDBRANCH  16  17
ENDBRANCH  12  15
ENDBRANCH   6  11
BRANCH   3  24
ATOM     24  N   UNL     1       1.486  10.560  18.213  0.00  0.00    +0.000 N 
ATOM     25  H   UNL     1       1.968  10.030  17.494  0.00  0.00    +0.000 HD
ATOM     26  H   UNL     1       0.651  11.004  17.843  0.00  0.00    +0.000 HD
ENDBRANCH   3  24
BRANCH   1  27
ATOM     27  C   UNL     1      -0.602  10.417  22.636  0.00  0.00    +0.000 C 
BRANCH  27  29
ATOM     28  C   UNL     1      -1.095  12.852  22.992  0.00  0.00    +0.000 C 
ATOM     29  C   UNL     1      -1.358  11.637  22.116  0.00  0.00    +0.000 C 
ENDBRANCH  27  29
ENDBRANCH   1  27
TORSDOF 6
ENDMDL
MODEL 2
REMARK VINA RESULT:      -7.7      4.571     10.941
REMARK  Name = 
REMARK  7 active torsions:
REMARK  status: ('A' for Active; 'I' for Inactive)
REMARK    1  A    between atoms: C_1  and  C_2
REMARK    2  A    between atoms: C_2  and  C_3
REMARK    3  A    between atoms: C_3  and  C_4
REMARK    4  A    between atoms: C_6  and  N_7
REMARK    5  A    between atoms: C_10  and  N_11
REMARK    6  A    between atoms: C_12  and  C_14
REMARK    7  A    between atoms: C_15  and  C_16
REMARK                            x       y       z     vdW  Elec       q    Type
REMARK                         _______ _______ _______ _____ _____    ______ ____
ROOT
ATOM      1  C   UNL     1       4.193   5.848  17.633  0.00  0.00    +0.000 A 
ATOM      2  C   UNL     1       3.905   5.194  18.822  0.00  0.00    +0.000 A 
ATOM      3  C   UNL     1       3.081   5.809  19.756  0.00  0.00    +0.000 A 
ATOM      4  C   UNL     1       2.491   7.047  19.416  0.00  0.00    +0.000 A 
ATOM      5  C   UNL     1       1.591   7.707  20.273  0.00  0.00    +0.000 A 
ATOM      6  C   UNL     1       1.025   8.943  19.969  0.00  0.00    +0.000 A 
ATOM      7  C   UNL     1       1.347   9.522  18.747  0.00  0.00    +0.000 A 
ATOM      8  C   UNL     1       2.236   8.868  17.874  0.00  0.00    +0.000 A 
ATOM      9  C   UNL     1       2.822   7.640  18.184  0.00  0.00    +0.000 A 
ATOM     10  N   UNL     1       3.666   7.057  17.314  0.00  0.00    +0.000 NA
ENDROOT
BRANCH   6  11
ATOM     11  N   UNL     1       0.146   9.612  20.859  0.00  0.00    +0.000 N 
ATOM     12  C   UNL     1       0.364   9.786  22.215  0.00  0.00    +0.000 C 
ATOM     13  O   UNL     1       1.348   9.418  22.856  0.00  0.00    +0.000 OA
ATOM     14  H   UNL     1      -0.694  10.003  20.453  0.00  0.00    +0.000 HD
BRANCH  12  15
ATOM     15  C   UNL     1      -0.727  10.507  22.917  0.00  0.00    +0.000 C 
ATOM     16  C   UNL     1      -0.835  11.827  22.682  0.00  0.00    +0.000 C 
BRANCH  16  17
ATOM     17  C   UNL     1      -1.837  12.725  23.261  0.00  0.00    +0.000 A 
ATOM     18  C   UNL     1      -1.584  14.083  23.484  0.00  0.00    +0.000 A 
ATOM     19  C   UNL     1      -2.578  14.913  24.005  0.00  0.00    +0.000 A 
ATOM     20  C   UNL     1      -3.839  14.393  24.294  0.00  0.00    +0.000 A 
ATOM     21  C   UNL     1      -4.105  13.047  24.052  0.00  0.00    +0.000 A 
ATOM     22 CL   UNL     1      -5.667  12.412  24.392  0.00  0.00    +0.000 Cl
ATOM     23  C   UNL     1      -3.115  12.214  23.534  0.00  0.00    +0.000 A 
ENDBRANCH  16  17
ENDBRANCH  12  15
ENDBRANCH   6  11
BRANCH   3  24
ATOM     24  N   UNL     1       2.691   5.061  20.887  0.00  0.00    +0.000 N 
ATOM     25  H   UNL     1       3.130   4.150  20.958  0.00  0.00    +0.000 HD
ATOM     26  H   UNL     1       2.739   5.562  21.770  0.00  0.00    +0.000 HD
ENDBRANCH   3  24
BRANCH   1  27
ATOM     27  C   UNL     1       5.081   5.174  16.619  0.00  0.00    +0.000 C 
BRANCH  27  29
ATOM     28  C   UNL     1       7.353   5.513  17.630  0.00  0.00    +0.000 C 
ATOM     29  C   UNL     1       6.431   5.871  16.474  0.00  0.00    +0.000 C 
ENDBRANCH  27  29
ENDBRANCH   1  27
TORSDOF 6
ENDMDL
MODEL 3
REMARK VINA RESULT:      -7.6      4.609     10.976
REMARK  Name = 
REMARK  7 active torsions:
REMARK  status: ('A' for Active; 'I' for Inactive)
REMARK    1  A    between atoms: C_1  and  C_2
REMARK    2  A    between atoms: C_2  and  C_3
REMARK    3  A    between atoms: C_3  and  C_4
REMARK    4  A    between atoms: C_6  and  N_7
REMARK    5  A    between atoms: C_10  and  N_11
REMARK    6  A    between atoms: C_12  and  C_14
REMARK    7  A    between atoms: C_15  and  C_16
REMARK                            x       y       z     vdW  Elec       q    Type
REMARK                         _______ _______ _______ _____ _____    ______ ____
ROOT
ATOM      1  C   UNL     1       3.980   5.083  17.993  0.00  0.00    +0.000 A 
ATOM      2  C   UNL     1       3.579   4.449  19.160  0.00  0.00    +0.000 A 
ATOM      3  C   UNL     1       2.792   5.137  20.074  0.00  0.00    +0.000 A 
ATOM      4  C   UNL     1       2.352   6.436  19.734  0.00  0.00    +0.000 A 
ATOM      5  C   UNL     1       1.497   7.179  20.568  0.00  0.00    +0.000 A 
ATOM      6  C   UNL     1       1.078   8.472  20.265  0.00  0.00    +0.000 A 
ATOM      7  C   UNL     1       1.506   9.029  19.066  0.00  0.00    +0.000 A 
ATOM      8  C   UNL     1       2.352   8.294  18.214  0.00  0.00    +0.000 A 
ATOM      9  C   UNL     1       2.791   7.006  18.525  0.00  0.00    +0.000 A 
ATOM     10  N   UNL     1       3.599   6.345  17.675  0.00  0.00    +0.000 NA
ENDROOT
BRANCH   6  11
ATOM     11  N   UNL     1       0.244   9.221  21.134  0.00  0.00    +0.000 N 
ATOM     12  C   UNL     1       0.582   9.622  22.415  0.00  0.00    +0.000 C 
ATOM     13  O   UNL     1       1.650   9.421  22.992  0.00  0.00    +0.000 OA
ATOM     14  H   UNL     1      -0.659   9.491  20.769  0.00  0.00    +0.000 HD
BRANCH  12  15
ATOM     15  C   UNL     1      -0.486  10.380  23.115  0.00  0.00    +0.000 C 
ATOM     16  C   UNL     1      -0.807  11.585  22.613  0.00  0.00    +0.000 C 
BRANCH  16  17
ATOM     17  C   UNL     1      -1.830  12.492  23.140  0.00  0.00    +0.000 A 
ATOM     18  C   UNL     1      -3.151  12.084  23.355  0.00  0.00    +0.000 A 
ATOM     19  C   UNL     1      -4.087  12.969  23.891  0.00  0.00    +0.000 A 
ATOM     20  C   UNL     1      -3.705  14.267  24.230  0.00  0.00    +0.000 A 
ATOM     21  C   UNL     1      -2.386  14.672  24.041  0.00  0.00    +0.000 A 
ATOM     22 CL   UNL     1      -1.912  16.266  24.476  0.00  0.00    +0.000 Cl
ATOM     23  C   UNL     1      -1.448  13.791  23.503  0.00  0.00    +0.000 A 
ENDBRANCH  16  17
ENDBRANCH  12  15
ENDBRANCH   6  11
BRANCH   3  24
ATOM     24  N   UNL     1       2.282   4.422  21.178  0.00  0.00    +0.000 N 
ATOM     25  H   UNL     1       2.874   3.660  21.492  0.00  0.00    +0.000 HD
ATOM     26  H   UNL     1       1.977   4.997  21.959  0.00  0.00    +0.000 HD
ENDBRANCH   3  24
BRANCH   1  27
ATOM     27  C   UNL     1       4.828   4.329  17.000  0.00  0.00    +0.000 C 
BRANCH  27  29
ATOM     28  C   UNL     1       6.884   5.673  16.485  0.00  0.00    +0.000 C 
ATOM     29  C   UNL     1       5.507   5.255  15.994  0.00  0.00    +0.000 C 
ENDBRANCH  27  29
ENDBRANCH   1  27
TORSDOF 6
ENDMDL
MODEL 4
REMARK VINA RESULT:      -7.5      3.649      4.919
REMARK  Name = 
REMARK  7 active torsions:
REMARK  status: ('A' for Active; 'I' for Inactive)
REMARK    1  A    between atoms: C_1  and  C_2
REMARK    2  A    between atoms: C_2  and  C_3
REMARK    3  A    between atoms: C_3  and  C_4
REMARK    4  A    between atoms: C_6  and  N_7
REMARK    5  A    between atoms: C_10  and  N_11
REMARK    6  A    between atoms: C_12  and  C_14
REMARK    7  A    between atoms: C_15  and  C_16
REMARK                            x       y       z     vdW  Elec       q    Type
REMARK                         _______ _______ _______ _____ _____    ______ ____
ROOT
ATOM      1  C   UNL     1      -4.217  11.773  18.547  0.00  0.00    +0.000 A 
ATOM      2  C   UNL     1      -4.234  11.037  17.371  0.00  0.00    +0.000 A 
ATOM      3  C   UNL     1      -3.066  10.426  16.934  0.00  0.00    +0.000 A 
ATOM      4  C   UNL     1      -1.921  10.502  17.757  0.00  0.00    +0.000 A 
ATOM      5  C   UNL     1      -0.716   9.856  17.425  0.00  0.00    +0.000 A 
ATOM      6  C   UNL     1       0.433   9.946  18.207  0.00  0.00    +0.000 A 
ATOM      7  C   UNL     1       0.361  10.685  19.383  0.00  0.00    +0.000 A 
ATOM      8  C   UNL     1      -0.840  11.327  19.735  0.00  0.00    +0.000 A 
ATOM      9  C   UNL     1      -1.987  11.257  18.942  0.00  0.00    +0.000 A 
ATOM     10  N   UNL     1      -3.112  11.889  19.325  0.00  0.00    +0.000 NA
ENDROOT
BRANCH   6  11
ATOM     11  N   UNL     1       1.650   9.317  17.841  0.00  0.00    +0.000 N 
ATOM     12  C   UNL     1       2.206   8.223  18.480  0.00  0.00    +0.000 C 
ATOM     13  O   UNL     1       1.735   7.612  19.438  0.00  0.00    +0.000 OA
ATOM     14  H   UNL     1       2.129   9.698  17.035  0.00  0.00    +0.000 HD
BRANCH  12  15
ATOM     15  C   UNL     1       3.498   7.775  17.902  0.00  0.00    +0.000 C 
ATOM     16  C   UNL     1       3.816   6.477  18.052  0.00  0.00    +0.000 C 
BRANCH  16  17
ATOM     17  C   UNL     1       5.031   5.826  17.557  0.00  0.00    +0.000 A 
ATOM     18  C   UNL     1       6.185   5.701  18.340  0.00  0.00    +0.000 A 
ATOM     19  C   UNL     1       7.310   5.043  17.843  0.00  0.00    +0.000 A 
ATOM     20  C   UNL     1       7.286   4.489  16.564  0.00  0.00    +0.000 A 
ATOM     21  C   UNL     1       6.133   4.589  15.788  0.00  0.00    +0.000 A 
ATOM     22 CL   UNL     1       6.098   3.890  14.217  0.00  0.00    +0.000 Cl
ATOM     23  C   UNL     1       5.007   5.248  16.279  0.00  0.00    +0.000 A 
ENDBRANCH  16  17
ENDBRANCH  12  15
ENDBRANCH   6  11
BRANCH   3  24
ATOM     24  N   UNL     1      -3.148   9.568  15.816  0.00  0.00    +0.000 N 
ATOM     25  H   UNL     1      -3.624   8.690  15.997  0.00  0.00    +0.000 HD
ATOM     26  H   UNL     1      -3.493  10.003  14.965  0.00  0.00    +0.000 HD
ENDBRANCH   3  24
BRANCH   1  27
ATOM     27  C   UNL     1      -5.488  12.429  19.023  0.00  0.00    +0.000 C 
BRANCH  27  29
ATOM     28  C   UNL     1      -7.717  13.157  18.128  0.00  0.00    +0.000 C 
ATOM     29  C   UNL     1      -6.698  12.029  18.182  0.00  0.00    +0.000 C 
ENDBRANCH  27  29
ENDBRANCH   1  27
TORSDOF 6
ENDMDL
MODEL 5
REMARK VINA RESULT:      -7.5      2.206      3.501
REMARK  Name = 
REMARK  7 active torsions:
REMARK  status: ('A' for Active; 'I' for Inactive)
REMARK    1  A    between atoms: C_1  and  C_2
REMARK    2  A    between atoms: C_2  and  C_3
REMARK    3  A    between atoms: C_3  and  C_4
REMARK    4  A    between atoms: C_6  and  N_7
REMARK    5  A    between atoms: C_10  and  N_11
REMARK    6  A    between atoms: C_12  and  C_14
REMARK    7  A    between atoms: C_15  and  C_16
REMARK                            x       y       z     vdW  Elec       q    Type
REMARK                         _______ _______ _______ _____ _____    ______ ____
ROOT
ATOM      1  C   UNL     1      -1.783  12.194  21.939  0.00  0.00    +0.000 A 
ATOM      2  C   UNL     1      -1.836  12.228  20.553  0.00  0.00    +0.000 A 
ATOM      3  C   UNL     1      -1.041  11.358  19.819  0.00  0.00    +0.000 A 
ATOM      4  C   UNL     1      -0.271  10.403  20.519  0.00  0.00    +0.000 A 
ATOM      5  C   UNL     1       0.511   9.440  19.856  0.00  0.00    +0.000 A 
ATOM      6  C   UNL     1       1.302   8.511  20.528  0.00  0.00    +0.000 A 
ATOM      7  C   UNL     1       1.283   8.528  21.918  0.00  0.00    +0.000 A 
ATOM      8  C   UNL     1       0.497   9.478  22.597  0.00  0.00    +0.000 A 
ATOM      9  C   UNL     1      -0.280  10.424  21.926  0.00  0.00    +0.000 A 
ATOM     10  N   UNL     1      -1.014  11.310  22.623  0.00  0.00    +0.000 NA
ENDROOT
BRANCH   6  11
ATOM     11  N   UNL     1       2.110   7.569  19.843  0.00  0.00    +0.000 N 
ATOM     12  C   UNL     1       2.079   6.199  20.039  0.00  0.00    +0.000 C 
ATOM     13  O   UNL     1       1.342   5.581  20.807  0.00  0.00    +0.000 OA
ATOM     14  H   UNL     1       2.743   7.940  19.147  0.00  0.00    +0.000 HD
BRANCH  12  15
ATOM     15  C   UNL     1       3.046   5.444  19.203  0.00  0.00    +0.000 C 
ATOM     16  C   UNL     1       4.113   6.121  18.745  0.00  0.00    +0.000 C 
BRANCH  16  17
ATOM     17  C   UNL     1       5.188   5.573  17.914  0.00  0.00    +0.000 A 
ATOM     18  C   UNL     1       6.470   5.324  18.417  0.00  0.00    +0.000 A 
ATOM     19  C   UNL     1       7.456   4.769  17.601  0.00  0.00    +0.000 A 
ATOM     20  C   UNL     1       7.164   4.445  16.277  0.00  0.00    +0.000 A 
ATOM     21  C   UNL     1       5.884   4.668  15.776  0.00  0.00    +0.000 A 
ATOM     22 CL   UNL     1       5.519   4.251  14.148  0.00  0.00    +0.000 Cl
ATOM     23  C   UNL     1       4.896   5.224  16.587  0.00  0.00    +0.000 A 
ENDBRANCH  16  17
ENDBRANCH  12  15
ENDBRANCH   6  11
BRANCH   3  24
ATOM     24  N   UNL     1      -1.224  11.316  18.421  0.00  0.00    +0.000 N 
ATOM     25  H   UNL     1      -0.514  10.790  17.922  0.00  0.00    +0.000 HD
ATOM     26  H   UNL     1      -2.157  11.053  18.117  0.00  0.00    +0.000 HD
ENDBRANCH   3  24
BRANCH   1  27
ATOM     27  C   UNL     1      -2.654  13.135  22.732  0.00  0.00    +0.000 C 
BRANCH  27  29
ATOM     28  C   UNL     1      -4.832  12.971  23.968  0.00  0.00    +0.000 C 
ATOM     29  C   UNL     1      -3.420  12.421  23.843  0.00  0.00    +0.000 C 
ENDBRANCH  27  29
ENDBRANCH   1  27
TORSDOF 6
ENDMDL
MODEL 6
REMARK VINA RESULT:      -7.5      4.582     10.738
REMARK  Name = 
REMARK  7 active torsions:
REMARK  status: ('A' for Active; 'I' for Inactive)
REMARK    1  A    between atoms: C_1  and  C_2
REMARK    2  A    between atoms: C_2  and  C_3
REMARK    3  A    between atoms: C_3  and  C_4
REMARK    4  A    between atoms: C_6  and  N_7
REMARK    5  A    between atoms: C_10  and  N_11
REMARK    6  A    between atoms: C_12  and  C_14
REMARK    7  A    between atoms: C_15  and  C_16
REMARK                            x       y       z     vdW  Elec       q    Type
REMARK                         _______ _______ _______ _____ _____    ______ ____
ROOT
ATOM      1  C   UNL     1       4.065   4.722  18.056  0.00  0.00    +0.000 A 
ATOM      2  C   UNL     1       3.587   4.464  19.333  0.00  0.00    +0.000 A 
ATOM      3  C   UNL     1       2.892   5.455  20.013  0.00  0.00    +0.000 A 
ATOM      4  C   UNL     1       2.618   6.665  19.337  0.00  0.00    +0.000 A 
ATOM      5  C   UNL     1       1.863   7.696  19.924  0.00  0.00    +0.000 A 
ATOM      6  C   UNL     1       1.610   8.909  19.286  0.00  0.00    +0.000 A 
ATOM      7  C   UNL     1       2.106   9.080  17.999  0.00  0.00    +0.000 A 
ATOM      8  C   UNL     1       2.853   8.053  17.393  0.00  0.00    +0.000 A 
ATOM      9  C   UNL     1       3.127   6.846  18.037  0.00  0.00    +0.000 A 
ATOM     10  N   UNL     1       3.846   5.896  17.413  0.00  0.00    +0.000 NA
ENDROOT
BRANCH   6  11
ATOM     11  N   UNL     1       0.876   9.951  19.906  0.00  0.00    +0.000 N 
ATOM     12  C   UNL     1      -0.341  10.442  19.464  0.00  0.00    +0.000 C 
ATOM     13  O   UNL     1      -0.986  10.047  18.494  0.00  0.00    +0.000 OA
ATOM     14  H   UNL     1       1.276  10.346  20.747  0.00  0.00    +0.000 HD
BRANCH  12  15
ATOM     15  C   UNL     1      -0.884  11.551  20.289  0.00  0.00    +0.000 C 
ATOM     16  C   UNL     1      -1.086  11.297  21.594  0.00  0.00    +0.000 C 
BRANCH  16  17
ATOM     17  C   UNL     1      -1.604  12.243  22.585  0.00  0.00    +0.000 A 
ATOM     18  C   UNL     1      -0.977  13.465  22.852  0.00  0.00    +0.000 A 
ATOM     19  C   UNL     1      -1.522  14.354  23.779  0.00  0.00    +0.000 A 
ATOM     20  C   UNL     1      -2.709  14.034  24.436  0.00  0.00    +0.000 A 
ATOM     21  C   UNL     1      -3.352  12.830  24.158  0.00  0.00    +0.000 A 
ATOM     22 CL   UNL     1      -4.826  12.445  24.956  0.00  0.00    +0.000 Cl
ATOM     23  C   UNL     1      -2.809  11.938  23.234  0.00  0.00    +0.000 A 
ENDBRANCH  16  17
ENDBRANCH  12  15
ENDBRANCH   6  11
BRANCH   3  24
ATOM     24  N   UNL     1       2.295   5.117  21.245  0.00  0.00    +0.000 N 
ATOM     25  H   UNL     1       1.302   5.321  21.299  0.00  0.00    +0.000 HD
ATOM     26  H   UNL     1       2.494   4.176  21.575  0.00  0.00    +0.000 HD
ENDBRANCH   3  24
BRANCH   1  27
ATOM     27  C   UNL     1       4.813   3.640  17.318  0.00  0.00    +0.000 C 
BRANCH  27  29
ATOM     28  C   UNL     1       7.099   4.546  16.816  0.00  0.00    +0.000 C 
ATOM     29  C   UNL     1       5.734   4.203  16.239  0.00  0.00    +0.000 C 
ENDBRANCH  27  29
ENDBRANCH   1  27
TORSDOF 6
ENDMDL
MODEL 7
REMARK VINA RESULT:      -7.5      4.567     10.903
REMARK  Name = 
REMARK  7 active torsions:
REMARK  status: ('A' for Active; 'I' for Inactive)
REMARK    1  A    between atoms: C_1  and  C_2
REMARK    2  A    between atoms: C_2  and  C_3
REMARK    3  A    between atoms: C_3  and  C_4
REMARK    4  A    between atoms: C_6  and  N_7
REMARK    5  A    between atoms: C_10  and  N_11
REMARK    6  A    between atoms: C_12  and  C_14
REMARK    7  A    between atoms: C_15  and  C_16
REMARK                            x       y       z     vdW  Elec       q    Type
REMARK                         _______ _______ _______ _____ _____    ______ ____
ROOT
ATOM      1  C   UNL     1       3.670   4.792  17.836  0.00  0.00    +0.000 A 
ATOM      2  C   UNL     1       3.435   4.290  19.107  0.00  0.00    +0.000 A 
ATOM      3  C   UNL     1       2.872   5.114  20.072  0.00  0.00    +0.000 A 
ATOM      4  C   UNL     1       2.475   6.416  19.692  0.00  0.00    +0.000 A 
ATOM      5  C   UNL     1       1.837   7.295  20.586  0.00  0.00    +0.000 A 
ATOM      6  C   UNL     1       1.467   8.592  20.240  0.00  0.00    +0.000 A 
ATOM      7  C   UNL     1       1.718   9.013  18.939  0.00  0.00    +0.000 A 
ATOM      8  C   UNL     1       2.345   8.141  18.029  0.00  0.00    +0.000 A 
ATOM      9  C   UNL     1       2.736   6.848  18.379  0.00  0.00    +0.000 A 
ATOM     10  N   UNL     1       3.332   6.054  17.470  0.00  0.00    +0.000 NA
ENDROOT
BRANCH   6  11
ATOM     11  N   UNL     1       0.856   9.477  21.164  0.00  0.00    +0.000 N 
ATOM     12  C   UNL     1      -0.240   9.174  21.954  0.00  0.00    +0.000 C 
ATOM     13  O   UNL     1      -0.838   8.100  22.002  0.00  0.00    +0.000 OA
ATOM     14  H   UNL     1       1.275  10.393  21.254  0.00  0.00    +0.000 HD
BRANCH  12  15
ATOM     15  C   UNL     1      -0.691  10.291  22.821  0.00  0.00    +0.000 C 
ATOM     16  C   UNL     1      -1.350  11.299  22.222  0.00  0.00    +0.000 C 
BRANCH  16  17
ATOM     17  C   UNL     1      -1.886  12.490  22.885  0.00  0.00    +0.000 A 
ATOM     18  C   UNL     1      -1.068  13.548  23.299  0.00  0.00    +0.000 A 
ATOM     19  C   UNL     1      -1.622  14.681  23.895  0.00  0.00    +0.000 A 
ATOM     20  C   UNL     1      -3.003  14.772  24.070  0.00  0.00    +0.000 A 
ATOM     21  C   UNL     1      -3.825  13.733  23.640  0.00  0.00    +0.000 A 
ATOM     22 CL   UNL     1      -5.529  13.855  23.840  0.00  0.00    +0.000 Cl
ATOM     23  C   UNL     1      -3.275  12.598  23.045  0.00  0.00    +0.000 A 
ENDBRANCH  16  17
ENDBRANCH  12  15
ENDBRANCH   6  11
BRANCH   3  24
ATOM     24  N   UNL     1       2.512   4.536  21.308  0.00  0.00    +0.000 N 
ATOM     25  H   UNL     1       1.929   5.126  21.892  0.00  0.00    +0.000 HD
ATOM     26  H   UNL     1       2.136   3.593  21.248  0.00  0.00    +0.000 HD
ENDBRANCH   3  24
BRANCH   1  27
ATOM     27  C   UNL     1       4.273   3.891  16.788  0.00  0.00    +0.000 C 
BRANCH  27  29
ATOM     28  C   UNL     1       6.667   4.571  16.467  0.00  0.00    +0.000 C 
ATOM     29  C   UNL     1       5.262   4.627  15.888  0.00  0.00    +0.000 C 
ENDBRANCH  27  29
ENDBRANCH   1  27
TORSDOF 6
ENDMDL
MODEL 8
REMARK VINA RESULT:      -7.4      4.684     11.216
REMARK  Name = 
REMARK  7 active torsions:
REMARK  status: ('A' for Active; 'I' for Inactive)
REMARK    1  A    between atoms: C_1  and  C_2
REMARK    2  A    between atoms: C_2  and  C_3
REMARK    3  A    between atoms: C_3  and  C_4
REMARK    4  A    between atoms: C_6  and  N_7
REMARK    5  A    between atoms: C_10  and  N_11
REMARK    6  A    between atoms: C_12  and  C_14
REMARK    7  A    between atoms: C_15  and  C_16
REMARK                            x       y       z     vdW  Elec       q    Type
REMARK                         _______ _______ _______ _____ _____    ______ ____
ROOT
ATOM      1  C   UNL     1       4.061   6.491  17.503  0.00  0.00    +0.000 A 
ATOM      2  C   UNL     1       3.766   5.767  18.648  0.00  0.00    +0.000 A 
ATOM      3  C   UNL     1       2.912   6.311  19.598  0.00  0.00    +0.000 A 
ATOM      4  C   UNL     1       2.301   7.553  19.315  0.00  0.00    +0.000 A 
ATOM      5  C   UNL     1       1.371   8.146  20.189  0.00  0.00    +0.000 A 
ATOM      6  C   UNL     1       0.783   9.384  19.943  0.00  0.00    +0.000 A 
ATOM      7  C   UNL     1       1.114  10.037  18.761  0.00  0.00    +0.000 A 
ATOM      8  C   UNL     1       2.033   9.452  17.871  0.00  0.00    +0.000 A 
ATOM      9  C   UNL     1       2.641   8.221  18.125  0.00  0.00    +0.000 A 
ATOM     10  N   UNL     1       3.514   7.704  17.240  0.00  0.00    +0.000 NA
ENDROOT
BRANCH   6  11
ATOM     11  N   UNL     1      -0.127   9.984  20.851  0.00  0.00    +0.000 N 
ATOM     12  C   UNL     1       0.124  11.124  21.595  0.00  0.00    +0.000 C 
ATOM     13  O   UNL     1       1.147  11.807  21.574  0.00  0.00    +0.000 OA
ATOM     14  H   UNL     1      -1.032   9.543  20.938  0.00  0.00    +0.000 HD
BRANCH  12  15
ATOM     15  C   UNL     1      -0.996  11.527  22.483  0.00  0.00    +0.000 C 
ATOM     16  C   UNL     1      -2.076  12.069  21.895  0.00  0.00    +0.000 C 
BRANCH  16  17
ATOM     17  C   UNL     1      -3.288  12.528  22.576  0.00  0.00    +0.000 A 
ATOM     18  C   UNL     1      -3.536  12.253  23.926  0.00  0.00    +0.000 A 
ATOM     19  C   UNL     1      -4.688  12.738  24.548  0.00  0.00    +0.000 A 
ATOM     20  C   UNL     1      -5.594  13.515  23.828  0.00  0.00    +0.000 A 
ATOM     21  C   UNL     1      -5.342  13.812  22.491  0.00  0.00    +0.000 A 
ATOM     22 CL   UNL     1      -6.451  14.786  21.608  0.00  0.00    +0.000 Cl
ATOM     23  C   UNL     1      -4.194  13.328  21.865  0.00  0.00    +0.000 A 
ENDBRANCH  16  17
ENDBRANCH  12  15
ENDBRANCH   6  11
BRANCH   3  24
ATOM     24  N   UNL     1       2.517   5.494  20.678  0.00  0.00    +0.000 N 
ATOM     25  H   UNL     1       1.741   5.861  21.219  0.00  0.00    +0.000 HD
ATOM     26  H   UNL     1       2.372   4.515  20.446  0.00  0.00    +0.000 HD
ENDBRANCH   3  24
BRANCH   1  27
ATOM     27  C   UNL     1       4.983   5.893  16.470  0.00  0.00    +0.000 C 
BRANCH  27  29
ATOM     28  C   UNL     1       6.096   3.809  15.623  0.00  0.00    +0.000 C 
ATOM     29  C   UNL     1       5.011   4.368  16.531  0.00  0.00    +0.000 C 
ENDBRANCH  27  29
ENDBRANCH   1  27
TORSDOF 6
ENDMDL
MODEL 9
REMARK VINA RESULT:      -7.4      4.220     10.750
REMARK  Name = 
REMARK  7 active torsions:
REMARK  status: ('A' for Active; 'I' for Inactive)
REMARK    1  A    between atoms: C_1  and  C_2
REMARK    2  A    between atoms: C_2  and  C_3
REMARK    3  A    between atoms: C_3  and  C_4
REMARK    4  A    between atoms: C_6  and  N_7
REMARK    5  A    between atoms: C_10  and  N_11
REMARK    6  A    between atoms: C_12  and  C_14
REMARK    7  A    between atoms: C_15  and  C_16
REMARK                            x       y       z     vdW  Elec       q    Type
REMARK                         _______ _______ _______ _____ _____    ______ ____
ROOT
ATOM      1  C   UNL     1       4.088   5.150  17.957  0.00  0.00    +0.000 A 
ATOM      2  C   UNL     1       3.714   4.606  19.177  0.00  0.00    +0.000 A 
ATOM      3  C   UNL     1       2.938   5.357  20.049  0.00  0.00    +0.000 A 
ATOM      4  C   UNL     1       2.481   6.623  19.618  0.00  0.00    +0.000 A 
ATOM      5  C   UNL     1       1.635   7.422  20.409  0.00  0.00    +0.000 A 
ATOM      6  C   UNL     1       1.201   8.686  20.015  0.00  0.00    +0.000 A 
ATOM      7  C   UNL     1       1.602   9.151  18.768  0.00  0.00    +0.000 A 
ATOM      8  C   UNL     1       2.438   8.358  17.960  0.00  0.00    +0.000 A 
ATOM      9  C   UNL     1       2.893   7.100  18.361  0.00  0.00    +0.000 A 
ATOM     10  N   UNL     1       3.691   6.382  17.550  0.00  0.00    +0.000 NA
ENDROOT
BRANCH   6  11
ATOM     11  N   UNL     1       0.376   9.494  20.839  0.00  0.00    +0.000 N 
ATOM     12  C   UNL     1       0.629   9.799  22.166  0.00  0.00    +0.000 C 
ATOM     13  O   UNL     1       1.603   9.447  22.830  0.00  0.00    +0.000 OA
ATOM     14  H   UNL     1      -0.448   9.885  20.405  0.00  0.00    +0.000 HD
BRANCH  12  15
ATOM     15  C   UNL     1      -0.408  10.651  22.800  0.00  0.00    +0.000 C 
ATOM     16  C   UNL     1      -1.200  11.361  21.978  0.00  0.00    +0.000 C 
BRANCH  16  17
ATOM     17  C   UNL     1      -2.286  12.255  22.388  0.00  0.00    +0.000 A 
ATOM     18  C   UNL     1      -3.050  12.025  23.538  0.00  0.00    +0.000 A 
ATOM     19  C   UNL     1      -4.053  12.919  23.913  0.00  0.00    +0.000 A 
ATOM     20  C   UNL     1      -4.290  14.061  23.148  0.00  0.00    +0.000 A 
ATOM     21  C   UNL     1      -3.517  14.309  22.016  0.00  0.00    +0.000 A 
ATOM     22 CL   UNL     1      -3.799  15.726  21.084  0.00  0.00    +0.000 Cl
ATOM     23  C   UNL     1      -2.516  13.416  21.636  0.00  0.00    +0.000 A 
ENDBRANCH  16  17
ENDBRANCH  12  15
ENDBRANCH   6  11
BRANCH   3  24
ATOM     24  N   UNL     1       2.453   4.726  21.214  0.00  0.00    +0.000 N 
ATOM     25  H   UNL     1       3.143   4.165  21.703  0.00  0.00    +0.000 HD
ATOM     26  H   UNL     1       1.954   5.335  21.857  0.00  0.00    +0.000 HD
ENDBRANCH   3  24
BRANCH   1  27
ATOM     27  C   UNL     1       4.924   4.328  17.009  0.00  0.00    +0.000 C 
BRANCH  27  29
ATOM     28  C   UNL     1       5.666   4.851  14.670  0.00  0.00    +0.000 C 
ATOM     29  C   UNL     1       5.838   5.190  16.142  0.00  0.00    +0.000 C 
ENDBRANCH  27  29
ENDBRANCH   1  27
TORSDOF 6
ENDMDL
