MODEL 1
REMARK VINA RESULT:      -7.9      0.000      0.000
REMARK  Name = 
REMARK  6 active torsions:
REMARK  status: ('A' for Active; 'I' for Inactive)
REMARK    1  A    between atoms: C_1  and  O_2
REMARK    2  A    between atoms: O_2  and  C_3
REMARK    3  A    between atoms: C_8  and  O_9
REMARK    4  A    between atoms: O_9  and  C_10
REMARK    5  A    between atoms: C_10  and  C_11
REMARK    6  A    between atoms: N_13  and  C_14
REMARK                            x       y       z     vdW  Elec       q    Type
REMARK                         _______ _______ _______ _____ _____    ______ ____
ROOT
ATOM      1  C   UNL     1       2.022   3.325  21.001  0.00  0.00    +0.000 C 
ATOM      2  O   UNL     1       1.601   2.943  22.098  0.00  0.00    +0.000 OA
ATOM      3  N   UNL     1       3.096   2.678  20.439  0.00  0.00    +0.000 N 
ATOM      4  H   UNL     1       3.617   2.189  21.157  0.00  0.00    +0.000 HD
ENDROOT
BRANCH   3   5
ATOM      5  C   UNL     1       3.806   3.128  19.320  0.00  0.00    +0.000 A 
ATOM      6  C   UNL     1       3.182   3.097  18.073  0.00  0.00    +0.000 A 
ATOM      7  C   UNL     1       3.789   3.720  16.986  0.00  0.00    +0.000 A 
ATOM      8  C   UNL     1       4.993   4.397  17.166  0.00  0.00    +0.000 A 
ATOM      9  C   UNL     1       5.691   4.291  18.372  0.00  0.00    +0.000 A 
ATOM     10  C   UNL     1       5.083   3.677  19.464  0.00  0.00    +0.000 A 
ATOM     11  O   UNL     1       7.012   4.632  18.486  0.00  0.00    +0.000 OA
ATOM     12  C   UNL     1       7.270   6.033  18.448  0.00  0.00    +0.000 C 
ATOM     13  C   UNL     1       7.068   6.668  17.077  0.00  0.00    +0.000 C 
ATOM     14  C   UNL     1       5.628   6.531  16.619  0.00  0.00    +0.000 C 
ATOM     15  O   UNL     1       5.404   5.196  16.136  0.00  0.00    +0.000 OA
ENDBRANCH   3   5
BRANCH   1  16
ATOM     16  C   UNL     1       1.436   4.536  20.291  0.00  0.00    +0.000 C 
BRANCH  16  17
ATOM     17  O   UNL     1       2.184   5.668  20.710  0.00  0.00    +0.000 OA
BRANCH  17  23
ATOM     18  C   UNL     1       1.448   8.041  20.432  0.00  0.00    +0.000 A 
ATOM     19  C   UNL     1       1.430   9.146  19.569  0.00  0.00    +0.000 A 
ATOM     20  C   UNL     1       1.927   9.049  18.275  0.00  0.00    +0.000 A 
ATOM     21  C   UNL     1       2.478   7.844  17.835  0.00  0.00    +0.000 A 
ATOM     22  C   UNL     1       2.548   6.755  18.704  0.00  0.00    +0.000 A 
ATOM     23  C   UNL     1       2.038   6.845  20.013  0.00  0.00    +0.000 A 
BRANCH  18  25
ATOM     24  C   UNL     1       0.041   9.252  21.882  0.00  0.00    +0.000 C 
ATOM     25  O   UNL     1       0.949   8.166  21.705  0.00  0.00    +0.000 OA
ENDBRANCH  18  25
ENDBRANCH  17  23
ENDBRANCH  16  17
ENDBRANCH   1  16
TORSDOF 5
ENDMDL
MODEL 2
REMARK VINA RESULT:      -7.4      1.530      5.879
REMARK  Name = 
REMARK  6 active torsions:
REMARK  status: ('A' for Active; 'I' for Inactive)
REMARK    1  A    between atoms: C_1  and  O_2
REMARK    2  A    between atoms: O_2  and  C_3
REMARK    3  A    between atoms: C_8  and  O_9
REMARK    4  A    between atoms: O_9  and  C_10
REMARK    5  A    between atoms: C_10  and  C_11
REMARK    6  A    between atoms: N_13  and  C_14
REMARK                            x       y       z     vdW  Elec       q    Type
REMARK                         _______ _______ _______ _____ _____    ______ ____
ROOT
ATOM      1  C   UNL     1       3.334   3.305  19.124  0.00  0.00    +0.000 C 
ATOM      2  O   UNL     1       3.246   2.125  18.770  0.00  0.00    +0.000 OA
ATOM      3  N   UNL     1       2.302   4.165  18.835  0.00  0.00    +0.000 N 
ATOM      4  H   UNL     1       1.752   3.796  18.068  0.00  0.00    +0.000 HD
ENDROOT
BRANCH   3   5
ATOM      5  C   UNL     1       2.353   5.556  18.983  0.00  0.00    +0.000 A 
ATOM      6  C   UNL     1       2.831   6.325  17.922  0.00  0.00    +0.000 A 
ATOM      7  C   UNL     1       2.705   7.710  17.968  0.00  0.00    +0.000 A 
ATOM      8  C   UNL     1       2.071   8.307  19.054  0.00  0.00    +0.000 A 
ATOM      9  C   UNL     1       1.738   7.552  20.183  0.00  0.00    +0.000 A 
ATOM     10  C   UNL     1       1.854   6.165  20.136  0.00  0.00    +0.000 A 
ATOM     11  O   UNL     1       1.445   8.128  21.389  0.00  0.00    +0.000 OA
ATOM     12  C   UNL     1       0.182   8.784  21.443  0.00  0.00    +0.000 C 
ATOM     13  C   UNL     1       0.114  10.077  20.639  0.00  0.00    +0.000 C 
ATOM     14  C   UNL     1       0.346   9.813  19.163  0.00  0.00    +0.000 C 
ATOM     15  O   UNL     1       1.751   9.630  18.924  0.00  0.00    +0.000 OA
ENDBRANCH   3   5
BRANCH   1  16
ATOM     16  C   UNL     1       4.580   3.851  19.804  0.00  0.00    +0.000 C 
BRANCH  16  17
ATOM     17  O   UNL     1       5.675   3.595  18.936  0.00  0.00    +0.000 OA
BRANCH  17  23
ATOM     18  C   UNL     1       6.161   4.967  16.904  0.00  0.00    +0.000 A 
ATOM     19  C   UNL     1       6.789   6.124  16.420  0.00  0.00    +0.000 A 
ATOM     20  C   UNL     1       7.550   6.927  17.261  0.00  0.00    +0.000 A 
ATOM     21  C   UNL     1       7.668   6.597  18.611  0.00  0.00    +0.000 A 
ATOM     22  C   UNL     1       7.003   5.476  19.112  0.00  0.00    +0.000 A 
ATOM     23  C   UNL     1       6.239   4.654  18.263  0.00  0.00    +0.000 A 
BRANCH  18  25
ATOM     24  C   UNL     1       5.978   4.037  14.747  0.00  0.00    +0.000 C 
ATOM     25  O   UNL     1       5.417   4.192  16.049  0.00  0.00    +0.000 OA
ENDBRANCH  18  25
ENDBRANCH  17  23
ENDBRANCH  16  17
ENDBRANCH   1  16
TORSDOF 5
ENDMDL
MODEL 3
REMARK VINA RESULT:      -7.3      2.131      4.667
REMARK  Name = 
REMARK  6 active torsions:
REMARK  status: ('A' for Active; 'I' for Inactive)
REMARK    1  A    between atoms: C_1  and  O_2
REMARK    2  A    between atoms: O_2  and  C_3
REMARK    3  A    between atoms: C_8  and  O_9
REMARK    4  A    between atoms: O_9  and  C_10
REMARK    5  A    between atoms: C_10  and  C_11
REMARK    6  A    between atoms: N_13  and  C_14
REMARK                            x       y       z     vdW  Elec       q    Type
REMARK                         _______ _______ _______ _____ _____    ______ ____
ROOT
ATOM      1  C   UNL     1       4.905   6.389  16.173  0.00  0.00    +0.000 C 
ATOM      2  O   UNL     1       5.073   6.974  15.098  0.00  0.00    +0.000 OA
ATOM      3  N   UNL     1       4.965   5.016  16.200  0.00  0.00    +0.000 N 
ATOM      4  H   UNL     1       4.802   4.647  15.271  0.00  0.00    +0.000 HD
ENDROOT
BRANCH   3   5
ATOM      5  C   UNL     1       4.589   4.218  17.286  0.00  0.00    +0.000 A 
ATOM      6  C   UNL     1       5.512   4.004  18.311  0.00  0.00    +0.000 A 
ATOM      7  C   UNL     1       5.098   3.385  19.487  0.00  0.00    +0.000 A 
ATOM      8  C   UNL     1       3.763   3.022  19.640  0.00  0.00    +0.000 A 
ATOM      9  C   UNL     1       2.881   3.093  18.558  0.00  0.00    +0.000 A 
ATOM     10  C   UNL     1       3.289   3.719  17.383  0.00  0.00    +0.000 A 
ATOM     11  O   UNL     1       1.680   2.436  18.548  0.00  0.00    +0.000 OA
ATOM     12  C   UNL     1       0.689   2.997  19.404  0.00  0.00    +0.000 C 
ATOM     13  C   UNL     1       0.959   2.793  20.890  0.00  0.00    +0.000 C 
ATOM     14  C   UNL     1       2.252   3.468  21.306  0.00  0.00    +0.000 C 
ATOM     15  O   UNL     1       3.368   2.661  20.899  0.00  0.00    +0.000 OA
ENDBRANCH   3   5
BRANCH   1  16
ATOM     16  C   UNL     1       4.560   7.136  17.451  0.00  0.00    +0.000 C 
BRANCH  16  17
ATOM     17  O   UNL     1       3.213   7.569  17.331  0.00  0.00    +0.000 OA
BRANCH  17  23
ATOM     18  C   UNL     1       1.832   8.995  18.851  0.00  0.00    +0.000 A 
ATOM     19  C   UNL     1       1.131   9.040  20.065  0.00  0.00    +0.000 A 
ATOM     20  C   UNL     1       1.153   7.960  20.941  0.00  0.00    +0.000 A 
ATOM     21  C   UNL     1       1.855   6.805  20.596  0.00  0.00    +0.000 A 
ATOM     22  C   UNL     1       2.512   6.733  19.367  0.00  0.00    +0.000 A 
ATOM     23  C   UNL     1       2.501   7.826  18.480  0.00  0.00    +0.000 A 
BRANCH  18  25
ATOM     24  C   UNL     1       1.380  11.296  18.621  0.00  0.00    +0.000 C 
ATOM     25  O   UNL     1       1.794  10.077  18.007  0.00  0.00    +0.000 OA
ENDBRANCH  18  25
ENDBRANCH  17  23
ENDBRANCH  16  17
ENDBRANCH   1  16
TORSDOF 5
ENDMDL
MODEL 4
REMARK VINA RESULT:      -7.2      1.407      2.174
REMARK  Name = 
REMARK  6 active torsions:
REMARK  status: ('A' for Active; 'I' for Inactive)
REMARK    1  A    between atoms: C_1  and  O_2
REMARK    2  A    between atoms: O_2  and  C_3
REMARK    3  A    between atoms: C_8  and  O_9
REMARK    4  A    between atoms: O_9  and  C_10
REMARK    5  A    between atoms: C_10  and  C_11
REMARK    6  A    between atoms: N_13  and  C_14
REMARK                            x       y       z     vdW  Elec       q    Type
REMARK                         _______ _______ _______ _____ _____    ______ ____
ROOT
ATOM      1  C   UNL     1       3.030   3.447  20.289  0.00  0.00    +0.000 C 
ATOM      2  O   UNL     1       2.740   2.766  21.278  0.00  0.00    +0.000 OA
ATOM      3  N   UNL     1       4.261   3.275  19.702  0.00  0.00    +0.000 N 
ATOM      4  H   UNL     1       4.901   2.853  20.363  0.00  0.00    +0.000 HD
ENDROOT
BRANCH   3   5
ATOM      5  C   UNL     1       4.805   4.114  18.722  0.00  0.00    +0.000 A 
ATOM      6  C   UNL     1       5.687   5.119  19.115  0.00  0.00    +0.000 A 
ATOM      7  C   UNL     1       6.391   5.832  18.148  0.00  0.00    +0.000 A 
ATOM      8  C   UNL     1       6.232   5.506  16.803  0.00  0.00    +0.000 A 
ATOM      9  C   UNL     1       5.234   4.612  16.404  0.00  0.00    +0.000 A 
ATOM     10  C   UNL     1       4.535   3.891  17.370  0.00  0.00    +0.000 A 
ATOM     11  O   UNL     1       4.806   4.523  15.107  0.00  0.00    +0.000 OA
ATOM     12  C   UNL     1       5.731   3.904  14.218  0.00  0.00    +0.000 C 
ATOM     13  C   UNL     1       6.963   4.746  13.912  0.00  0.00    +0.000 C 
ATOM     14  C   UNL     1       7.765   5.016  15.171  0.00  0.00    +0.000 C 
ATOM     15  O   UNL     1       7.130   6.056  15.932  0.00  0.00    +0.000 OA
ENDBRANCH   3   5
BRANCH   1  16
ATOM     16  C   UNL     1       2.099   4.521  19.750  0.00  0.00    +0.000 C 
BRANCH  16  17
ATOM     17  O   UNL     1       2.403   5.724  20.441  0.00  0.00    +0.000 OA
BRANCH  17  23
ATOM     18  C   UNL     1       1.548   8.070  20.318  0.00  0.00    +0.000 A 
ATOM     19  C   UNL     1       1.428   9.209  19.510  0.00  0.00    +0.000 A 
ATOM     20  C   UNL     1       1.848   9.192  18.185  0.00  0.00    +0.000 A 
ATOM     21  C   UNL     1       2.424   8.035  17.658  0.00  0.00    +0.000 A 
ATOM     22  C   UNL     1       2.594   6.913  18.470  0.00  0.00    +0.000 A 
ATOM     23  C   UNL     1       2.162   6.922  19.810  0.00  0.00    +0.000 A 
BRANCH  18  25
ATOM     24  C   UNL     1       0.837   9.426  22.108  0.00  0.00    +0.000 C 
ATOM     25  O   UNL     1       1.123   8.115  21.623  0.00  0.00    +0.000 OA
ENDBRANCH  18  25
ENDBRANCH  17  23
ENDBRANCH  16  17
ENDBRANCH   1  16
TORSDOF 5
ENDMDL
MODEL 5
REMARK VINA RESULT:      -7.1      2.140      5.874
REMARK  Name = 
REMARK  6 active torsions:
REMARK  status: ('A' for Active; 'I' for Inactive)
REMARK    1  A    between atoms: C_1  and  O_2
REMARK    2  A    between atoms: O_2  and  C_3
REMARK    3  A    between atoms: C_8  and  O_9
REMARK    4  A    between atoms: O_9  and  C_10
REMARK    5  A    between atoms: C_10  and  C_11
REMARK    6  A    between atoms: N_13  and  C_14
REMARK                            x       y       z     vdW  Elec       q    Type
REMARK                         _______ _______ _______ _____ _____    ______ ____
ROOT
ATOM      1  C   UNL     1       6.070   4.924  16.749  0.00  0.00    +0.000 C 
ATOM      2  O   UNL     1       7.241   4.641  16.478  0.00  0.00    +0.000 OA
ATOM      3  N   UNL     1       5.821   5.904  17.680  0.00  0.00    +0.000 N 
ATOM      4  H   UNL     1       6.634   6.030  18.272  0.00  0.00    +0.000 HD
ENDROOT
BRANCH   3   5
ATOM      5  C   UNL     1       4.568   6.179  18.238  0.00  0.00    +0.000 A 
ATOM      6  C   UNL     1       4.208   5.541  19.425  0.00  0.00    +0.000 A 
ATOM      7  C   UNL     1       3.060   5.945  20.101  0.00  0.00    +0.000 A 
ATOM      8  C   UNL     1       2.306   7.005  19.603  0.00  0.00    +0.000 A 
ATOM      9  C   UNL     1       2.578   7.534  18.338  0.00  0.00    +0.000 A 
ATOM     10  C   UNL     1       3.731   7.139  17.664  0.00  0.00    +0.000 A 
ATOM     11  O   UNL     1       1.680   8.315  17.662  0.00  0.00    +0.000 OA
ATOM     12  C   UNL     1       1.520   9.629  18.189  0.00  0.00    +0.000 C 
ATOM     13  C   UNL     1       0.790   9.683  19.525  0.00  0.00    +0.000 C 
ATOM     14  C   UNL     1       1.558   8.931  20.596  0.00  0.00    +0.000 C 
ATOM     15  O   UNL     1       1.350   7.519  20.434  0.00  0.00    +0.000 OA
ENDBRANCH   3   5
BRANCH   1  16
ATOM     16  C   UNL     1       4.897   4.170  16.141  0.00  0.00    +0.000 C 
BRANCH  16  17
ATOM     17  O   UNL     1       4.698   3.005  16.927  0.00  0.00    +0.000 OA
BRANCH  17  23
ATOM     18  C   UNL     1       3.250   2.079  18.743  0.00  0.00    +0.000 A 
ATOM     19  C   UNL     1       1.982   2.128  19.341  0.00  0.00    +0.000 A 
ATOM     20  C   UNL     1       0.969   2.911  18.802  0.00  0.00    +0.000 A 
ATOM     21  C   UNL     1       1.222   3.684  17.667  0.00  0.00    +0.000 A 
ATOM     22  C   UNL     1       2.496   3.682  17.097  0.00  0.00    +0.000 A 
ATOM     23  C   UNL     1       3.524   2.883  17.633  0.00  0.00    +0.000 A 
BRANCH  18  25
ATOM     24  C   UNL     1       4.797   1.812  20.499  0.00  0.00    +0.000 C 
ATOM     25  O   UNL     1       4.231   1.294  19.297  0.00  0.00    +0.000 OA
ENDBRANCH  18  25
ENDBRANCH  17  23
ENDBRANCH  16  17
ENDBRANCH   1  16
TORSDOF 5
ENDMDL
MODEL 6
REMARK VINA RESULT:      -7.1      1.523      5.513
REMARK  Name = 
REMARK  6 active torsions:
REMARK  status: ('A' for Active; 'I' for Inactive)
REMARK    1  A    between atoms: C_1  and  O_2
REMARK    2  A    between atoms: O_2  and  C_3
REMARK    3  A    between atoms: C_8  and  O_9
REMARK    4  A    between atoms: O_9  and  C_10
REMARK    5  A    between atoms: C_10  and  C_11
REMARK    6  A    between atoms: N_13  and  C_14
REMARK                            x       y       z     vdW  Elec       q    Type
REMARK                         _______ _______ _______ _____ _____    ______ ____
ROOT
ATOM      1  C   UNL     1       2.806   3.101  19.552  0.00  0.00    +0.000 C 
ATOM      2  O   UNL     1       2.576   1.911  19.315  0.00  0.00    +0.000 OA
ATOM      3  N   UNL     1       1.818   4.028  19.323  0.00  0.00    +0.000 N 
ATOM      4  H   UNL     1       1.143   3.655  18.666  0.00  0.00    +0.000 HD
ENDROOT
BRANCH   3   5
ATOM      5  C   UNL     1       2.001   5.415  19.342  0.00  0.00    +0.000 A 
ATOM      6  C   UNL     1       2.452   6.048  18.184  0.00  0.00    +0.000 A 
ATOM      7  C   UNL     1       2.451   7.438  18.116  0.00  0.00    +0.000 A 
ATOM      8  C   UNL     1       1.965   8.178  19.191  0.00  0.00    +0.000 A 
ATOM      9  C   UNL     1       1.665   7.551  20.404  0.00  0.00    +0.000 A 
ATOM     10  C   UNL     1       1.656   6.160  20.472  0.00  0.00    +0.000 A 
ATOM     11  O   UNL     1       1.525   8.248  21.574  0.00  0.00    +0.000 OA
ATOM     12  C   UNL     1       0.332   9.021  21.666  0.00  0.00    +0.000 C 
ATOM     13  C   UNL     1       0.308  10.245  20.759  0.00  0.00    +0.000 C 
ATOM     14  C   UNL     1       0.391   9.842  19.298  0.00  0.00    +0.000 C 
ATOM     15  O   UNL     1       1.750   9.510  18.969  0.00  0.00    +0.000 OA
ENDBRANCH   3   5
BRANCH   1  16
ATOM     16  C   UNL     1       4.172   3.579  20.019  0.00  0.00    +0.000 C 
BRANCH  16  17
ATOM     17  O   UNL     1       5.109   3.210  19.018  0.00  0.00    +0.000 OA
BRANCH  17  23
ATOM     18  C   UNL     1       6.107   5.311  18.102  0.00  0.00    +0.000 A 
ATOM     19  C   UNL     1       6.314   6.078  16.947  0.00  0.00    +0.000 A 
ATOM     20  C   UNL     1       5.758   5.700  15.731  0.00  0.00    +0.000 A 
ATOM     21  C   UNL     1       5.006   4.526  15.650  0.00  0.00    +0.000 A 
ATOM     22  C   UNL     1       4.839   3.730  16.784  0.00  0.00    +0.000 A 
ATOM     23  C   UNL     1       5.393   4.113  18.020  0.00  0.00    +0.000 A 
BRANCH  18  25
ATOM     24  C   UNL     1       8.058   6.022  19.216  0.00  0.00    +0.000 C 
ATOM     25  O   UNL     1       6.668   5.711  19.291  0.00  0.00    +0.000 OA
ENDBRANCH  18  25
ENDBRANCH  17  23
ENDBRANCH  16  17
ENDBRANCH   1  16
TORSDOF 5
ENDMDL
MODEL 7
REMARK VINA RESULT:      -7.0      2.413      3.317
REMARK  Name = 
REMARK  6 active torsions:
REMARK  status: ('A' for Active; 'I' for Inactive)
REMARK    1  A    between atoms: C_1  and  O_2
REMARK    2  A    between atoms: O_2  and  C_3
REMARK    3  A    between atoms: C_8  and  O_9
REMARK    4  A    between atoms: O_9  and  C_10
REMARK    5  A    between atoms: C_10  and  C_11
REMARK    6  A    between atoms: N_13  and  C_14
REMARK                            x       y       z     vdW  Elec       q    Type
REMARK                         _______ _______ _______ _____ _____    ______ ____
ROOT
ATOM      1  C   UNL     1       1.943   7.621  20.057  0.00  0.00    +0.000 C 
ATOM      2  O   UNL     1       1.473   8.313  20.966  0.00  0.00    +0.000 OA
ATOM      3  N   UNL     1       2.196   6.291  20.296  0.00  0.00    +0.000 N 
ATOM      4  H   UNL     1       2.282   6.132  21.293  0.00  0.00    +0.000 HD
ENDROOT
BRANCH   3   5
ATOM      5  C   UNL     1       2.915   5.446  19.444  0.00  0.00    +0.000 A 
ATOM      6  C   UNL     1       2.232   4.791  18.419  0.00  0.00    +0.000 A 
ATOM      7  C   UNL     1       2.952   4.108  17.443  0.00  0.00    +0.000 A 
ATOM      8  C   UNL     1       4.345   4.119  17.481  0.00  0.00    +0.000 A 
ATOM      9  C   UNL     1       5.018   4.639  18.591  0.00  0.00    +0.000 A 
ATOM     10  C   UNL     1       4.301   5.330  19.564  0.00  0.00    +0.000 A 
ATOM     11  O   UNL     1       6.336   4.366  18.841  0.00  0.00    +0.000 OA
ATOM     12  C   UNL     1       7.254   5.016  17.967  0.00  0.00    +0.000 C 
ATOM     13  C   UNL     1       7.256   4.470  16.544  0.00  0.00    +0.000 C 
ATOM     14  C   UNL     1       5.901   4.659  15.887  0.00  0.00    +0.000 C 
ATOM     15  O   UNL     1       4.990   3.657  16.368  0.00  0.00    +0.000 OA
ENDBRANCH   3   5
BRANCH   1  16
ATOM     16  C   UNL     1       2.319   8.211  18.707  0.00  0.00    +0.000 C 
BRANCH  16  17
ATOM     17  O   UNL     1       1.149   8.813  18.174  0.00  0.00    +0.000 OA
BRANCH  17  23
ATOM     18  C   UNL     1      -0.207  10.864  18.628  0.00  0.00    +0.000 A 
ATOM     19  C   UNL     1      -0.166  12.255  18.801  0.00  0.00    +0.000 A 
ATOM     20  C   UNL     1       1.018  12.961  18.625  0.00  0.00    +0.000 A 
ATOM     21  C   UNL     1       2.190  12.276  18.301  0.00  0.00    +0.000 A 
ATOM     22  C   UNL     1       2.169  10.886  18.179  0.00  0.00    +0.000 A 
ATOM     23  C   UNL     1       0.970  10.166  18.347  0.00  0.00    +0.000 A 
BRANCH  18  25
ATOM     24  C   UNL     1      -2.163  10.023  17.620  0.00  0.00    +0.000 C 
ATOM     25  O   UNL     1      -1.391  10.193  18.807  0.00  0.00    +0.000 OA
ENDBRANCH  18  25
ENDBRANCH  17  23
ENDBRANCH  16  17
ENDBRANCH   1  16
TORSDOF 5
ENDMDL
MODEL 8
REMARK VINA RESULT:      -7.0      1.722      6.197
REMARK  Name = 
REMARK  6 active torsions:
REMARK  status: ('A' for Active; 'I' for Inactive)
REMARK    1  A    between atoms: C_1  and  O_2
REMARK    2  A    between atoms: O_2  and  C_3
REMARK    3  A    between atoms: C_8  and  O_9
REMARK    4  A    between atoms: O_9  and  C_10
REMARK    5  A    between atoms: C_10  and  C_11
REMARK    6  A    between atoms: N_13  and  C_14
REMARK                            x       y       z     vdW  Elec       q    Type
REMARK                         _______ _______ _______ _____ _____    ______ ____
ROOT
ATOM      1  C   UNL     1       3.644   4.094  19.326  0.00  0.00    +0.000 C 
ATOM      2  O   UNL     1       3.634   2.868  19.183  0.00  0.00    +0.000 OA
ATOM      3  N   UNL     1       2.447   4.760  19.438  0.00  0.00    +0.000 N 
ATOM      4  H   UNL     1       1.702   4.196  19.046  0.00  0.00    +0.000 HD
ENDROOT
BRANCH   3   5
ATOM      5  C   UNL     1       2.296   6.151  19.390  0.00  0.00    +0.000 A 
ATOM      6  C   UNL     1       2.462   6.801  18.167  0.00  0.00    +0.000 A 
ATOM      7  C   UNL     1       2.124   8.147  18.055  0.00  0.00    +0.000 A 
ATOM      8  C   UNL     1       1.590   8.816  19.153  0.00  0.00    +0.000 A 
ATOM      9  C   UNL     1       1.574   8.209  20.413  0.00  0.00    +0.000 A 
ATOM     10  C   UNL     1       1.903   6.861  20.527  0.00  0.00    +0.000 A 
ATOM     11  O   UNL     1       1.394   8.922  21.567  0.00  0.00    +0.000 OA
ATOM     12  C   UNL     1       0.068   9.401  21.769  0.00  0.00    +0.000 C 
ATOM     13  C   UNL     1      -0.340  10.530  20.831  0.00  0.00    +0.000 C 
ATOM     14  C   UNL     1      -0.314  10.072  19.384  0.00  0.00    +0.000 C 
ATOM     15  O   UNL     1       1.043  10.046  18.913  0.00  0.00    +0.000 OA
ENDBRANCH   3   5
BRANCH   1  16
ATOM     16  C   UNL     1       4.935   4.897  19.307  0.00  0.00    +0.000 C 
BRANCH  16  17
ATOM     17  O   UNL     1       5.894   4.129  18.596  0.00  0.00    +0.000 OA
BRANCH  17  23
ATOM     18  C   UNL     1       7.067   5.454  16.830  0.00  0.00    +0.000 A 
ATOM     19  C   UNL     1       7.241   5.632  15.450  0.00  0.00    +0.000 A 
ATOM     20  C   UNL     1       6.491   4.900  14.537  0.00  0.00    +0.000 A 
ATOM     21  C   UNL     1       5.573   3.955  14.997  0.00  0.00    +0.000 A 
ATOM     22  C   UNL     1       5.432   3.735  16.368  0.00  0.00    +0.000 A 
ATOM     23  C   UNL     1       6.182   4.479  17.297  0.00  0.00    +0.000 A 
BRANCH  18  25
ATOM     24  C   UNL     1       7.634   7.603  17.612  0.00  0.00    +0.000 C 
ATOM     25  O   UNL     1       7.821   6.192  17.709  0.00  0.00    +0.000 OA
ENDBRANCH  18  25
ENDBRANCH  17  23
ENDBRANCH  16  17
ENDBRANCH   1  16
TORSDOF 5
ENDMDL
MODEL 9
REMARK VINA RESULT:      -6.9      2.496      5.101
REMARK  Name = 
REMARK  6 active torsions:
REMARK  status: ('A' for Active; 'I' for Inactive)
REMARK    1  A    between atoms: C_1  and  O_2
REMARK    2  A    between atoms: O_2  and  C_3
REMARK    3  A    between atoms: C_8  and  O_9
REMARK    4  A    between atoms: O_9  and  C_10
REMARK    5  A    between atoms: C_10  and  C_11
REMARK    6  A    between atoms: N_13  and  C_14
REMARK                            x       y       z     vdW  Elec       q    Type
REMARK                         _______ _______ _______ _____ _____    ______ ____
ROOT
ATOM      1  C   UNL     1       2.395   8.720  18.048  0.00  0.00    +0.000 C 
ATOM      2  O   UNL     1       2.182   9.748  17.397  0.00  0.00    +0.000 OA
ATOM      3  N   UNL     1       3.166   7.728  17.491  0.00  0.00    +0.000 N 
ATOM      4  H   UNL     1       3.178   7.827  16.483  0.00  0.00    +0.000 HD
ENDROOT
BRANCH   3   5
ATOM      5  C   UNL     1       3.314   6.438  18.014  0.00  0.00    +0.000 A 
ATOM      6  C   UNL     1       4.553   6.064  18.532  0.00  0.00    +0.000 A 
ATOM      7  C   UNL     1       4.670   4.867  19.234  0.00  0.00    +0.000 A 
ATOM      8  C   UNL     1       3.540   4.079  19.442  0.00  0.00    +0.000 A 
ATOM      9  C   UNL     1       2.340   4.376  18.789  0.00  0.00    +0.000 A 
ATOM     10  C   UNL     1       2.218   5.576  18.094  0.00  0.00    +0.000 A 
ATOM     11  O   UNL     1       1.324   3.466  18.675  0.00  0.00    +0.000 OA
ATOM     12  C   UNL     1       0.616   3.212  19.885  0.00  0.00    +0.000 C 
ATOM     13  C   UNL     1       1.408   2.422  20.920  0.00  0.00    +0.000 C 
ATOM     14  C   UNL     1       2.647   3.184  21.354  0.00  0.00    +0.000 C 
ATOM     15  O   UNL     1       3.664   3.061  20.346  0.00  0.00    +0.000 OA
ENDBRANCH   3   5
BRANCH   1  16
ATOM     16  C   UNL     1       1.767   8.487  19.413  0.00  0.00    +0.000 C 
BRANCH  16  17
ATOM     17  O   UNL     1       0.521   9.167  19.421  0.00  0.00    +0.000 OA
BRANCH  17  23
ATOM     18  C   UNL     1      -0.077  11.111  20.874  0.00  0.00    +0.000 A 
ATOM     19  C   UNL     1      -0.547  11.504  22.136  0.00  0.00    +0.000 A 
ATOM     20  C   UNL     1      -0.771  10.566  23.136  0.00  0.00    +0.000 A 
ATOM     21  C   UNL     1      -0.552   9.212  22.876  0.00  0.00    +0.000 A 
ATOM     22  C   UNL     1      -0.134   8.808  21.607  0.00  0.00    +0.000 A 
ATOM     23  C   UNL     1       0.102   9.755  20.592  0.00  0.00    +0.000 A 
BRANCH  18  25
ATOM     24  C   UNL     1       1.475  12.549  19.836  0.00  0.00    +0.000 C 
ATOM     25  O   UNL     1       0.136  12.061  19.905  0.00  0.00    +0.000 OA
ENDBRANCH  18  25
ENDBRANCH  17  23
ENDBRANCH  16  17
ENDBRANCH   1  16
TORSDOF 5
ENDMDL
