MODEL 1
REMARK VINA RESULT:      -7.6      0.000      0.000
REMARK  Name = 
REMARK  10 active torsions:
REMARK  status: ('A' for Active; 'I' for Inactive)
REMARK    1  A    between atoms: C_1  and  C_2
REMARK    2  A    between atoms: C_2  and  C_3
REMARK    3  A    between atoms: C_3  and  C_4
REMARK    4  A    between atoms: C_4  and  O_5
REMARK    5  A    between atoms: O_5  and  C_6
REMARK    6  A    between atoms: N_8  and  C_9
REMARK    7  A    between atoms: C_13  and  C_14
REMARK    8  A    between atoms: C_22  and  N_23
REMARK    9  A    between atoms: N_23  and  C_24
REMARK   10  A    between atoms: N_23  and  C_25
REMARK                            x       y       z     vdW  Elec       q    Type
REMARK                         _______ _______ _______ _____ _____    ______ ____
ROOT
ATOM      1  C   UNL     1       3.038   5.149  18.294  0.00  0.00    +0.000 A 
ATOM      2  C   UNL     1       2.809   6.550  18.267  0.00  0.00    +0.000 A 
ATOM      3  C   UNL     1       2.211   7.174  19.364  0.00  0.00    +0.000 A 
ATOM      4  N   UNL     1       1.851   8.485  19.563  0.00  0.00    +0.000 NA
ATOM      5  C   UNL     1       1.316   8.537  20.765  0.00  0.00    +0.000 A 
ATOM      6  N   UNL     1       1.319   7.287  21.342  0.00  0.00    +0.000 N 
ATOM      7  C   UNL     1       1.881   6.400  20.459  0.00  0.00    +0.000 A 
ATOM      8  C   UNL     1       2.133   5.022  20.529  0.00  0.00    +0.000 A 
ATOM      9  C   UNL     1       2.731   4.346  19.434  0.00  0.00    +0.000 A 
ATOM     10  H   UNL     1       0.959   7.060  22.256  0.00  0.00    +0.000 HD
ENDROOT
BRANCH   5  11
ATOM     11  C   UNL     1       0.773   9.731  21.477  0.00  0.00    +0.000 C 
ATOM     12  C   UNL     1      -0.307  10.462  20.686  0.00  0.00    +0.000 C 
ATOM     13  C   UNL     1      -0.972  11.352  21.731  0.00  0.00    +0.000 C 
ATOM     14  C   UNL     1      -0.840  10.604  23.058  0.00  0.00    +0.000 C 
ATOM     15  C   UNL     1       0.056   9.396  22.783  0.00  0.00    +0.000 C 
ENDBRANCH   5  11
BRANCH   1  18
ATOM     16  C   UNL     1       4.800   4.557  16.694  0.00  0.00    +0.000 C 
ATOM     17  O   UNL     1       5.744   4.907  17.398  0.00  0.00    +0.000 OA
ATOM     18  N   UNL     1       3.478   4.562  17.084  0.00  0.00    +0.000 N 
ATOM     19  H   UNL     1       2.837   3.986  16.563  0.00  0.00    +0.000 HD
BRANCH  16  20
ATOM     20  O   UNL     1       4.927   4.111  15.421  0.00  0.00    +0.000 OA
BRANCH  20  21
ATOM     21  C   UNL     1       6.295   3.905  15.013  0.00  0.00    +0.000 C 
BRANCH  21  22
ATOM     22  C   UNL     1       6.568   4.439  13.610  0.00  0.00    +0.000 C 
BRANCH  22  24
ATOM     23  C   UNL     1       4.864   3.464  11.993  0.00  0.00    +0.000 C 
ATOM     24  C   UNL     1       6.263   3.353  12.573  0.00  0.00    +0.000 C 
ENDBRANCH  22  24
ENDBRANCH  21  22
ENDBRANCH  20  21
ENDBRANCH  16  20
ENDBRANCH   1  18
BRANCH   9  25
ATOM     25  N   UNL     1       3.044   2.987  19.539  0.00  0.00    +0.000 N 
ATOM     26  C   UNL     1       4.379   2.492  19.881  0.00  0.00    +0.000 C 
ATOM     27  C   UNL     1       2.113   1.932  19.133  0.00  0.00    +0.000 C 
ENDBRANCH   9  25
TORSDOF 7
ENDMDL
MODEL 2
REMARK VINA RESULT:      -7.5      1.030      1.271
REMARK  Name = 
REMARK  10 active torsions:
REMARK  status: ('A' for Active; 'I' for Inactive)
REMARK    1  A    between atoms: C_1  and  C_2
REMARK    2  A    between atoms: C_2  and  C_3
REMARK    3  A    between atoms: C_3  and  C_4
REMARK    4  A    between atoms: C_4  and  O_5
REMARK    5  A    between atoms: O_5  and  C_6
REMARK    6  A    between atoms: N_8  and  C_9
REMARK    7  A    between atoms: C_13  and  C_14
REMARK    8  A    between atoms: C_22  and  N_23
REMARK    9  A    between atoms: N_23  and  C_24
REMARK   10  A    between atoms: N_23  and  C_25
REMARK                            x       y       z     vdW  Elec       q    Type
REMARK                         _______ _______ _______ _____ _____    ______ ____
ROOT
ATOM      1  C   UNL     1       3.879   4.511  17.884  0.00  0.00    +0.000 A 
ATOM      2  C   UNL     1       3.566   5.888  17.739  0.00  0.00    +0.000 A 
ATOM      3  C   UNL     1       2.886   6.554  18.761  0.00  0.00    +0.000 A 
ATOM      4  N   UNL     1       2.439   7.851  18.843  0.00  0.00    +0.000 NA
ATOM      5  C   UNL     1       1.852   7.959  20.017  0.00  0.00    +0.000 A 
ATOM      6  N   UNL     1       1.907   6.760  20.690  0.00  0.00    +0.000 N 
ATOM      7  C   UNL     1       2.558   5.846  19.900  0.00  0.00    +0.000 A 
ATOM      8  C   UNL     1       2.890   4.496  20.088  0.00  0.00    +0.000 A 
ATOM      9  C   UNL     1       3.574   3.779  19.072  0.00  0.00    +0.000 A 
ATOM     10  H   UNL     1       1.524   6.580  21.605  0.00  0.00    +0.000 HD
ENDROOT
BRANCH   5  11
ATOM     11  C   UNL     1       1.208   9.167  20.613  0.00  0.00    +0.000 C 
ATOM     12  C   UNL     1       0.062   9.715  19.769  0.00  0.00    +0.000 C 
ATOM     13  C   UNL     1      -0.674  10.644  20.728  0.00  0.00    +0.000 C 
ATOM     14  C   UNL     1      -0.467  10.050  22.122  0.00  0.00    +0.000 C 
ATOM     15  C   UNL     1       0.531   8.904  21.956  0.00  0.00    +0.000 C 
ENDBRANCH   5  11
BRANCH   1  18
ATOM     16  C   UNL     1       5.735   3.932  16.390  0.00  0.00    +0.000 C 
ATOM     17  O   UNL     1       6.624   4.413  17.086  0.00  0.00    +0.000 OA
ATOM     18  N   UNL     1       4.404   3.863  16.741  0.00  0.00    +0.000 N 
ATOM     19  H   UNL     1       3.828   3.197  16.254  0.00  0.00    +0.000 HD
BRANCH  16  20
ATOM     20  O   UNL     1       5.940   3.394  15.162  0.00  0.00    +0.000 OA
BRANCH  20  21
ATOM     21  C   UNL     1       5.656   4.299  14.077  0.00  0.00    +0.000 C 
BRANCH  21  22
ATOM     22  C   UNL     1       6.461   3.970  12.822  0.00  0.00    +0.000 C 
BRANCH  22  24
ATOM     23  C   UNL     1       4.339   3.318  11.580  0.00  0.00    +0.000 C 
ATOM     24  C   UNL     1       5.733   2.895  12.008  0.00  0.00    +0.000 C 
ENDBRANCH  22  24
ENDBRANCH  21  22
ENDBRANCH  20  21
ENDBRANCH  16  20
ENDBRANCH   1  18
BRANCH   9  25
ATOM     25  N   UNL     1       3.965   2.455  19.295  0.00  0.00    +0.000 N 
ATOM     26  C   UNL     1       3.510   1.331  18.472  0.00  0.00    +0.000 C 
ATOM     27  C   UNL     1       4.714   2.045  20.483  0.00  0.00    +0.000 C 
ENDBRANCH   9  25
TORSDOF 7
ENDMDL
MODEL 3
REMARK VINA RESULT:      -7.5      1.345      1.621
REMARK  Name = 
REMARK  10 active torsions:
REMARK  status: ('A' for Active; 'I' for Inactive)
REMARK    1  A    between atoms: C_1  and  C_2
REMARK    2  A    between atoms: C_2  and  C_3
REMARK    3  A    between atoms: C_3  and  C_4
REMARK    4  A    between atoms: C_4  and  O_5
REMARK    5  A    between atoms: O_5  and  C_6
REMARK    6  A    between atoms: N_8  and  C_9
REMARK    7  A    between atoms: C_13  and  C_14
REMARK    8  A    between atoms: C_22  and  N_23
REMARK    9  A    between atoms: N_23  and  C_24
REMARK   10  A    between atoms: N_23  and  C_25
REMARK                            x       y       z     vdW  Elec       q    Type
REMARK                         _______ _______ _______ _____ _____    ______ ____
ROOT
ATOM      1  C   UNL     1       3.809   6.330  17.888  0.00  0.00    +0.000 A 
ATOM      2  C   UNL     1       3.046   7.527  17.866  0.00  0.00    +0.000 A 
ATOM      3  C   UNL     1       2.243   7.856  18.960  0.00  0.00    +0.000 A 
ATOM      4  N   UNL     1       1.393   8.917  19.162  0.00  0.00    +0.000 NA
ATOM      5  C   UNL     1       0.874   8.743  20.359  0.00  0.00    +0.000 A 
ATOM      6  N   UNL     1       1.365   7.592  20.930  0.00  0.00    +0.000 N 
ATOM      7  C   UNL     1       2.237   7.006  20.048  0.00  0.00    +0.000 A 
ATOM      8  C   UNL     1       3.012   5.838  20.114  0.00  0.00    +0.000 A 
ATOM      9  C   UNL     1       3.836   5.462  19.022  0.00  0.00    +0.000 A 
ATOM     10  H   UNL     1       1.118   7.234  21.840  0.00  0.00    +0.000 HD
ENDROOT
BRANCH   5  11
ATOM     11  C   UNL     1      -0.101   9.621  21.072  0.00  0.00    +0.000 C 
ATOM     12  C   UNL     1      -0.249   9.279  22.551  0.00  0.00    +0.000 C 
ATOM     13  C   UNL     1      -0.942  10.507  23.133  0.00  0.00    +0.000 C 
ATOM     14  C   UNL     1      -0.483  11.687  22.276  0.00  0.00    +0.000 C 
ATOM     15  C   UNL     1       0.311  11.091  21.113  0.00  0.00    +0.000 C 
ENDBRANCH   5  11
BRANCH   1  18
ATOM     16  C   UNL     1       5.662   6.509  16.293  0.00  0.00    +0.000 C 
ATOM     17  O   UNL     1       6.380   7.213  16.998  0.00  0.00    +0.000 OA
ATOM     18  N   UNL     1       4.453   5.974  16.680  0.00  0.00    +0.000 N 
ATOM     19  H   UNL     1       4.104   5.187  16.158  0.00  0.00    +0.000 HD
BRANCH  16  20
ATOM     20  O   UNL     1       5.964   6.154  15.020  0.00  0.00    +0.000 OA
BRANCH  20  21
ATOM     21  C   UNL     1       6.757   4.954  14.925  0.00  0.00    +0.000 C 
BRANCH  21  22
ATOM     22  C   UNL     1       6.009   3.817  14.234  0.00  0.00    +0.000 C 
BRANCH  22  24
ATOM     23  C   UNL     1       5.472   2.885  11.929  0.00  0.00    +0.000 C 
ATOM     24  C   UNL     1       6.391   3.773  12.750  0.00  0.00    +0.000 C 
ENDBRANCH  22  24
ENDBRANCH  21  22
ENDBRANCH  20  21
ENDBRANCH  16  20
ENDBRANCH   1  18
BRANCH   9  25
ATOM     25  N   UNL     1       4.659   4.336  19.123  0.00  0.00    +0.000 N 
ATOM     26  C   UNL     1       6.121   4.406  19.149  0.00  0.00    +0.000 C 
ATOM     27  C   UNL     1       4.139   2.971  19.024  0.00  0.00    +0.000 C 
ENDBRANCH   9  25
TORSDOF 7
ENDMDL
MODEL 4
REMARK VINA RESULT:      -7.2      0.973      1.265
REMARK  Name = 
REMARK  10 active torsions:
REMARK  status: ('A' for Active; 'I' for Inactive)
REMARK    1  A    between atoms: C_1  and  C_2
REMARK    2  A    between atoms: C_2  and  C_3
REMARK    3  A    between atoms: C_3  and  C_4
REMARK    4  A    between atoms: C_4  and  O_5
REMARK    5  A    between atoms: O_5  and  C_6
REMARK    6  A    between atoms: N_8  and  C_9
REMARK    7  A    between atoms: C_13  and  C_14
REMARK    8  A    between atoms: C_22  and  N_23
REMARK    9  A    between atoms: N_23  and  C_24
REMARK   10  A    between atoms: N_23  and  C_25
REMARK                            x       y       z     vdW  Elec       q    Type
REMARK                         _______ _______ _______ _____ _____    ______ ____
ROOT
ATOM      1  C   UNL     1       3.826   5.027  18.618  0.00  0.00    +0.000 A 
ATOM      2  C   UNL     1       3.493   6.407  18.650  0.00  0.00    +0.000 A 
ATOM      3  C   UNL     1       2.480   6.855  19.501  0.00  0.00    +0.000 A 
ATOM      4  N   UNL     1       1.953   8.111  19.683  0.00  0.00    +0.000 NA
ATOM      5  C   UNL     1       1.012   7.981  20.596  0.00  0.00    +0.000 A 
ATOM      6  N   UNL     1       0.920   6.669  21.001  0.00  0.00    +0.000 N 
ATOM      7  C   UNL     1       1.845   5.932  20.307  0.00  0.00    +0.000 A 
ATOM      8  C   UNL     1       2.180   4.569  20.326  0.00  0.00    +0.000 A 
ATOM      9  C   UNL     1       3.198   4.070  19.472  0.00  0.00    +0.000 A 
ATOM     10  H   UNL     1       0.273   6.308  21.685  0.00  0.00    +0.000 HD
ENDROOT
BRANCH   5  11
ATOM     11  C   UNL     1       0.138   9.046  21.170  0.00  0.00    +0.000 C 
ATOM     12  C   UNL     1       0.004   8.960  22.687  0.00  0.00    +0.000 C 
ATOM     13  C   UNL     1      -0.563  10.322  23.072  0.00  0.00    +0.000 C 
ATOM     14  C   UNL     1      -0.028  11.304  22.029  0.00  0.00    +0.000 C 
ATOM     15  C   UNL     1       0.678  10.460  20.967  0.00  0.00    +0.000 C 
ENDBRANCH   5  11
BRANCH   1  18
ATOM     16  C   UNL     1       6.092   4.553  17.811  0.00  0.00    +0.000 C 
ATOM     17  O   UNL     1       6.650   4.672  18.898  0.00  0.00    +0.000 OA
ATOM     18  N   UNL     1       4.731   4.623  17.608  0.00  0.00    +0.000 N 
ATOM     19  H   UNL     1       4.364   4.218  16.763  0.00  0.00    +0.000 HD
BRANCH  16  20
ATOM     20  O   UNL     1       6.744   4.330  16.643  0.00  0.00    +0.000 OA
BRANCH  20  21
ATOM     21  C   UNL     1       6.009   4.754  15.478  0.00  0.00    +0.000 C 
BRANCH  21  22
ATOM     22  C   UNL     1       6.595   4.191  14.186  0.00  0.00    +0.000 C 
BRANCH  22  24
ATOM     23  C   UNL     1       5.909   3.001  12.045  0.00  0.00    +0.000 C 
ATOM     24  C   UNL     1       5.467   3.892  13.193  0.00  0.00    +0.000 C 
ENDBRANCH  22  24
ENDBRANCH  21  22
ENDBRANCH  20  21
ENDBRANCH  16  20
ENDBRANCH   1  18
BRANCH   9  25
ATOM     25  N   UNL     1       3.576   2.726  19.547  0.00  0.00    +0.000 N 
ATOM     26  C   UNL     1       4.578   2.222  20.488  0.00  0.00    +0.000 C 
ATOM     27  C   UNL     1       3.140   1.731  18.566  0.00  0.00    +0.000 C 
ENDBRANCH   9  25
TORSDOF 7
ENDMDL
MODEL 5
REMARK VINA RESULT:      -7.1      2.071      8.456
REMARK  Name = 
REMARK  10 active torsions:
REMARK  status: ('A' for Active; 'I' for Inactive)
REMARK    1  A    between atoms: C_1  and  C_2
REMARK    2  A    between atoms: C_2  and  C_3
REMARK    3  A    between atoms: C_3  and  C_4
REMARK    4  A    between atoms: C_4  and  O_5
REMARK    5  A    between atoms: O_5  and  C_6
REMARK    6  A    between atoms: N_8  and  C_9
REMARK    7  A    between atoms: C_13  and  C_14
REMARK    8  A    between atoms: C_22  and  N_23
REMARK    9  A    between atoms: N_23  and  C_24
REMARK   10  A    between atoms: N_23  and  C_25
REMARK                            x       y       z     vdW  Elec       q    Type
REMARK                         _______ _______ _______ _____ _____    ______ ____
ROOT
ATOM      1  C   UNL     1       3.001   5.412  19.096  0.00  0.00    +0.000 A 
ATOM      2  C   UNL     1       3.717   5.974  18.006  0.00  0.00    +0.000 A 
ATOM      3  C   UNL     1       4.431   5.141  17.143  0.00  0.00    +0.000 A 
ATOM      4  N   UNL     1       5.223   5.438  16.060  0.00  0.00    +0.000 NA
ATOM      5  C   UNL     1       5.667   4.284  15.606  0.00  0.00    +0.000 A 
ATOM      6  N   UNL     1       5.182   3.252  16.376  0.00  0.00    +0.000 N 
ATOM      7  C   UNL     1       4.396   3.779  17.368  0.00  0.00    +0.000 A 
ATOM      8  C   UNL     1       3.664   3.192  18.412  0.00  0.00    +0.000 A 
ATOM      9  C   UNL     1       2.931   4.003  19.317  0.00  0.00    +0.000 A 
ATOM     10  H   UNL     1       5.381   2.272  16.240  0.00  0.00    +0.000 HD
ENDROOT
BRANCH   5  11
ATOM     11  C   UNL     1       6.556   4.041  14.433  0.00  0.00    +0.000 C 
ATOM     12  C   UNL     1       5.790   3.702  13.158  0.00  0.00    +0.000 C 
ATOM     13  C   UNL     1       6.827   3.897  12.057  0.00  0.00    +0.000 C 
ATOM     14  C   UNL     1       7.770   4.989  12.564  0.00  0.00    +0.000 C 
ATOM     15  C   UNL     1       7.368   5.265  14.013  0.00  0.00    +0.000 C 
ENDBRANCH   5  11
BRANCH   1  18
ATOM     16  C   UNL     1       2.072   7.604  19.681  0.00  0.00    +0.000 C 
ATOM     17  O   UNL     1       2.010   8.036  18.533  0.00  0.00    +0.000 OA
ATOM     18  N   UNL     1       2.455   6.326  20.027  0.00  0.00    +0.000 N 
ATOM     19  H   UNL     1       2.183   5.989  20.935  0.00  0.00    +0.000 HD
BRANCH  16  20
ATOM     20  O   UNL     1       1.766   8.332  20.783  0.00  0.00    +0.000 OA
BRANCH  20  21
ATOM     21  C   UNL     1       0.975   9.505  20.501  0.00  0.00    +0.000 C 
BRANCH  21  22
ATOM     22  C   UNL     1      -0.364   9.491  21.234  0.00  0.00    +0.000 C 
BRANCH  22  24
ATOM     23  C   UNL     1      -1.294  10.865  23.162  0.00  0.00    +0.000 C 
ATOM     24  C   UNL     1      -0.169   9.966  22.677  0.00  0.00    +0.000 C 
ENDBRANCH  22  24
ENDBRANCH  21  22
ENDBRANCH  20  21
ENDBRANCH  16  20
ENDBRANCH   1  18
BRANCH   9  25
ATOM     25  N   UNL     1       2.148   3.407  20.311  0.00  0.00    +0.000 N 
ATOM     26  C   UNL     1       2.705   2.802  21.522  0.00  0.00    +0.000 C 
ATOM     27  C   UNL     1       0.713   3.167  20.142  0.00  0.00    +0.000 C 
ENDBRANCH   9  25
TORSDOF 7
ENDMDL
MODEL 6
REMARK VINA RESULT:      -7.0      1.712      2.357
REMARK  Name = 
REMARK  10 active torsions:
REMARK  status: ('A' for Active; 'I' for Inactive)
REMARK    1  A    between atoms: C_1  and  C_2
REMARK    2  A    between atoms: C_2  and  C_3
REMARK    3  A    between atoms: C_3  and  C_4
REMARK    4  A    between atoms: C_4  and  O_5
REMARK    5  A    between atoms: O_5  and  C_6
REMARK    6  A    between atoms: N_8  and  C_9
REMARK    7  A    between atoms: C_13  and  C_14
REMARK    8  A    between atoms: C_22  and  N_23
REMARK    9  A    between atoms: N_23  and  C_24
REMARK   10  A    between atoms: N_23  and  C_25
REMARK                            x       y       z     vdW  Elec       q    Type
REMARK                         _______ _______ _______ _____ _____    ______ ____
ROOT
ATOM      1  C   UNL     1       4.373   5.480  17.132  0.00  0.00    +0.000 A 
ATOM      2  C   UNL     1       4.198   6.867  16.884  0.00  0.00    +0.000 A 
ATOM      3  C   UNL     1       3.239   7.583  17.603  0.00  0.00    +0.000 A 
ATOM      4  N   UNL     1       2.855   8.900  17.521  0.00  0.00    +0.000 NA
ATOM      5  C   UNL     1       1.902   9.057  18.417  0.00  0.00    +0.000 A 
ATOM      6  N   UNL     1       1.662   7.870  19.070  0.00  0.00    +0.000 N 
ATOM      7  C   UNL     1       2.501   6.913  18.559  0.00  0.00    +0.000 A 
ATOM      8  C   UNL     1       2.681   5.553  18.854  0.00  0.00    +0.000 A 
ATOM      9  C   UNL     1       3.639   4.786  18.142  0.00  0.00    +0.000 A 
ATOM     10  H   UNL     1       0.976   7.726  19.795  0.00  0.00    +0.000 HD
ENDROOT
BRANCH   5  11
ATOM     11  C   UNL     1       1.152  10.304  18.748  0.00  0.00    +0.000 C 
ATOM     12  C   UNL     1       0.820  10.431  20.231  0.00  0.00    +0.000 C 
ATOM     13  C   UNL     1       0.443  11.900  20.387  0.00  0.00    +0.000 C 
ATOM     14  C   UNL     1       1.255  12.652  19.333  0.00  0.00    +0.000 C 
ATOM     15  C   UNL     1       1.937  11.586  18.475  0.00  0.00    +0.000 C 
ENDBRANCH   5  11
BRANCH   1  18
ATOM     16  C   UNL     1       6.471   5.264  15.882  0.00  0.00    +0.000 C 
ATOM     17  O   UNL     1       7.031   6.232  16.389  0.00  0.00    +0.000 OA
ATOM     18  N   UNL     1       5.230   4.787  16.246  0.00  0.00    +0.000 N 
ATOM     19  H   UNL     1       5.004   3.839  15.994  0.00  0.00    +0.000 HD
BRANCH  16  20
ATOM     20  O   UNL     1       7.003   4.517  14.883  0.00  0.00    +0.000 OA
BRANCH  20  21
ATOM     21  C   UNL     1       6.016   3.886  14.043  0.00  0.00    +0.000 C 
BRANCH  21  22
ATOM     22  C   UNL     1       6.465   3.797  12.587  0.00  0.00    +0.000 C 
BRANCH  22  24
ATOM     23  C   UNL     1       4.293   3.238  11.387  0.00  0.00    +0.000 C 
ATOM     24  C   UNL     1       5.645   2.729  11.856  0.00  0.00    +0.000 C 
ENDBRANCH  22  24
ENDBRANCH  21  22
ENDBRANCH  20  21
ENDBRANCH  16  20
ENDBRANCH   1  18
BRANCH   9  25
ATOM     25  N   UNL     1       3.862   3.450  18.490  0.00  0.00    +0.000 N 
ATOM     26  C   UNL     1       3.198   2.324  17.830  0.00  0.00    +0.000 C 
ATOM     27  C   UNL     1       4.637   3.064  19.670  0.00  0.00    +0.000 C 
ENDBRANCH   9  25
TORSDOF 7
ENDMDL
MODEL 7
REMARK VINA RESULT:      -7.0      0.740      1.229
REMARK  Name = 
REMARK  10 active torsions:
REMARK  status: ('A' for Active; 'I' for Inactive)
REMARK    1  A    between atoms: C_1  and  C_2
REMARK    2  A    between atoms: C_2  and  C_3
REMARK    3  A    between atoms: C_3  and  C_4
REMARK    4  A    between atoms: C_4  and  O_5
REMARK    5  A    between atoms: O_5  and  C_6
REMARK    6  A    between atoms: N_8  and  C_9
REMARK    7  A    between atoms: C_13  and  C_14
REMARK    8  A    between atoms: C_22  and  N_23
REMARK    9  A    between atoms: N_23  and  C_24
REMARK   10  A    between atoms: N_23  and  C_25
REMARK                            x       y       z     vdW  Elec       q    Type
REMARK                         _______ _______ _______ _____ _____    ______ ____
ROOT
ATOM      1  C   UNL     1       3.347   4.796  18.044  0.00  0.00    +0.000 A 
ATOM      2  C   UNL     1       3.085   6.188  17.953  0.00  0.00    +0.000 A 
ATOM      3  C   UNL     1       2.489   6.852  19.027  0.00  0.00    +0.000 A 
ATOM      4  N   UNL     1       2.101   8.163  19.167  0.00  0.00    +0.000 NA
ATOM      5  C   UNL     1       1.583   8.261  20.374  0.00  0.00    +0.000 A 
ATOM      6  N   UNL     1       1.625   7.043  21.011  0.00  0.00    +0.000 N 
ATOM      7  C   UNL     1       2.194   6.126  20.164  0.00  0.00    +0.000 A 
ATOM      8  C   UNL     1       2.479   4.759  20.298  0.00  0.00    +0.000 A 
ATOM      9  C   UNL     1       3.077   4.044  19.228  0.00  0.00    +0.000 A 
ATOM     10  H   UNL     1       1.284   6.853  21.941  0.00  0.00    +0.000 HD
ENDROOT
BRANCH   5  11
ATOM     11  C   UNL     1       1.023   9.477  21.035  0.00  0.00    +0.000 C 
ATOM     12  C   UNL     1      -0.114  10.119  20.247  0.00  0.00    +0.000 C 
ATOM     13  C   UNL     1      -0.772  11.047  21.264  0.00  0.00    +0.000 C 
ATOM     14  C   UNL     1      -0.559  10.387  22.626  0.00  0.00    +0.000 C 
ATOM     15  C   UNL     1       0.370   9.197  22.387  0.00  0.00    +0.000 C 
ENDBRANCH   5  11
BRANCH   1  18
ATOM     16  C   UNL     1       5.085   4.222  16.413  0.00  0.00    +0.000 C 
ATOM     17  O   UNL     1       6.027   4.684  17.050  0.00  0.00    +0.000 OA
ATOM     18  N   UNL     1       3.782   4.160  16.858  0.00  0.00    +0.000 N 
ATOM     19  H   UNL     1       3.166   3.506  16.404  0.00  0.00    +0.000 HD
BRANCH  16  20
ATOM     20  O   UNL     1       5.196   3.699  15.167  0.00  0.00    +0.000 OA
BRANCH  20  21
ATOM     21  C   UNL     1       6.214   4.329  14.363  0.00  0.00    +0.000 C 
BRANCH  21  22
ATOM     22  C   UNL     1       6.227   3.805  12.929  0.00  0.00    +0.000 C 
BRANCH  22  24
ATOM     23  C   UNL     1       8.120   5.503  12.960  0.00  0.00    +0.000 C 
ATOM     24  C   UNL     1       7.305   4.535  12.121  0.00  0.00    +0.000 C 
ENDBRANCH  22  24
ENDBRANCH  21  22
ENDBRANCH  20  21
ENDBRANCH  16  20
ENDBRANCH   1  18
BRANCH   9  25
ATOM     25  N   UNL     1       3.423   2.699  19.394  0.00  0.00    +0.000 N 
ATOM     26  C   UNL     1       2.576   1.588  18.954  0.00  0.00    +0.000 C 
ATOM     27  C   UNL     1       4.576   2.277  20.192  0.00  0.00    +0.000 C 
ENDBRANCH   9  25
TORSDOF 7
ENDMDL
MODEL 8
REMARK VINA RESULT:      -7.0      1.403      1.861
REMARK  Name = 
REMARK  10 active torsions:
REMARK  status: ('A' for Active; 'I' for Inactive)
REMARK    1  A    between atoms: C_1  and  C_2
REMARK    2  A    between atoms: C_2  and  C_3
REMARK    3  A    between atoms: C_3  and  C_4
REMARK    4  A    between atoms: C_4  and  O_5
REMARK    5  A    between atoms: O_5  and  C_6
REMARK    6  A    between atoms: N_8  and  C_9
REMARK    7  A    between atoms: C_13  and  C_14
REMARK    8  A    between atoms: C_22  and  N_23
REMARK    9  A    between atoms: N_23  and  C_24
REMARK   10  A    between atoms: N_23  and  C_25
REMARK                            x       y       z     vdW  Elec       q    Type
REMARK                         _______ _______ _______ _____ _____    ______ ____
ROOT
ATOM      1  C   UNL     1       4.294   5.347  17.405  0.00  0.00    +0.000 A 
ATOM      2  C   UNL     1       4.127   6.745  17.224  0.00  0.00    +0.000 A 
ATOM      3  C   UNL     1       3.146   7.425  17.948  0.00  0.00    +0.000 A 
ATOM      4  N   UNL     1       2.766   8.745  17.923  0.00  0.00    +0.000 NA
ATOM      5  C   UNL     1       1.786   8.857  18.796  0.00  0.00    +0.000 A 
ATOM      6  N   UNL     1       1.525   7.639  19.378  0.00  0.00    +0.000 N 
ATOM      7  C   UNL     1       2.379   6.708  18.845  0.00  0.00    +0.000 A 
ATOM      8  C   UNL     1       2.549   5.334  19.075  0.00  0.00    +0.000 A 
ATOM      9  C   UNL     1       3.529   4.603  18.354  0.00  0.00    +0.000 A 
ATOM     10  H   UNL     1       0.816   7.458  20.073  0.00  0.00    +0.000 HD
ENDROOT
BRANCH   5  11
ATOM     11  C   UNL     1       1.026  10.087  19.167  0.00  0.00    +0.000 C 
ATOM     12  C   UNL     1      -0.302  10.219  18.428  0.00  0.00    +0.000 C 
ATOM     13  C   UNL     1      -1.054  11.274  19.233  0.00  0.00    +0.000 C 
ATOM     14  C   UNL     1      -0.561  11.127  20.672  0.00  0.00    +0.000 C 
ATOM     15  C   UNL     1       0.593  10.124  20.631  0.00  0.00    +0.000 C 
ENDBRANCH   5  11
BRANCH   1  18
ATOM     16  C   UNL     1       6.523   4.546  16.771  0.00  0.00    +0.000 C 
ATOM     17  O   UNL     1       7.068   4.800  17.841  0.00  0.00    +0.000 OA
ATOM     18  N   UNL     1       5.178   4.699  16.511  0.00  0.00    +0.000 N 
ATOM     19  H   UNL     1       4.794   4.189  15.733  0.00  0.00    +0.000 HD
BRANCH  16  20
ATOM     20  O   UNL     1       7.176   4.071  15.681  0.00  0.00    +0.000 OA
BRANCH  20  21
ATOM     21  C   UNL     1       6.436   4.217  14.452  0.00  0.00    +0.000 C 
BRANCH  21  22
ATOM     22  C   UNL     1       7.285   4.811  13.332  0.00  0.00    +0.000 C 
BRANCH  22  24
ATOM     23  C   UNL     1       5.798   3.145  12.115  0.00  0.00    +0.000 C 
ATOM     24  C   UNL     1       6.987   4.084  12.016  0.00  0.00    +0.000 C 
ENDBRANCH  22  24
ENDBRANCH  21  22
ENDBRANCH  20  21
ENDBRANCH  16  20
ENDBRANCH   1  18
BRANCH   9  25
ATOM     25  N   UNL     1       3.740   3.250  18.639  0.00  0.00    +0.000 N 
ATOM     26  C   UNL     1       3.037   2.163  17.956  0.00  0.00    +0.000 C 
ATOM     27  C   UNL     1       4.547   2.804  19.776  0.00  0.00    +0.000 C 
ENDBRANCH   9  25
TORSDOF 7
ENDMDL
MODEL 9
REMARK VINA RESULT:      -6.9      1.418      2.182
REMARK  Name = 
REMARK  10 active torsions:
REMARK  status: ('A' for Active; 'I' for Inactive)
REMARK    1  A    between atoms: C_1  and  C_2
REMARK    2  A    between atoms: C_2  and  C_3
REMARK    3  A    between atoms: C_3  and  C_4
REMARK    4  A    between atoms: C_4  and  O_5
REMARK    5  A    between atoms: O_5  and  C_6
REMARK    6  A    between atoms: N_8  and  C_9
REMARK    7  A    between atoms: C_13  and  C_14
REMARK    8  A    between atoms: C_22  and  N_23
REMARK    9  A    between atoms: N_23  and  C_24
REMARK   10  A    between atoms: N_23  and  C_25
REMARK                            x       y       z     vdW  Elec       q    Type
REMARK                         _______ _______ _______ _____ _____    ______ ____
ROOT
ATOM      1  C   UNL     1       2.929   5.228  18.819  0.00  0.00    +0.000 A 
ATOM      2  C   UNL     1       2.889   6.646  18.768  0.00  0.00    +0.000 A 
ATOM      3  C   UNL     1       2.118   7.351  19.694  0.00  0.00    +0.000 A 
ATOM      4  N   UNL     1       1.885   8.699  19.827  0.00  0.00    +0.000 NA
ATOM      5  C   UNL     1       1.076   8.828  20.858  0.00  0.00    +0.000 A 
ATOM      6  N   UNL     1       0.780   7.594  21.389  0.00  0.00    +0.000 N 
ATOM      7  C   UNL     1       1.431   6.635  20.654  0.00  0.00    +0.000 A 
ATOM      8  C   UNL     1       1.484   5.237  20.755  0.00  0.00    +0.000 A 
ATOM      9  C   UNL     1       2.249   4.481  19.829  0.00  0.00    +0.000 A 
ATOM     10  H   UNL     1       0.177   7.422  22.179  0.00  0.00    +0.000 HD
ENDROOT
BRANCH   5  11
ATOM     11  C   UNL     1       0.525  10.088  21.438  0.00  0.00    +0.000 C 
ATOM     12  C   UNL     1      -0.566  10.719  20.579  0.00  0.00    +0.000 C 
ATOM     13  C   UNL     1      -1.235  11.711  21.524  0.00  0.00    +0.000 C 
ATOM     14  C   UNL     1      -1.090  11.113  22.924  0.00  0.00    +0.000 C 
ATOM     15  C   UNL     1      -0.184   9.890  22.777  0.00  0.00    +0.000 C 
ENDBRANCH   5  11
BRANCH   1  18
ATOM     16  C   UNL     1       4.842   4.034  17.858  0.00  0.00    +0.000 C 
ATOM     17  O   UNL     1       5.465   3.907  18.909  0.00  0.00    +0.000 OA
ATOM     18  N   UNL     1       3.582   4.579  17.745  0.00  0.00    +0.000 N 
ATOM     19  H   UNL     1       3.054   4.362  16.916  0.00  0.00    +0.000 HD
BRANCH  16  20
ATOM     20  O   UNL     1       5.314   3.649  16.646  0.00  0.00    +0.000 OA
BRANCH  20  21
ATOM     21  C   UNL     1       5.536   4.744  15.735  0.00  0.00    +0.000 C 
BRANCH  21  22
ATOM     22  C   UNL     1       6.802   5.528  16.069  0.00  0.00    +0.000 C 
BRANCH  22  24
ATOM     23  C   UNL     1       7.595   7.332  17.677  0.00  0.00    +0.000 C 
ATOM     24  C   UNL     1       6.437   6.790  16.859  0.00  0.00    +0.000 C 
ENDBRANCH  22  24
ENDBRANCH  21  22
ENDBRANCH  20  21
ENDBRANCH  16  20
ENDBRANCH   1  18
BRANCH   9  25
ATOM     25  N   UNL     1       2.355   3.095  19.978  0.00  0.00    +0.000 N 
ATOM     26  C   UNL     1       1.652   2.136  19.122  0.00  0.00    +0.000 C 
ATOM     27  C   UNL     1       3.029   2.476  21.120  0.00  0.00    +0.000 C 
ENDBRANCH   9  25
TORSDOF 7
ENDMDL
