MODEL 1
REMARK VINA RESULT:      -8.2      0.000      0.000
REMARK  Name = 
REMARK  9 active torsions:
REMARK  status: ('A' for Active; 'I' for Inactive)
REMARK    1  A    between atoms: C_1  and  C_2
REMARK    2  A    between atoms: C_2  and  C_3
REMARK    3  A    between atoms: C_2  and  C_4
REMARK    4  A    between atoms: C_2  and  C_8
REMARK    5  A    between atoms: C_4  and  C_5
REMARK    6  A    between atoms: C_5  and  O_7
REMARK    7  A    between atoms: C_8  and  C_9
REMARK    8  A    between atoms: N_18  and  C_19
REMARK    9  A    between atoms: C_19  and  C_20
REMARK                            x       y       z     vdW  Elec       q    Type
REMARK                         _______ _______ _______ _____ _____    ______ ____
ROOT
ATOM      1  C   UNL     1       4.147   5.295  17.665  0.00  0.00    +0.000 A 
ATOM      2  N   UNL     1       3.906   4.069  17.239  0.00  0.00    +0.000 NA
ATOM      3  C   UNL     1       2.834   3.616  17.953  0.00  0.00    +0.000 A 
ATOM      4  C   UNL     1       2.173   2.390  17.855  0.00  0.00    +0.000 A 
ATOM      5  C   UNL     1       1.077   2.171  18.684  0.00  0.00    +0.000 A 
ATOM      6  F   UNL     1       0.429   1.001  18.617  0.00  0.00    +0.000 F 
ATOM      7  C   UNL     1       0.632   3.141  19.579  0.00  0.00    +0.000 A 
ATOM      8  C   UNL     1       1.289   4.374  19.691  0.00  0.00    +0.000 A 
ATOM      9  C   UNL     1       2.405   4.577  18.866  0.00  0.00    +0.000 A 
ATOM     10  N   UNL     1       3.326   5.600  18.735  0.00  0.00    +0.000 N 
ENDROOT
BRANCH   1  11
ATOM     11  C   UNL     1       5.205   6.187  17.082  0.00  0.00    +0.000 C 
BRANCH  11  13
ATOM     12  C   UNL     1       6.553   5.504  19.060  0.00  0.00    +0.000 C 
ATOM     13  C   UNL     1       6.664   5.877  17.564  0.00  0.00    +0.000 C 
ATOM     14  C   UNL     1       7.541   7.138  17.426  0.00  0.00    +0.000 C 
BRANCH  13  15
ATOM     15  C   UNL     1       7.266   4.692  16.759  0.00  0.00    +0.000 C 
BRANCH  15  16
ATOM     16  C   UNL     1       7.015   4.658  15.262  0.00  0.00    +0.000 C 
ATOM     17  O   UNL     1       7.535   5.371  14.423  0.00  0.00    +0.000 OA
BRANCH  16  18
ATOM     18  O   UNL     1       6.100   3.713  14.929  0.00  0.00    +0.000 OA
ATOM     19  H   UNL     1       6.284   3.284  14.071  0.00  0.00    +0.000 HD
ENDBRANCH  16  18
ENDBRANCH  15  16
ENDBRANCH  13  15
ENDBRANCH  11  13
ENDBRANCH   1  11
BRANCH  10  20
ATOM     20  C   UNL     1       3.444   6.755  19.625  0.00  0.00    +0.000 C 
BRANCH  20  21
ATOM     21  C   UNL     1       2.364   7.782  19.343  0.00  0.00    +0.000 A 
ATOM     22  C   UNL     1       2.192   8.314  18.056  0.00  0.00    +0.000 A 
ATOM     23  C   UNL     1       1.267   9.340  17.827  0.00  0.00    +0.000 A 
ATOM     24  C   UNL     1       0.493   9.843  18.876  0.00  0.00    +0.000 A 
ATOM     25 CL   UNL     1      -0.563  11.168  18.538  0.00  0.00    +0.000 Cl
ATOM     26  C   UNL     1       0.607   9.280  20.147  0.00  0.00    +0.000 A 
ATOM     27 CL   UNL     1      -0.338   9.818  21.490  0.00  0.00    +0.000 Cl
ATOM     28  C   UNL     1       1.528   8.249  20.372  0.00  0.00    +0.000 A 
ENDBRANCH  20  21
ENDBRANCH  10  20
TORSDOF 7
ENDMDL
MODEL 2
REMARK VINA RESULT:      -8.1      3.173      5.293
REMARK  Name = 
REMARK  9 active torsions:
REMARK  status: ('A' for Active; 'I' for Inactive)
REMARK    1  A    between atoms: C_1  and  C_2
REMARK    2  A    between atoms: C_2  and  C_3
REMARK    3  A    between atoms: C_2  and  C_4
REMARK    4  A    between atoms: C_2  and  C_8
REMARK    5  A    between atoms: C_4  and  C_5
REMARK    6  A    between atoms: C_5  and  O_7
REMARK    7  A    between atoms: C_8  and  C_9
REMARK    8  A    between atoms: N_18  and  C_19
REMARK    9  A    between atoms: C_19  and  C_20
REMARK                            x       y       z     vdW  Elec       q    Type
REMARK                         _______ _______ _______ _____ _____    ______ ____
ROOT
ATOM      1  C   UNL     1       3.936   3.464  18.115  0.00  0.00    +0.000 A 
ATOM      2  N   UNL     1       4.230   3.065  16.892  0.00  0.00    +0.000 NA
ATOM      3  C   UNL     1       5.184   3.923  16.424  0.00  0.00    +0.000 A 
ATOM      4  C   UNL     1       5.845   3.909  15.195  0.00  0.00    +0.000 A 
ATOM      5  C   UNL     1       6.807   4.887  14.959  0.00  0.00    +0.000 A 
ATOM      6  F   UNL     1       7.450   4.902  13.785  0.00  0.00    +0.000 F 
ATOM      7  C   UNL     1       7.121   5.848  15.917  0.00  0.00    +0.000 A 
ATOM      8  C   UNL     1       6.462   5.877  17.153  0.00  0.00    +0.000 A 
ATOM      9  C   UNL     1       5.479   4.899  17.373  0.00  0.00    +0.000 A 
ATOM     10  N   UNL     1       4.593   4.647  18.404  0.00  0.00    +0.000 N 
ENDROOT
BRANCH   1  11
ATOM     11  C   UNL     1       2.980   2.744  19.021  0.00  0.00    +0.000 C 
BRANCH  11  13
ATOM     12  C   UNL     1       0.668   1.925  18.597  0.00  0.00    +0.000 C 
ATOM     13  C   UNL     1       1.485   3.202  18.897  0.00  0.00    +0.000 C 
ATOM     14  C   UNL     1       1.334   4.183  17.718  0.00  0.00    +0.000 C 
BRANCH  13  15
ATOM     15  C   UNL     1       1.001   3.850  20.225  0.00  0.00    +0.000 C 
BRANCH  15  16
ATOM     16  C   UNL     1       1.584   3.318  21.522  0.00  0.00    +0.000 C 
ATOM     17  O   UNL     1       1.262   2.292  22.095  0.00  0.00    +0.000 OA
BRANCH  16  18
ATOM     18  O   UNL     1       2.545   4.139  22.013  0.00  0.00    +0.000 OA
ATOM     19  H   UNL     1       2.245   4.670  22.775  0.00  0.00    +0.000 HD
ENDBRANCH  16  18
ENDBRANCH  15  16
ENDBRANCH  13  15
ENDBRANCH  11  13
ENDBRANCH   1  11
BRANCH  10  20
ATOM     20  C   UNL     1       4.353   5.523  19.550  0.00  0.00    +0.000 C 
BRANCH  20  21
ATOM     21  C   UNL     1       3.346   6.608  19.214  0.00  0.00    +0.000 A 
ATOM     22  C   UNL     1       3.340   7.222  17.954  0.00  0.00    +0.000 A 
ATOM     23  C   UNL     1       2.481   8.296  17.688  0.00  0.00    +0.000 A 
ATOM     24  C   UNL     1       1.609   8.766  18.674  0.00  0.00    +0.000 A 
ATOM     25 CL   UNL     1       0.643  10.150  18.305  0.00  0.00    +0.000 Cl
ATOM     26  C   UNL     1       1.559   8.124  19.911  0.00  0.00    +0.000 A 
ATOM     27 CL   UNL     1       0.485   8.617  21.172  0.00  0.00    +0.000 Cl
ATOM     28  C   UNL     1       2.414   7.045  20.172  0.00  0.00    +0.000 A 
ENDBRANCH  20  21
ENDBRANCH  10  20
TORSDOF 7
ENDMDL
MODEL 3
REMARK VINA RESULT:      -8.1      2.653      4.739
REMARK  Name = 
REMARK  9 active torsions:
REMARK  status: ('A' for Active; 'I' for Inactive)
REMARK    1  A    between atoms: C_1  and  C_2
REMARK    2  A    between atoms: C_2  and  C_3
REMARK    3  A    between atoms: C_2  and  C_4
REMARK    4  A    between atoms: C_2  and  C_8
REMARK    5  A    between atoms: C_4  and  C_5
REMARK    6  A    between atoms: C_5  and  O_7
REMARK    7  A    between atoms: C_8  and  C_9
REMARK    8  A    between atoms: N_18  and  C_19
REMARK    9  A    between atoms: C_19  and  C_20
REMARK                            x       y       z     vdW  Elec       q    Type
REMARK                         _______ _______ _______ _____ _____    ______ ____
ROOT
ATOM      1  C   UNL     1       2.946   4.480  17.697  0.00  0.00    +0.000 A 
ATOM      2  N   UNL     1       3.395   4.126  16.508  0.00  0.00    +0.000 NA
ATOM      3  C   UNL     1       4.654   4.642  16.399  0.00  0.00    +0.000 A 
ATOM      4  C   UNL     1       5.561   4.521  15.346  0.00  0.00    +0.000 A 
ATOM      5  C   UNL     1       6.808   5.125  15.484  0.00  0.00    +0.000 A 
ATOM      6  F   UNL     1       7.694   5.032  14.485  0.00  0.00    +0.000 F 
ATOM      7  C   UNL     1       7.159   5.819  16.639  0.00  0.00    +0.000 A 
ATOM      8  C   UNL     1       6.256   5.952  17.703  0.00  0.00    +0.000 A 
ATOM      9  C   UNL     1       4.995   5.358  17.545  0.00  0.00    +0.000 A 
ATOM     10  N   UNL     1       3.848   5.328  18.316  0.00  0.00    +0.000 N 
ENDROOT
BRANCH   1  11
ATOM     11  C   UNL     1       1.619   4.049  18.251  0.00  0.00    +0.000 C 
BRANCH  11  13
ATOM     12  C   UNL     1       0.487   1.965  19.005  0.00  0.00    +0.000 C 
ATOM     13  C   UNL     1       1.691   2.888  19.301  0.00  0.00    +0.000 C 
ATOM     14  C   UNL     1       1.547   3.459  20.726  0.00  0.00    +0.000 C 
BRANCH  13  15
ATOM     15  C   UNL     1       3.021   2.097  19.152  0.00  0.00    +0.000 C 
BRANCH  15  16
ATOM     16  C   UNL     1       4.058   2.251  20.251  0.00  0.00    +0.000 C 
ATOM     17  O   UNL     1       3.891   2.047  21.441  0.00  0.00    +0.000 OA
BRANCH  16  18
ATOM     18  O   UNL     1       5.252   2.666  19.759  0.00  0.00    +0.000 OA
ATOM     19  H   UNL     1       5.515   2.200  18.942  0.00  0.00    +0.000 HD
ENDBRANCH  16  18
ENDBRANCH  15  16
ENDBRANCH  13  15
ENDBRANCH  11  13
ENDBRANCH   1  11
BRANCH  10  20
ATOM     20  C   UNL     1       3.618   6.116  19.526  0.00  0.00    +0.000 C 
BRANCH  20  21
ATOM     21  C   UNL     1       2.674   7.274  19.260  0.00  0.00    +0.000 A 
ATOM     22  C   UNL     1       2.656   7.918  18.014  0.00  0.00    +0.000 A 
ATOM     23  C   UNL     1       1.862   9.054  17.810  0.00  0.00    +0.000 A 
ATOM     24  C   UNL     1       1.069   9.558  18.844  0.00  0.00    +0.000 A 
ATOM     25 CL   UNL     1       0.185  11.013  18.549  0.00  0.00    +0.000 Cl
ATOM     26  C   UNL     1       1.028   8.891  20.069  0.00  0.00    +0.000 A 
ATOM     27 CL   UNL     1       0.048   9.427  21.387  0.00  0.00    +0.000 Cl
ATOM     28  C   UNL     1       1.818   7.751  20.267  0.00  0.00    +0.000 A 
ENDBRANCH  20  21
ENDBRANCH  10  20
TORSDOF 7
ENDMDL
MODEL 4
REMARK VINA RESULT:      -8.0      3.121      5.206
REMARK  Name = 
REMARK  9 active torsions:
REMARK  status: ('A' for Active; 'I' for Inactive)
REMARK    1  A    between atoms: C_1  and  C_2
REMARK    2  A    between atoms: C_2  and  C_3
REMARK    3  A    between atoms: C_2  and  C_4
REMARK    4  A    between atoms: C_2  and  C_8
REMARK    5  A    between atoms: C_4  and  C_5
REMARK    6  A    between atoms: C_5  and  O_7
REMARK    7  A    between atoms: C_8  and  C_9
REMARK    8  A    between atoms: N_18  and  C_19
REMARK    9  A    between atoms: C_19  and  C_20
REMARK                            x       y       z     vdW  Elec       q    Type
REMARK                         _______ _______ _______ _____ _____    ______ ____
ROOT
ATOM      1  C   UNL     1       2.934   4.474  17.580  0.00  0.00    +0.000 A 
ATOM      2  N   UNL     1       3.414   4.149  16.395  0.00  0.00    +0.000 NA
ATOM      3  C   UNL     1       4.693   4.627  16.351  0.00  0.00    +0.000 A 
ATOM      4  C   UNL     1       5.634   4.515  15.327  0.00  0.00    +0.000 A 
ATOM      5  C   UNL     1       6.893   5.072  15.532  0.00  0.00    +0.000 A 
ATOM      6  F   UNL     1       7.812   4.986  14.562  0.00  0.00    +0.000 F 
ATOM      7  C   UNL     1       7.223   5.712  16.724  0.00  0.00    +0.000 A 
ATOM      8  C   UNL     1       6.286   5.836  17.759  0.00  0.00    +0.000 A 
ATOM      9  C   UNL     1       5.013   5.289  17.534  0.00  0.00    +0.000 A 
ATOM     10  N   UNL     1       3.838   5.268  18.262  0.00  0.00    +0.000 N 
ENDROOT
BRANCH   1  11
ATOM     11  C   UNL     1       1.574   4.067  18.069  0.00  0.00    +0.000 C 
BRANCH  11  13
ATOM     12  C   UNL     1       2.926   2.205  19.019  0.00  0.00    +0.000 C 
ATOM     13  C   UNL     1       1.579   2.948  19.168  0.00  0.00    +0.000 C 
ATOM     14  C   UNL     1       0.428   1.956  18.910  0.00  0.00    +0.000 C 
BRANCH  13  15
ATOM     15  C   UNL     1       1.465   3.574  20.586  0.00  0.00    +0.000 C 
BRANCH  15  16
ATOM     16  C   UNL     1       1.881   2.718  21.769  0.00  0.00    +0.000 C 
ATOM     17  O   UNL     1       3.015   2.379  22.057  0.00  0.00    +0.000 OA
BRANCH  16  18
ATOM     18  O   UNL     1       0.812   2.337  22.512  0.00  0.00    +0.000 OA
ATOM     19  H   UNL     1       0.501   3.031  23.124  0.00  0.00    +0.000 HD
ENDBRANCH  16  18
ENDBRANCH  15  16
ENDBRANCH  13  15
ENDBRANCH  11  13
ENDBRANCH   1  11
BRANCH  10  20
ATOM     20  C   UNL     1       3.588   6.019  19.492  0.00  0.00    +0.000 C 
BRANCH  20  21
ATOM     21  C   UNL     1       2.684   7.211  19.237  0.00  0.00    +0.000 A 
ATOM     22  C   UNL     1       2.697   7.877  18.003  0.00  0.00    +0.000 A 
ATOM     23  C   UNL     1       1.941   9.040  17.812  0.00  0.00    +0.000 A 
ATOM     24  C   UNL     1       1.154   9.551  18.847  0.00  0.00    +0.000 A 
ATOM     25 CL   UNL     1       0.319  11.038  18.570  0.00  0.00    +0.000 Cl
ATOM     26  C   UNL     1       1.081   8.864  20.059  0.00  0.00    +0.000 A 
ATOM     27 CL   UNL     1       0.104   9.406  21.377  0.00  0.00    +0.000 Cl
ATOM     28  C   UNL     1       1.832   7.696  20.245  0.00  0.00    +0.000 A 
ENDBRANCH  20  21
ENDBRANCH  10  20
TORSDOF 7
ENDMDL
MODEL 5
REMARK VINA RESULT:      -7.7      0.997      1.830
REMARK  Name = 
REMARK  9 active torsions:
REMARK  status: ('A' for Active; 'I' for Inactive)
REMARK    1  A    between atoms: C_1  and  C_2
REMARK    2  A    between atoms: C_2  and  C_3
REMARK    3  A    between atoms: C_2  and  C_4
REMARK    4  A    between atoms: C_2  and  C_8
REMARK    5  A    between atoms: C_4  and  C_5
REMARK    6  A    between atoms: C_5  and  O_7
REMARK    7  A    between atoms: C_8  and  C_9
REMARK    8  A    between atoms: N_18  and  C_19
REMARK    9  A    between atoms: C_19  and  C_20
REMARK                            x       y       z     vdW  Elec       q    Type
REMARK                         _______ _______ _______ _____ _____    ______ ____
ROOT
ATOM      1  C   UNL     1       4.734   5.420  18.782  0.00  0.00    +0.000 A 
ATOM      2  N   UNL     1       4.700   4.253  19.398  0.00  0.00    +0.000 NA
ATOM      3  C   UNL     1       3.469   3.719  19.147  0.00  0.00    +0.000 A 
ATOM      4  C   UNL     1       2.951   2.487  19.549  0.00  0.00    +0.000 A 
ATOM      5  C   UNL     1       1.663   2.154  19.141  0.00  0.00    +0.000 A 
ATOM      6  F   UNL     1       1.138   0.982  19.519  0.00  0.00    +0.000 F 
ATOM      7  C   UNL     1       0.906   3.009  18.343  0.00  0.00    +0.000 A 
ATOM      8  C   UNL     1       1.411   4.251  17.935  0.00  0.00    +0.000 A 
ATOM      9  C   UNL     1       2.703   4.586  18.369  0.00  0.00    +0.000 A 
ATOM     10  N   UNL     1       3.496   5.711  18.238  0.00  0.00    +0.000 N 
ENDROOT
BRANCH   1  11
ATOM     11  C   UNL     1       5.946   6.306  18.739  0.00  0.00    +0.000 C 
BRANCH  11  13
ATOM     12  C   UNL     1       7.751   4.830  17.870  0.00  0.00    +0.000 C 
ATOM     13  C   UNL     1       6.893   6.065  17.514  0.00  0.00    +0.000 C 
ATOM     14  C   UNL     1       7.821   7.281  17.322  0.00  0.00    +0.000 C 
BRANCH  13  15
ATOM     15  C   UNL     1       6.065   5.791  16.227  0.00  0.00    +0.000 C 
BRANCH  15  16
ATOM     16  C   UNL     1       6.655   4.840  15.200  0.00  0.00    +0.000 C 
ATOM     17  O   UNL     1       6.306   3.693  14.989  0.00  0.00    +0.000 OA
BRANCH  16  18
ATOM     18  O   UNL     1       7.666   5.419  14.507  0.00  0.00    +0.000 OA
ATOM     19  H   UNL     1       7.599   5.285  13.542  0.00  0.00    +0.000 HD
ENDBRANCH  16  18
ENDBRANCH  15  16
ENDBRANCH  13  15
ENDBRANCH  11  13
ENDBRANCH   1  11
BRANCH  10  20
ATOM     20  C   UNL     1       3.063   6.994  17.687  0.00  0.00    +0.000 C 
BRANCH  20  21
ATOM     21  C   UNL     1       2.295   7.805  18.714  0.00  0.00    +0.000 A 
ATOM     22  C   UNL     1       2.145   7.346  20.031  0.00  0.00    +0.000 A 
ATOM     23  C   UNL     1       1.345   8.046  20.943  0.00  0.00    +0.000 A 
ATOM     24  C   UNL     1       0.691   9.219  20.556  0.00  0.00    +0.000 A 
ATOM     25 CL   UNL     1      -0.351   9.979  21.706  0.00  0.00    +0.000 Cl
ATOM     26  C   UNL     1       0.882   9.722  19.270  0.00  0.00    +0.000 A 
ATOM     27 CL   UNL     1       0.141  11.183  18.723  0.00  0.00    +0.000 Cl
ATOM     28  C   UNL     1       1.689   9.024  18.362  0.00  0.00    +0.000 A 
ENDBRANCH  20  21
ENDBRANCH  10  20
TORSDOF 7
ENDMDL
MODEL 6
REMARK VINA RESULT:      -7.5      1.355      1.640
REMARK  Name = 
REMARK  9 active torsions:
REMARK  status: ('A' for Active; 'I' for Inactive)
REMARK    1  A    between atoms: C_1  and  C_2
REMARK    2  A    between atoms: C_2  and  C_3
REMARK    3  A    between atoms: C_2  and  C_4
REMARK    4  A    between atoms: C_2  and  C_8
REMARK    5  A    between atoms: C_4  and  C_5
REMARK    6  A    between atoms: C_5  and  O_7
REMARK    7  A    between atoms: C_8  and  C_9
REMARK    8  A    between atoms: N_18  and  C_19
REMARK    9  A    between atoms: C_19  and  C_20
REMARK                            x       y       z     vdW  Elec       q    Type
REMARK                         _______ _______ _______ _____ _____    ______ ____
ROOT
ATOM      1  C   UNL     1       3.760   5.491  17.507  0.00  0.00    +0.000 A 
ATOM      2  N   UNL     1       3.502   4.269  17.083  0.00  0.00    +0.000 NA
ATOM      3  C   UNL     1       2.540   3.767  17.913  0.00  0.00    +0.000 A 
ATOM      4  C   UNL     1       1.906   2.525  17.865  0.00  0.00    +0.000 A 
ATOM      5  C   UNL     1       0.930   2.253  18.819  0.00  0.00    +0.000 A 
ATOM      6  F   UNL     1       0.311   1.065  18.803  0.00  0.00    +0.000 F 
ATOM      7  C   UNL     1       0.575   3.188  19.789  0.00  0.00    +0.000 A 
ATOM      8  C   UNL     1       1.207   4.437  19.850  0.00  0.00    +0.000 A 
ATOM      9  C   UNL     1       2.204   4.694  18.897  0.00  0.00    +0.000 A 
ATOM     10  N   UNL     1       3.073   5.747  18.680  0.00  0.00    +0.000 N 
ENDROOT
BRANCH   1  11
ATOM     11  C   UNL     1       4.712   6.429  16.821  0.00  0.00    +0.000 C 
BRANCH  11  13
ATOM     12  C   UNL     1       7.022   7.263  17.224  0.00  0.00    +0.000 C 
ATOM     13  C   UNL     1       6.216   5.992  16.872  0.00  0.00    +0.000 C 
ATOM     14  C   UNL     1       6.662   5.485  15.486  0.00  0.00    +0.000 C 
BRANCH  13  15
ATOM     15  C   UNL     1       6.433   4.901  17.958  0.00  0.00    +0.000 C 
BRANCH  15  16
ATOM     16  C   UNL     1       7.821   4.773  18.560  0.00  0.00    +0.000 C 
ATOM     17  O   UNL     1       8.220   5.298  19.584  0.00  0.00    +0.000 OA
BRANCH  16  18
ATOM     18  O   UNL     1       8.623   3.982  17.804  0.00  0.00    +0.000 OA
ATOM     19  H   UNL     1       9.435   3.702  18.267  0.00  0.00    +0.000 HD
ENDBRANCH  16  18
ENDBRANCH  15  16
ENDBRANCH  13  15
ENDBRANCH  11  13
ENDBRANCH   1  11
BRANCH  10  20
ATOM     20  C   UNL     1       3.270   6.884  19.579  0.00  0.00    +0.000 C 
BRANCH  20  21
ATOM     21  C   UNL     1       2.167   7.914  19.417  0.00  0.00    +0.000 A 
ATOM     22  C   UNL     1       1.891   8.485  18.166  0.00  0.00    +0.000 A 
ATOM     23  C   UNL     1       0.947   9.512  18.044  0.00  0.00    +0.000 A 
ATOM     24  C   UNL     1       0.258   9.978  19.168  0.00  0.00    +0.000 A 
ATOM     25 CL   UNL     1      -0.826  11.307  18.958  0.00  0.00    +0.000 Cl
ATOM     26  C   UNL     1       0.476   9.375  20.407  0.00  0.00    +0.000 A 
ATOM     27 CL   UNL     1      -0.359   9.865  21.838  0.00  0.00    +0.000 Cl
ATOM     28  C   UNL     1       1.415   8.343  20.524  0.00  0.00    +0.000 A 
ENDBRANCH  20  21
ENDBRANCH  10  20
TORSDOF 7
ENDMDL
MODEL 7
REMARK VINA RESULT:      -7.3      2.061      2.813
REMARK  Name = 
REMARK  9 active torsions:
REMARK  status: ('A' for Active; 'I' for Inactive)
REMARK    1  A    between atoms: C_1  and  C_2
REMARK    2  A    between atoms: C_2  and  C_3
REMARK    3  A    between atoms: C_2  and  C_4
REMARK    4  A    between atoms: C_2  and  C_8
REMARK    5  A    between atoms: C_4  and  C_5
REMARK    6  A    between atoms: C_5  and  O_7
REMARK    7  A    between atoms: C_8  and  C_9
REMARK    8  A    between atoms: N_18  and  C_19
REMARK    9  A    between atoms: C_19  and  C_20
REMARK                            x       y       z     vdW  Elec       q    Type
REMARK                         _______ _______ _______ _____ _____    ______ ____
ROOT
ATOM      1  C   UNL     1       4.352   5.440  18.767  0.00  0.00    +0.000 A 
ATOM      2  N   UNL     1       4.610   4.515  19.672  0.00  0.00    +0.000 NA
ATOM      3  C   UNL     1       3.402   4.025  20.079  0.00  0.00    +0.000 A 
ATOM      4  C   UNL     1       3.135   3.010  20.999  0.00  0.00    +0.000 A 
ATOM      5  C   UNL     1       1.805   2.671  21.231  0.00  0.00    +0.000 A 
ATOM      6  F   UNL     1       1.520   1.707  22.115  0.00  0.00    +0.000 F 
ATOM      7  C   UNL     1       0.762   3.306  20.561  0.00  0.00    +0.000 A 
ATOM      8  C   UNL     1       1.015   4.330  19.638  0.00  0.00    +0.000 A 
ATOM      9  C   UNL     1       2.358   4.679  19.428  0.00  0.00    +0.000 A 
ATOM     10  N   UNL     1       2.988   5.650  18.672  0.00  0.00    +0.000 N 
ENDROOT
BRANCH   1  11
ATOM     11  C   UNL     1       5.413   6.179  18.004  0.00  0.00    +0.000 C 
BRANCH  11  13
ATOM     12  C   UNL     1       6.744   6.089  15.903  0.00  0.00    +0.000 C 
ATOM     13  C   UNL     1       6.368   5.269  17.157  0.00  0.00    +0.000 C 
ATOM     14  C   UNL     1       5.623   3.993  16.717  0.00  0.00    +0.000 C 
BRANCH  13  15
ATOM     15  C   UNL     1       7.646   4.914  17.969  0.00  0.00    +0.000 C 
BRANCH  15  16
ATOM     16  C   UNL     1       7.929   5.721  19.224  0.00  0.00    +0.000 C 
ATOM     17  O   UNL     1       7.747   5.363  20.374  0.00  0.00    +0.000 OA
BRANCH  16  18
ATOM     18  O   UNL     1       8.425   6.948  18.928  0.00  0.00    +0.000 OA
ATOM     19  H   UNL     1       7.748   7.652  18.946  0.00  0.00    +0.000 HD
ENDBRANCH  16  18
ENDBRANCH  15  16
ENDBRANCH  13  15
ENDBRANCH  11  13
ENDBRANCH   1  11
BRANCH  10  20
ATOM     20  C   UNL     1       2.319   6.742  17.966  0.00  0.00    +0.000 C 
BRANCH  20  21
ATOM     21  C   UNL     1       1.881   7.833  18.925  0.00  0.00    +0.000 A 
ATOM     22  C   UNL     1       1.836   7.604  20.308  0.00  0.00    +0.000 A 
ATOM     23  C   UNL     1       1.328   8.578  21.177  0.00  0.00    +0.000 A 
ATOM     24  C   UNL     1       0.865   9.799  20.678  0.00  0.00    +0.000 A 
ATOM     25 CL   UNL     1       0.170  10.917  21.797  0.00  0.00    +0.000 Cl
ATOM     26  C   UNL     1       0.962  10.066  19.313  0.00  0.00    +0.000 A 
ATOM     27 CL   UNL     1       0.447  11.562  18.620  0.00  0.00    +0.000 Cl
ATOM     28  C   UNL     1       1.478   9.093  18.447  0.00  0.00    +0.000 A 
ENDBRANCH  20  21
ENDBRANCH  10  20
TORSDOF 7
ENDMDL
MODEL 8
REMARK VINA RESULT:      -7.2      1.513      2.272
REMARK  Name = 
REMARK  9 active torsions:
REMARK  status: ('A' for Active; 'I' for Inactive)
REMARK    1  A    between atoms: C_1  and  C_2
REMARK    2  A    between atoms: C_2  and  C_3
REMARK    3  A    between atoms: C_2  and  C_4
REMARK    4  A    between atoms: C_2  and  C_8
REMARK    5  A    between atoms: C_4  and  C_5
REMARK    6  A    between atoms: C_5  and  O_7
REMARK    7  A    between atoms: C_8  and  C_9
REMARK    8  A    between atoms: N_18  and  C_19
REMARK    9  A    between atoms: C_19  and  C_20
REMARK                            x       y       z     vdW  Elec       q    Type
REMARK                         _______ _______ _______ _____ _____    ______ ____
ROOT
ATOM      1  C   UNL     1       4.413   5.177  18.693  0.00  0.00    +0.000 A 
ATOM      2  N   UNL     1       4.654   4.269  19.619  0.00  0.00    +0.000 NA
ATOM      3  C   UNL     1       3.438   3.858  20.084  0.00  0.00    +0.000 A 
ATOM      4  C   UNL     1       3.152   2.889  21.046  0.00  0.00    +0.000 A 
ATOM      5  C   UNL     1       1.815   2.628  21.334  0.00  0.00    +0.000 A 
ATOM      6  F   UNL     1       1.512   1.709  22.259  0.00  0.00    +0.000 F 
ATOM      7  C   UNL     1       0.783   3.296  20.678  0.00  0.00    +0.000 A 
ATOM      8  C   UNL     1       1.057   4.274  19.713  0.00  0.00    +0.000 A 
ATOM      9  C   UNL     1       2.407   4.545  19.445  0.00  0.00    +0.000 A 
ATOM     10  N   UNL     1       3.060   5.457  18.637  0.00  0.00    +0.000 N 
ENDROOT
BRANCH   1  11
ATOM     11  C   UNL     1       5.483   5.834  17.869  0.00  0.00    +0.000 C 
BRANCH  11  13
ATOM     12  C   UNL     1       5.216   3.670  16.670  0.00  0.00    +0.000 C 
ATOM     13  C   UNL     1       6.124   4.917  16.771  0.00  0.00    +0.000 C 
ATOM     14  C   UNL     1       7.533   4.476  17.214  0.00  0.00    +0.000 C 
BRANCH  13  15
ATOM     15  C   UNL     1       6.176   5.655  15.404  0.00  0.00    +0.000 C 
BRANCH  15  16
ATOM     16  C   UNL     1       6.880   4.956  14.254  0.00  0.00    +0.000 C 
ATOM     17  O   UNL     1       6.523   3.932  13.700  0.00  0.00    +0.000 OA
BRANCH  16  18
ATOM     18  O   UNL     1       8.008   5.612  13.885  0.00  0.00    +0.000 OA
ATOM     19  H   UNL     1       8.158   6.435  14.389  0.00  0.00    +0.000 HD
ENDBRANCH  16  18
ENDBRANCH  15  16
ENDBRANCH  13  15
ENDBRANCH  11  13
ENDBRANCH   1  11
BRANCH  10  20
ATOM     20  C   UNL     1       2.424   6.559  17.917  0.00  0.00    +0.000 C 
BRANCH  20  21
ATOM     21  C   UNL     1       1.974   7.653  18.868  0.00  0.00    +0.000 A 
ATOM     22  C   UNL     1       1.948   7.439  20.254  0.00  0.00    +0.000 A 
ATOM     23  C   UNL     1       1.430   8.413  21.116  0.00  0.00    +0.000 A 
ATOM     24  C   UNL     1       0.939   9.619  20.609  0.00  0.00    +0.000 A 
ATOM     25 CL   UNL     1       0.233  10.737  21.721  0.00  0.00    +0.000 Cl
ATOM     26  C   UNL     1       1.016   9.872  19.239  0.00  0.00    +0.000 A 
ATOM     27 CL   UNL     1       0.465  11.350  18.534  0.00  0.00    +0.000 Cl
ATOM     28  C   UNL     1       1.542   8.898  18.380  0.00  0.00    +0.000 A 
ENDBRANCH  20  21
ENDBRANCH  10  20
TORSDOF 7
ENDMDL
MODEL 9
REMARK VINA RESULT:      -7.2      1.227      1.520
REMARK  Name = 
REMARK  9 active torsions:
REMARK  status: ('A' for Active; 'I' for Inactive)
REMARK    1  A    between atoms: C_1  and  C_2
REMARK    2  A    between atoms: C_2  and  C_3
REMARK    3  A    between atoms: C_2  and  C_4
REMARK    4  A    between atoms: C_2  and  C_8
REMARK    5  A    between atoms: C_4  and  C_5
REMARK    6  A    between atoms: C_5  and  O_7
REMARK    7  A    between atoms: C_8  and  C_9
REMARK    8  A    between atoms: N_18  and  C_19
REMARK    9  A    between atoms: C_19  and  C_20
REMARK                            x       y       z     vdW  Elec       q    Type
REMARK                         _______ _______ _______ _____ _____    ______ ____
ROOT
ATOM      1  C   UNL     1       4.745   5.681  18.923  0.00  0.00    +0.000 A 
ATOM      2  N   UNL     1       4.611   4.575  19.630  0.00  0.00    +0.000 NA
ATOM      3  C   UNL     1       3.429   4.010  19.245  0.00  0.00    +0.000 A 
ATOM      4  C   UNL     1       2.850   2.815  19.674  0.00  0.00    +0.000 A 
ATOM      5  C   UNL     1       1.637   2.435  19.107  0.00  0.00    +0.000 A 
ATOM      6  F   UNL     1       1.055   1.298  19.507  0.00  0.00    +0.000 F 
ATOM      7  C   UNL     1       1.015   3.208  18.129  0.00  0.00    +0.000 A 
ATOM      8  C   UNL     1       1.583   4.412  17.692  0.00  0.00    +0.000 A 
ATOM      9  C   UNL     1       2.795   4.796  18.285  0.00  0.00    +0.000 A 
ATOM     10  N   UNL     1       3.605   5.911  18.173  0.00  0.00    +0.000 N 
ENDROOT
BRANCH   1  11
ATOM     11  C   UNL     1       5.953   6.570  18.984  0.00  0.00    +0.000 C 
BRANCH  11  13
ATOM     12  C   UNL     1       8.173   5.450  19.106  0.00  0.00    +0.000 C 
ATOM     13  C   UNL     1       7.168   6.088  18.119  0.00  0.00    +0.000 C 
ATOM     14  C   UNL     1       7.837   7.297  17.435  0.00  0.00    +0.000 C 
BRANCH  13  15
ATOM     15  C   UNL     1       6.709   5.039  17.067  0.00  0.00    +0.000 C 
BRANCH  15  16
ATOM     16  C   UNL     1       6.522   5.513  15.637  0.00  0.00    +0.000 C 
ATOM     17  O   UNL     1       5.576   6.141  15.198  0.00  0.00    +0.000 OA
BRANCH  16  18
ATOM     18  O   UNL     1       7.562   5.144  14.848  0.00  0.00    +0.000 OA
ATOM     19  H   UNL     1       7.990   5.898  14.397  0.00  0.00    +0.000 HD
ENDBRANCH  16  18
ENDBRANCH  15  16
ENDBRANCH  13  15
ENDBRANCH  11  13
ENDBRANCH   1  11
BRANCH  10  20
ATOM     20  C   UNL     1       3.268   7.135  17.448  0.00  0.00    +0.000 C 
BRANCH  20  21
ATOM     21  C   UNL     1       2.279   7.983  18.226  0.00  0.00    +0.000 A 
ATOM     22  C   UNL     1       1.513   8.968  17.587  0.00  0.00    +0.000 A 
ATOM     23  C   UNL     1       0.683   9.818  18.328  0.00  0.00    +0.000 A 
ATOM     24  C   UNL     1       0.599   9.692  19.717  0.00  0.00    +0.000 A 
ATOM     25 CL   UNL     1      -0.375  10.832  20.576  0.00  0.00    +0.000 Cl
ATOM     26  C   UNL     1       1.306   8.676  20.360  0.00  0.00    +0.000 A 
ATOM     27 CL   UNL     1       1.230   8.427  22.068  0.00  0.00    +0.000 Cl
ATOM     28  C   UNL     1       2.130   7.822  19.615  0.00  0.00    +0.000 A 
ENDBRANCH  20  21
ENDBRANCH  10  20
TORSDOF 7
ENDMDL
