MODEL 1
REMARK VINA RESULT:      -8.0      0.000      0.000
REMARK  Name = 
REMARK  6 active torsions:
REMARK  status: ('A' for Active; 'I' for Inactive)
REMARK    1  A    between atoms: S_2  and  N_4
REMARK    2  A    between atoms: S_2  and  C_13
REMARK    3  A    between atoms: N_4  and  C_5
REMARK    4  A    between atoms: C_5  and  C_6
REMARK    5  A    between atoms: C_17  and  S_18
REMARK    6  A    between atoms: S_18  and  N_21
REMARK                            x       y       z     vdW  Elec       q    Type
REMARK                         _______ _______ _______ _____ _____    ______ ____
ROOT
ATOM      1  C   UNL     1       5.222   5.965  17.905  0.00  0.00    +0.000 A 
ATOM      2  C   UNL     1       4.747   7.280  17.922  0.00  0.00    +0.000 A 
ATOM      3  C   UNL     1       3.373   7.520  17.845  0.00  0.00    +0.000 A 
ATOM      4  C   UNL     1       2.471   6.455  17.787  0.00  0.00    +0.000 A 
ATOM      5  C   UNL     1       2.942   5.135  17.818  0.00  0.00    +0.000 A 
ATOM      6  C   UNL     1       4.321   4.888  17.834  0.00  0.00    +0.000 A 
ENDROOT
BRANCH   1   8
ATOM      7  O   UNL     1       7.085   4.698  19.200  0.00  0.00    +0.000 OA
ATOM      8  S   UNL     1       6.972   5.641  18.110  0.00  0.00    +0.000 S 
ATOM      9  O   UNL     1       7.628   6.928  18.146  0.00  0.00    +0.000 OA
BRANCH   8  10
ATOM     10  N   UNL     1       7.453   4.812  16.715  0.00  0.00    +0.000 NA
ATOM     11  H   UNL     1       7.008   3.901  16.614  0.00  0.00    +0.000 HD
BRANCH  10  12
ATOM     12  C   UNL     1       7.498   5.605  15.472  0.00  0.00    +0.000 C 
BRANCH  12  13
ATOM     13  C   UNL     1       6.935   4.877  14.276  0.00  0.00    +0.000 A 
ATOM     14  C   UNL     1       5.799   4.061  14.382  0.00  0.00    +0.000 A 
ATOM     15  C   UNL     1       5.341   3.334  13.277  0.00  0.00    +0.000 A 
ATOM     16  C   UNL     1       6.008   3.415  12.054  0.00  0.00    +0.000 A 
ATOM     17  C   UNL     1       7.132   4.230  11.934  0.00  0.00    +0.000 A 
ATOM     18  C   UNL     1       7.581   4.951  13.039  0.00  0.00    +0.000 A 
ATOM     19  F   UNL     1       8.671   5.721  12.901  0.00  0.00    +0.000 F 
ENDBRANCH  12  13
ENDBRANCH  10  12
ENDBRANCH   8  10
ENDBRANCH   1   8
BRANCH   5  20
ATOM     20  S   UNL     1       1.777   3.784  17.644  0.00  0.00    +0.000 S 
ATOM     21  O   UNL     1       0.592   4.349  17.036  0.00  0.00    +0.000 OA
ATOM     22  O   UNL     1       2.493   2.709  17.005  0.00  0.00    +0.000 OA
BRANCH  20  23
ATOM     23  N   UNL     1       1.354   3.278  19.194  0.00  0.00    +0.000 NA
ATOM     24  C   UNL     1       0.879   4.246  20.210  0.00  0.00    +0.000 C 
ATOM     25  C   UNL     1       2.042   4.707  21.093  0.00  0.00    +0.000 C 
ATOM     26  O   UNL     1       2.747   3.603  21.680  0.00  0.00    +0.000 OA
ATOM     27  C   UNL     1       3.204   2.654  20.704  0.00  0.00    +0.000 C 
ATOM     28  C   UNL     1       2.056   2.142  19.835  0.00  0.00    +0.000 C 
ENDBRANCH  20  23
ENDBRANCH   5  20
TORSDOF 6
ENDMDL
MODEL 2
REMARK VINA RESULT:      -7.9      1.238      2.135
REMARK  Name = 
REMARK  6 active torsions:
REMARK  status: ('A' for Active; 'I' for Inactive)
REMARK    1  A    between atoms: S_2  and  N_4
REMARK    2  A    between atoms: S_2  and  C_13
REMARK    3  A    between atoms: N_4  and  C_5
REMARK    4  A    between atoms: C_5  and  C_6
REMARK    5  A    between atoms: C_17  and  S_18
REMARK    6  A    between atoms: S_18  and  N_21
REMARK                            x       y       z     vdW  Elec       q    Type
REMARK                         _______ _______ _______ _____ _____    ______ ____
ROOT
ATOM      1  C   UNL     1       5.315   6.046  18.257  0.00  0.00    +0.000 A 
ATOM      2  C   UNL     1       4.779   7.059  17.456  0.00  0.00    +0.000 A 
ATOM      3  C   UNL     1       3.421   7.375  17.555  0.00  0.00    +0.000 A 
ATOM      4  C   UNL     1       2.606   6.710  18.475  0.00  0.00    +0.000 A 
ATOM      5  C   UNL     1       3.151   5.727  19.312  0.00  0.00    +0.000 A 
ATOM      6  C   UNL     1       4.498   5.363  19.175  0.00  0.00    +0.000 A 
ENDROOT
BRANCH   1   8
ATOM      7  O   UNL     1       7.329   4.764  19.282  0.00  0.00    +0.000 OA
ATOM      8  S   UNL     1       7.073   5.705  18.214  0.00  0.00    +0.000 S 
ATOM      9  O   UNL     1       7.740   6.985  18.151  0.00  0.00    +0.000 OA
BRANCH   8  10
ATOM     10  N   UNL     1       7.344   4.866  16.770  0.00  0.00    +0.000 NA
ATOM     11  H   UNL     1       6.804   4.005  16.696  0.00  0.00    +0.000 HD
BRANCH  10  12
ATOM     12  C   UNL     1       7.357   5.679  15.539  0.00  0.00    +0.000 C 
BRANCH  12  13
ATOM     13  C   UNL     1       6.847   4.940  14.327  0.00  0.00    +0.000 A 
ATOM     14  C   UNL     1       5.658   4.197  14.367  0.00  0.00    +0.000 A 
ATOM     15  C   UNL     1       5.245   3.457  13.253  0.00  0.00    +0.000 A 
ATOM     16  C   UNL     1       6.012   3.450  12.088  0.00  0.00    +0.000 A 
ATOM     17  C   UNL     1       7.190   4.192  12.033  0.00  0.00    +0.000 A 
ATOM     18  C   UNL     1       7.594   4.927  13.145  0.00  0.00    +0.000 A 
ATOM     19  F   UNL     1       8.736   5.626  13.071  0.00  0.00    +0.000 F 
ENDBRANCH  12  13
ENDBRANCH  10  12
ENDBRANCH   8  10
ENDBRANCH   1   8
BRANCH   5  20
ATOM     20  S   UNL     1       2.070   4.816  20.414  0.00  0.00    +0.000 S 
ATOM     21  O   UNL     1       2.876   4.455  21.560  0.00  0.00    +0.000 OA
ATOM     22  O   UNL     1       0.881   5.614  20.570  0.00  0.00    +0.000 OA
BRANCH  20  23
ATOM     23  N   UNL     1       1.639   3.387  19.633  0.00  0.00    +0.000 NA
ATOM     24  C   UNL     1       2.314   2.107  19.954  0.00  0.00    +0.000 C 
ATOM     25  C   UNL     1       3.460   1.848  18.973  0.00  0.00    +0.000 C 
ATOM     26  O   UNL     1       3.027   1.907  17.606  0.00  0.00    +0.000 OA
ATOM     27  C   UNL     1       2.364   3.140  17.286  0.00  0.00    +0.000 C 
ATOM     28  C   UNL     1       1.186   3.405  18.223  0.00  0.00    +0.000 C 
ENDBRANCH  20  23
ENDBRANCH   5  20
TORSDOF 6
ENDMDL
MODEL 3
REMARK VINA RESULT:      -7.8      1.553      2.507
REMARK  Name = 
REMARK  6 active torsions:
REMARK  status: ('A' for Active; 'I' for Inactive)
REMARK    1  A    between atoms: S_2  and  N_4
REMARK    2  A    between atoms: S_2  and  C_13
REMARK    3  A    between atoms: N_4  and  C_5
REMARK    4  A    between atoms: C_5  and  C_6
REMARK    5  A    between atoms: C_17  and  S_18
REMARK    6  A    between atoms: S_18  and  N_21
REMARK                            x       y       z     vdW  Elec       q    Type
REMARK                         _______ _______ _______ _____ _____    ______ ____
ROOT
ATOM      1  C   UNL     1       5.296   6.052  18.232  0.00  0.00    +0.000 A 
ATOM      2  C   UNL     1       4.739   7.055  17.433  0.00  0.00    +0.000 A 
ATOM      3  C   UNL     1       3.377   7.347  17.538  0.00  0.00    +0.000 A 
ATOM      4  C   UNL     1       2.578   6.668  18.462  0.00  0.00    +0.000 A 
ATOM      5  C   UNL     1       3.143   5.695  19.297  0.00  0.00    +0.000 A 
ATOM      6  C   UNL     1       4.495   5.355  19.154  0.00  0.00    +0.000 A 
ENDROOT
BRANCH   1   8
ATOM      7  O   UNL     1       7.343   4.839  19.276  0.00  0.00    +0.000 OA
ATOM      8  S   UNL     1       7.060   5.741  18.182  0.00  0.00    +0.000 S 
ATOM      9  O   UNL     1       7.703   7.030  18.073  0.00  0.00    +0.000 OA
BRANCH   8  10
ATOM     10  N   UNL     1       7.332   4.863  16.761  0.00  0.00    +0.000 NA
ATOM     11  H   UNL     1       6.826   3.979  16.730  0.00  0.00    +0.000 HD
BRANCH  10  12
ATOM     12  C   UNL     1       7.286   5.632  15.504  0.00  0.00    +0.000 C 
BRANCH  12  13
ATOM     13  C   UNL     1       6.829   4.817  14.319  0.00  0.00    +0.000 A 
ATOM     14  C   UNL     1       7.605   4.714  13.155  0.00  0.00    +0.000 A 
ATOM     15  C   UNL     1       7.125   4.017  12.040  0.00  0.00    +0.000 A 
ATOM     16  C   UNL     1       5.868   3.412  12.075  0.00  0.00    +0.000 A 
ATOM     17  C   UNL     1       5.092   3.499  13.229  0.00  0.00    +0.000 A 
ATOM     18  C   UNL     1       5.577   4.194  14.335  0.00  0.00    +0.000 A 
ATOM     19  F   UNL     1       4.808   4.272  15.430  0.00  0.00    +0.000 F 
ENDBRANCH  12  13
ENDBRANCH  10  12
ENDBRANCH   8  10
ENDBRANCH   1   8
BRANCH   5  20
ATOM     20  S   UNL     1       2.083   4.766  20.404  0.00  0.00    +0.000 S 
ATOM     21  O   UNL     1       2.897   4.430  21.553  0.00  0.00    +0.000 OA
ATOM     22  O   UNL     1       0.877   5.539  20.556  0.00  0.00    +0.000 OA
BRANCH  20  23
ATOM     23  N   UNL     1       1.685   3.323  19.631  0.00  0.00    +0.000 NA
ATOM     24  C   UNL     1       2.407   2.067  19.939  0.00  0.00    +0.000 C 
ATOM     25  C   UNL     1       3.542   1.845  18.936  0.00  0.00    +0.000 C 
ATOM     26  O   UNL     1       3.081   1.890  17.577  0.00  0.00    +0.000 OA
ATOM     27  C   UNL     1       2.371   3.100  17.271  0.00  0.00    +0.000 C 
ATOM     28  C   UNL     1       1.203   3.327  18.230  0.00  0.00    +0.000 C 
ENDBRANCH  20  23
ENDBRANCH   5  20
TORSDOF 6
ENDMDL
MODEL 4
REMARK VINA RESULT:      -7.6      4.522      6.852
REMARK  Name = 
REMARK  6 active torsions:
REMARK  status: ('A' for Active; 'I' for Inactive)
REMARK    1  A    between atoms: S_2  and  N_4
REMARK    2  A    between atoms: S_2  and  C_13
REMARK    3  A    between atoms: N_4  and  C_5
REMARK    4  A    between atoms: C_5  and  C_6
REMARK    5  A    between atoms: C_17  and  S_18
REMARK    6  A    between atoms: S_18  and  N_21
REMARK                            x       y       z     vdW  Elec       q    Type
REMARK                         _______ _______ _______ _____ _____    ______ ____
ROOT
ATOM      1  C   UNL     1       3.412   6.474  18.529  0.00  0.00    +0.000 A 
ATOM      2  C   UNL     1       3.090   5.997  19.803  0.00  0.00    +0.000 A 
ATOM      3  C   UNL     1       2.201   6.716  20.607  0.00  0.00    +0.000 A 
ATOM      4  C   UNL     1       1.606   7.887  20.130  0.00  0.00    +0.000 A 
ATOM      5  C   UNL     1       1.891   8.342  18.836  0.00  0.00    +0.000 A 
ATOM      6  C   UNL     1       2.827   7.659  18.048  0.00  0.00    +0.000 A 
ENDROOT
BRANCH   1   8
ATOM      7  O   UNL     1       5.512   4.962  18.288  0.00  0.00    +0.000 OA
ATOM      8  S   UNL     1       4.467   5.508  17.450  0.00  0.00    +0.000 S 
ATOM      9  O   UNL     1       4.764   6.342  16.309  0.00  0.00    +0.000 OA
BRANCH   8  10
ATOM     10  N   UNL     1       3.528   4.192  16.946  0.00  0.00    +0.000 NA
ATOM     11  H   UNL     1       3.509   4.076  15.934  0.00  0.00    +0.000 HD
BRANCH  10  12
ATOM     12  C   UNL     1       3.714   2.937  17.697  0.00  0.00    +0.000 C 
BRANCH  12  13
ATOM     13  C   UNL     1       2.851   2.843  18.930  0.00  0.00    +0.000 A 
ATOM     14  C   UNL     1       1.467   3.066  18.877  0.00  0.00    +0.000 A 
ATOM     15  C   UNL     1       0.699   3.051  20.048  0.00  0.00    +0.000 A 
ATOM     16  C   UNL     1       1.302   2.810  21.283  0.00  0.00    +0.000 A 
ATOM     17  C   UNL     1       2.674   2.577  21.348  0.00  0.00    +0.000 A 
ATOM     18  C   UNL     1       3.431   2.593  20.178  0.00  0.00    +0.000 A 
ATOM     19  F   UNL     1       4.751   2.375  20.267  0.00  0.00    +0.000 F 
ENDBRANCH  12  13
ENDBRANCH  10  12
ENDBRANCH   8  10
ENDBRANCH   1   8
BRANCH   5  20
ATOM     20  S   UNL     1       1.195   9.897  18.279  0.00  0.00    +0.000 S 
ATOM     21  O   UNL     1       2.272  10.609  17.625  0.00  0.00    +0.000 OA
ATOM     22  O   UNL     1      -0.013   9.570  17.566  0.00  0.00    +0.000 OA
BRANCH  20  23
ATOM     23  N   UNL     1       0.769  10.779  19.650  0.00  0.00    +0.000 NA
ATOM     24  C   UNL     1      -0.602  10.711  20.207  0.00  0.00    +0.000 C 
ATOM     25  C   UNL     1      -1.454  11.863  19.669  0.00  0.00    +0.000 C 
ATOM     26  O   UNL     1      -0.840  13.141  19.891  0.00  0.00    +0.000 OA
ATOM     27  C   UNL     1       0.494  13.215  19.363  0.00  0.00    +0.000 C 
ATOM     28  C   UNL     1       1.382  12.101  19.916  0.00  0.00    +0.000 C 
ENDBRANCH  20  23
ENDBRANCH   5  20
TORSDOF 6
ENDMDL
MODEL 5
REMARK VINA RESULT:      -7.5      6.546      9.459
REMARK  Name = 
REMARK  6 active torsions:
REMARK  status: ('A' for Active; 'I' for Inactive)
REMARK    1  A    between atoms: S_2  and  N_4
REMARK    2  A    between atoms: S_2  and  C_13
REMARK    3  A    between atoms: N_4  and  C_5
REMARK    4  A    between atoms: C_5  and  C_6
REMARK    5  A    between atoms: C_17  and  S_18
REMARK    6  A    between atoms: S_18  and  N_21
REMARK                            x       y       z     vdW  Elec       q    Type
REMARK                         _______ _______ _______ _____ _____    ______ ____
ROOT
ATOM      1  C   UNL     1       1.268   8.966  20.363  0.00  0.00    +0.000 A 
ATOM      2  C   UNL     1       1.024   9.797  19.266  0.00  0.00    +0.000 A 
ATOM      3  C   UNL     1       1.460   9.413  17.995  0.00  0.00    +0.000 A 
ATOM      4  C   UNL     1       2.105   8.187  17.810  0.00  0.00    +0.000 A 
ATOM      5  C   UNL     1       2.309   7.331  18.900  0.00  0.00    +0.000 A 
ATOM      6  C   UNL     1       1.929   7.737  20.186  0.00  0.00    +0.000 A 
ENDROOT
BRANCH   1   8
ATOM      7  O   UNL     1       1.747   9.362  22.885  0.00  0.00    +0.000 OA
ATOM      8  S   UNL     1       0.623   9.397  21.977  0.00  0.00    +0.000 S 
ATOM      9  O   UNL     1      -0.549   8.579  22.184  0.00  0.00    +0.000 OA
BRANCH   8  10
ATOM     10  N   UNL     1       0.155  11.020  21.866  0.00  0.00    +0.000 NA
ATOM     11  H   UNL     1       0.005  11.332  20.908  0.00  0.00    +0.000 HD
BRANCH  10  12
ATOM     12  C   UNL     1      -0.883  11.463  22.816  0.00  0.00    +0.000 C 
BRANCH  12  13
ATOM     13  C   UNL     1      -2.115  12.016  22.144  0.00  0.00    +0.000 A 
ATOM     14  C   UNL     1      -2.139  12.292  20.769  0.00  0.00    +0.000 A 
ATOM     15  C   UNL     1      -3.267  12.877  20.182  0.00  0.00    +0.000 A 
ATOM     16  C   UNL     1      -4.382  13.192  20.958  0.00  0.00    +0.000 A 
ATOM     17  C   UNL     1      -4.374  12.915  22.323  0.00  0.00    +0.000 A 
ATOM     18  C   UNL     1      -3.248  12.331  22.900  0.00  0.00    +0.000 A 
ATOM     19  F   UNL     1      -3.260  12.082  24.218  0.00  0.00    +0.000 F 
ENDBRANCH  12  13
ENDBRANCH  10  12
ENDBRANCH   8  10
ENDBRANCH   1   8
BRANCH   5  20
ATOM     20  S   UNL     1       3.225   5.809  18.660  0.00  0.00    +0.000 S 
ATOM     21  O   UNL     1       3.896   5.939  17.384  0.00  0.00    +0.000 OA
ATOM     22  O   UNL     1       3.977   5.591  19.869  0.00  0.00    +0.000 OA
BRANCH  20  23
ATOM     23  N   UNL     1       2.103   4.561  18.512  0.00  0.00    +0.000 NA
ATOM     24  C   UNL     1       1.450   3.976  19.706  0.00  0.00    +0.000 C 
ATOM     25  C   UNL     1       2.205   2.727  20.169  0.00  0.00    +0.000 C 
ATOM     26  O   UNL     1       2.366   1.769  19.112  0.00  0.00    +0.000 OA
ATOM     27  C   UNL     1       2.990   2.329  17.946  0.00  0.00    +0.000 C 
ATOM     28  C   UNL     1       2.233   3.553  17.434  0.00  0.00    +0.000 C 
ENDBRANCH  20  23
ENDBRANCH   5  20
TORSDOF 6
ENDMDL
MODEL 6
REMARK VINA RESULT:      -7.5      6.342      9.496
REMARK  Name = 
REMARK  6 active torsions:
REMARK  status: ('A' for Active; 'I' for Inactive)
REMARK    1  A    between atoms: S_2  and  N_4
REMARK    2  A    between atoms: S_2  and  C_13
REMARK    3  A    between atoms: N_4  and  C_5
REMARK    4  A    between atoms: C_5  and  C_6
REMARK    5  A    between atoms: C_17  and  S_18
REMARK    6  A    between atoms: S_18  and  N_21
REMARK                            x       y       z     vdW  Elec       q    Type
REMARK                         _______ _______ _______ _____ _____    ______ ____
ROOT
ATOM      1  C   UNL     1       1.258   8.785  20.045  0.00  0.00    +0.000 A 
ATOM      2  C   UNL     1       1.400   9.412  18.804  0.00  0.00    +0.000 A 
ATOM      3  C   UNL     1       2.140   8.790  17.794  0.00  0.00    +0.000 A 
ATOM      4  C   UNL     1       2.709   7.532  18.008  0.00  0.00    +0.000 A 
ATOM      5  C   UNL     1       2.529   6.880  19.235  0.00  0.00    +0.000 A 
ATOM      6  C   UNL     1       1.839   7.524  20.271  0.00  0.00    +0.000 A 
ENDROOT
BRANCH   1   8
ATOM      7  O   UNL     1       1.106  10.306  22.145  0.00  0.00    +0.000 OA
ATOM      8  S   UNL     1       0.225   9.521  21.309  0.00  0.00    +0.000 S 
ATOM      9  O   UNL     1      -0.588   8.456  21.849  0.00  0.00    +0.000 OA
BRANCH   8  10
ATOM     10  N   UNL     1      -0.772  10.626  20.503  0.00  0.00    +0.000 NA
ATOM     11  H   UNL     1      -1.689  10.246  20.270  0.00  0.00    +0.000 HD
BRANCH  10  12
ATOM     12  C   UNL     1      -0.806  11.993  21.055  0.00  0.00    +0.000 C 
BRANCH  12  13
ATOM     13  C   UNL     1      -2.095  12.320  21.767  0.00  0.00    +0.000 A 
ATOM     14  C   UNL     1      -2.238  12.133  23.150  0.00  0.00    +0.000 A 
ATOM     15  C   UNL     1      -3.468  12.369  23.775  0.00  0.00    +0.000 A 
ATOM     16  C   UNL     1      -4.567  12.797  23.029  0.00  0.00    +0.000 A 
ATOM     17  C   UNL     1      -4.435  12.995  21.657  0.00  0.00    +0.000 A 
ATOM     18  C   UNL     1      -3.207  12.759  21.042  0.00  0.00    +0.000 A 
ATOM     19  F   UNL     1      -3.107  12.948  19.718  0.00  0.00    +0.000 F 
ENDBRANCH  12  13
ENDBRANCH  10  12
ENDBRANCH   8  10
ENDBRANCH   1   8
BRANCH   5  20
ATOM     20  S   UNL     1       3.348   5.312  19.524  0.00  0.00    +0.000 S 
ATOM     21  O   UNL     1       4.767   5.573  19.417  0.00  0.00    +0.000 OA
ATOM     22  O   UNL     1       2.786   4.777  20.737  0.00  0.00    +0.000 OA
BRANCH  20  23
ATOM     23  N   UNL     1       2.930   4.283  18.257  0.00  0.00    +0.000 NA
ATOM     24  C   UNL     1       1.511   4.004  17.936  0.00  0.00    +0.000 C 
ATOM     25  C   UNL     1       1.051   2.718  18.626  0.00  0.00    +0.000 C 
ATOM     26  O   UNL     1       1.907   1.605  18.324  0.00  0.00    +0.000 OA
ATOM     27  C   UNL     1       3.286   1.868  18.623  0.00  0.00    +0.000 C 
ATOM     28  C   UNL     1       3.787   3.125  17.913  0.00  0.00    +0.000 C 
ENDBRANCH  20  23
ENDBRANCH   5  20
TORSDOF 6
ENDMDL
MODEL 7
REMARK VINA RESULT:      -7.4      1.596      2.567
REMARK  Name = 
REMARK  6 active torsions:
REMARK  status: ('A' for Active; 'I' for Inactive)
REMARK    1  A    between atoms: S_2  and  N_4
REMARK    2  A    between atoms: S_2  and  C_13
REMARK    3  A    between atoms: N_4  and  C_5
REMARK    4  A    between atoms: C_5  and  C_6
REMARK    5  A    between atoms: C_17  and  S_18
REMARK    6  A    between atoms: S_18  and  N_21
REMARK                            x       y       z     vdW  Elec       q    Type
REMARK                         _______ _______ _______ _____ _____    ______ ____
ROOT
ATOM      1  C   UNL     1       5.287   5.962  18.145  0.00  0.00    +0.000 A 
ATOM      2  C   UNL     1       4.813   7.099  17.485  0.00  0.00    +0.000 A 
ATOM      3  C   UNL     1       3.503   7.533  17.708  0.00  0.00    +0.000 A 
ATOM      4  C   UNL     1       2.679   6.858  18.612  0.00  0.00    +0.000 A 
ATOM      5  C   UNL     1       3.168   5.746  19.310  0.00  0.00    +0.000 A 
ATOM      6  C   UNL     1       4.459   5.270  19.046  0.00  0.00    +0.000 A 
ENDROOT
BRANCH   1   8
ATOM      7  O   UNL     1       7.412   4.932  19.228  0.00  0.00    +0.000 OA
ATOM      8  S   UNL     1       6.995   5.458  17.948  0.00  0.00    +0.000 S 
ATOM      9  O   UNL     1       7.681   6.564  17.320  0.00  0.00    +0.000 OA
BRANCH   8  10
ATOM     10  N   UNL     1       6.967   4.144  16.881  0.00  0.00    +0.000 NA
ATOM     11  H   UNL     1       7.011   3.242  17.353  0.00  0.00    +0.000 HD
BRANCH  10  12
ATOM     12  C   UNL     1       5.975   4.212  15.793  0.00  0.00    +0.000 C 
BRANCH  12  13
ATOM     13  C   UNL     1       6.592   4.407  14.430  0.00  0.00    +0.000 A 
ATOM     14  C   UNL     1       7.623   5.333  14.217  0.00  0.00    +0.000 A 
ATOM     15  C   UNL     1       8.126   5.552  12.929  0.00  0.00    +0.000 A 
ATOM     16  C   UNL     1       7.609   4.848  11.841  0.00  0.00    +0.000 A 
ATOM     17  C   UNL     1       6.592   3.918  12.042  0.00  0.00    +0.000 A 
ATOM     18  C   UNL     1       6.097   3.705  13.327  0.00  0.00    +0.000 A 
ATOM     19  F   UNL     1       5.111   2.812  13.493  0.00  0.00    +0.000 F 
ENDBRANCH  12  13
ENDBRANCH  10  12
ENDBRANCH   8  10
ENDBRANCH   1   8
BRANCH   5  20
ATOM     20  S   UNL     1       2.066   4.834  20.391  0.00  0.00    +0.000 S 
ATOM     21  O   UNL     1       2.880   4.358  21.488  0.00  0.00    +0.000 OA
ATOM     22  O   UNL     1       0.932   5.690  20.632  0.00  0.00    +0.000 OA
BRANCH  20  23
ATOM     23  N   UNL     1       1.527   3.483  19.541  0.00  0.00    +0.000 NA
ATOM     24  C   UNL     1       2.031   2.128  19.863  0.00  0.00    +0.000 C 
ATOM     25  C   UNL     1       3.201   1.762  18.947  0.00  0.00    +0.000 C 
ATOM     26  O   UNL     1       2.867   1.903  17.558  0.00  0.00    +0.000 OA
ATOM     27  C   UNL     1       2.369   3.211  17.237  0.00  0.00    +0.000 C 
ATOM     28  C   UNL     1       1.170   3.587  18.107  0.00  0.00    +0.000 C 
ENDBRANCH  20  23
ENDBRANCH   5  20
TORSDOF 6
ENDMDL
MODEL 8
REMARK VINA RESULT:      -7.3      5.437      7.970
REMARK  Name = 
REMARK  6 active torsions:
REMARK  status: ('A' for Active; 'I' for Inactive)
REMARK    1  A    between atoms: S_2  and  N_4
REMARK    2  A    between atoms: S_2  and  C_13
REMARK    3  A    between atoms: N_4  and  C_5
REMARK    4  A    between atoms: C_5  and  C_6
REMARK    5  A    between atoms: C_17  and  S_18
REMARK    6  A    between atoms: S_18  and  N_21
REMARK                            x       y       z     vdW  Elec       q    Type
REMARK                         _______ _______ _______ _____ _____    ______ ____
ROOT
ATOM      1  C   UNL     1       1.380   9.356  19.540  0.00  0.00    +0.000 A 
ATOM      2  C   UNL     1       1.785   9.815  18.283  0.00  0.00    +0.000 A 
ATOM      3  C   UNL     1       2.527   8.978  17.445  0.00  0.00    +0.000 A 
ATOM      4  C   UNL     1       2.836   7.674  17.843  0.00  0.00    +0.000 A 
ATOM      5  C   UNL     1       2.392   7.196  19.083  0.00  0.00    +0.000 A 
ATOM      6  C   UNL     1       1.700   8.050  19.952  0.00  0.00    +0.000 A 
ENDROOT
BRANCH   1   8
ATOM      7  O   UNL     1       1.211  11.366  21.177  0.00  0.00    +0.000 OA
ATOM      8  S   UNL     1       0.340  10.381  20.577  0.00  0.00    +0.000 S 
ATOM      9  O   UNL     1      -0.457   9.481  21.378  0.00  0.00    +0.000 OA
BRANCH   8  10
ATOM     10  N   UNL     1      -0.674  11.227  19.518  0.00  0.00    +0.000 NA
ATOM     11  H   UNL     1      -0.261  11.377  18.598  0.00  0.00    +0.000 HD
BRANCH  10  12
ATOM     12  C   UNL     1      -2.084  10.798  19.487  0.00  0.00    +0.000 C 
BRANCH  12  13
ATOM     13  C   UNL     1      -2.691  10.835  18.106  0.00  0.00    +0.000 A 
ATOM     14  C   UNL     1      -3.850  11.575  17.833  0.00  0.00    +0.000 A 
ATOM     15  C   UNL     1      -4.439  11.531  16.564  0.00  0.00    +0.000 A 
ATOM     16  C   UNL     1      -3.878  10.750  15.553  0.00  0.00    +0.000 A 
ATOM     17  C   UNL     1      -2.721  10.017  15.810  0.00  0.00    +0.000 A 
ATOM     18  C   UNL     1      -2.140  10.067  17.075  0.00  0.00    +0.000 A 
ATOM     19  F   UNL     1      -1.033   9.345  17.300  0.00  0.00    +0.000 F 
ENDBRANCH  12  13
ENDBRANCH  10  12
ENDBRANCH   8  10
ENDBRANCH   1   8
BRANCH   5  20
ATOM     20  S   UNL     1       2.882   5.557  19.617  0.00  0.00    +0.000 S 
ATOM     21  O   UNL     1       4.326   5.577  19.709  0.00  0.00    +0.000 OA
ATOM     22  O   UNL     1       2.075   5.245  20.769  0.00  0.00    +0.000 OA
BRANCH  20  23
ATOM     23  N   UNL     1       2.472   4.481  18.387  0.00  0.00    +0.000 NA
ATOM     24  C   UNL     1       1.235   3.670  18.462  0.00  0.00    +0.000 C 
ATOM     25  C   UNL     1       1.537   2.288  19.047  0.00  0.00    +0.000 C 
ATOM     26  O   UNL     1       2.586   1.616  18.335  0.00  0.00    +0.000 OA
ATOM     27  C   UNL     1       3.788   2.397  18.248  0.00  0.00    +0.000 C 
ATOM     28  C   UNL     1       3.525   3.768  17.627  0.00  0.00    +0.000 C 
ENDBRANCH  20  23
ENDBRANCH   5  20
TORSDOF 6
ENDMDL
MODEL 9
REMARK VINA RESULT:      -7.3      5.593      8.062
REMARK  Name = 
REMARK  6 active torsions:
REMARK  status: ('A' for Active; 'I' for Inactive)
REMARK    1  A    between atoms: S_2  and  N_4
REMARK    2  A    between atoms: S_2  and  C_13
REMARK    3  A    between atoms: N_4  and  C_5
REMARK    4  A    between atoms: C_5  and  C_6
REMARK    5  A    between atoms: C_17  and  S_18
REMARK    6  A    between atoms: S_18  and  N_21
REMARK                            x       y       z     vdW  Elec       q    Type
REMARK                         _______ _______ _______ _____ _____    ______ ____
ROOT
ATOM      1  C   UNL     1       1.467   9.155  19.861  0.00  0.00    +0.000 A 
ATOM      2  C   UNL     1       1.687   9.888  18.692  0.00  0.00    +0.000 A 
ATOM      3  C   UNL     1       2.321   9.282  17.603  0.00  0.00    +0.000 A 
ATOM      4  C   UNL     1       2.703   7.940  17.666  0.00  0.00    +0.000 A 
ATOM      5  C   UNL     1       2.442   7.189  18.820  0.00  0.00    +0.000 A 
ATOM      6  C   UNL     1       1.862   7.807  19.936  0.00  0.00    +0.000 A 
ENDROOT
BRANCH   1   8
ATOM      7  O   UNL     1       1.146  11.193  21.441  0.00  0.00    +0.000 OA
ATOM      8  S   UNL     1       0.563   9.888  21.222  0.00  0.00    +0.000 S 
ATOM      9  O   UNL     1       0.512   8.892  22.268  0.00  0.00    +0.000 OA
BRANCH   8  10
ATOM     10  N   UNL     1      -1.003  10.161  20.641  0.00  0.00    +0.000 NA
ATOM     11  H   UNL     1      -1.718  10.105  21.365  0.00  0.00    +0.000 HD
BRANCH  10  12
ATOM     12  C   UNL     1      -1.164  11.300  19.718  0.00  0.00    +0.000 C 
BRANCH  12  13
ATOM     13  C   UNL     1      -2.071  11.002  18.550  0.00  0.00    +0.000 A 
ATOM     14  C   UNL     1      -1.670  10.155  17.506  0.00  0.00    +0.000 A 
ATOM     15  C   UNL     1      -2.498   9.955  16.395  0.00  0.00    +0.000 A 
ATOM     16  C   UNL     1      -3.735  10.595  16.314  0.00  0.00    +0.000 A 
ATOM     17  C   UNL     1      -4.148  11.432  17.348  0.00  0.00    +0.000 A 
ATOM     18  C   UNL     1      -3.319  11.625  18.452  0.00  0.00    +0.000 A 
ATOM     19  F   UNL     1      -3.735  12.441  19.430  0.00  0.00    +0.000 F 
ENDBRANCH  12  13
ENDBRANCH  10  12
ENDBRANCH   8  10
ENDBRANCH   1   8
BRANCH   5  20
ATOM     20  S   UNL     1       3.028   5.498  18.918  0.00  0.00    +0.000 S 
ATOM     21  O   UNL     1       3.140   5.031  17.553  0.00  0.00    +0.000 OA
ATOM     22  O   UNL     1       4.175   5.515  19.789  0.00  0.00    +0.000 OA
BRANCH  20  23
ATOM     23  N   UNL     1       1.821   4.588  19.662  0.00  0.00    +0.000 NA
ATOM     24  C   UNL     1       1.898   4.250  21.102  0.00  0.00    +0.000 C 
ATOM     25  C   UNL     1       2.525   2.867  21.293  0.00  0.00    +0.000 C 
ATOM     26  O   UNL     1       1.850   1.855  20.532  0.00  0.00    +0.000 OA
ATOM     27  C   UNL     1       1.762   2.178  19.135  0.00  0.00    +0.000 C 
ATOM     28  C   UNL     1       1.098   3.536  18.910  0.00  0.00    +0.000 C 
ENDBRANCH  20  23
ENDBRANCH   5  20
TORSDOF 6
ENDMDL
