MODEL 1
REMARK VINA RESULT:      -6.3      0.000      0.000
REMARK  Name = 
REMARK  15 active torsions:
REMARK  status: ('A' for Active; 'I' for Inactive)
REMARK    1  A    between atoms: C_1  and  C_2
REMARK    2  A    between atoms: C_2  and  C_3
REMARK    3  A    between atoms: C_3  and  O_4
REMARK    4  A    between atoms: O_4  and  C_5
REMARK    5  A    between atoms: C_5  and  C_7
REMARK    6  A    between atoms: C_8  and  C_9
REMARK    7  A    between atoms: C_10  and  C_11
REMARK    8  A    between atoms: C_11  and  O_13
REMARK    9  A    between atoms: O_13  and  C_14
REMARK   10  A    between atoms: C_14  and  C_15
REMARK   11  A    between atoms: C_14  and  C_16
REMARK   12  A    between atoms: C_14  and  C_17
REMARK   13  A    between atoms: C_18  and  C_19
REMARK   14  A    between atoms: N_20  and  C_21
REMARK   15  A    between atoms: C_21  and  N_22
REMARK                            x       y       z     vdW  Elec       q    Type
REMARK                         _______ _______ _______ _____ _____    ______ ____
ROOT
ATOM      1  C   UNL     1       6.334   6.181  17.609  0.00  0.00    +0.000 A 
ATOM      2  C   UNL     1       6.217   5.407  18.790  0.00  0.00    +0.000 A 
ATOM      3  C   UNL     1       7.155   5.379  19.945  0.00  0.00    +0.000 C 
ATOM      4  C   UNL     1       5.051   4.543  18.699  0.00  0.00    +0.000 A 
ATOM      5  C   UNL     1       4.479   4.784  17.463  0.00  0.00    +0.000 A 
ATOM      6  C   UNL     1       3.239   4.196  16.830  0.00  0.00    +0.000 C 
ATOM      7  N   UNL     1       5.312   5.667  16.767  0.00  0.00    +0.000 N 
ENDROOT
BRANCH   1   8
ATOM      8  C   UNL     1       7.363   7.213  17.216  0.00  0.00    +0.000 C 
ATOM      9  O   UNL     1       8.227   7.027  16.367  0.00  0.00    +0.000 OA
BRANCH   8  10
ATOM     10  O   UNL     1       7.273   8.405  17.927  0.00  0.00    +0.000 OA
BRANCH  10  11
ATOM     11  C   UNL     1       8.294   9.490  17.837  0.00  0.00    +0.000 C 
BRANCH  11  13
ATOM     12  C   UNL     1       9.972  11.081  19.130  0.00  0.00    +0.000 C 
ATOM     13  C   UNL     1       9.078   9.819  19.132  0.00  0.00    +0.000 C 
ENDBRANCH  11  13
ENDBRANCH  10  11
ENDBRANCH   8  10
ENDBRANCH   1   8
BRANCH   4  14
ATOM     14  C   UNL     1       4.524   3.526  19.662  0.00  0.00    +0.000 C 
ATOM     15  O   UNL     1       5.048   2.442  19.829  0.00  0.00    +0.000 OA
BRANCH  14  16
ATOM     16  O   UNL     1       3.417   3.943  20.333  0.00  0.00    +0.000 OA
BRANCH  16  17
ATOM     17  C   UNL     1       2.219   3.107  20.359  0.00  0.00    +0.000 C 
ATOM     18  C   UNL     1       1.988   2.457  21.731  0.00  0.00    +0.000 C 
ATOM     19  C   UNL     1       1.059   4.077  20.082  0.00  0.00    +0.000 C 
ATOM     20  C   UNL     1       2.234   2.055  19.243  0.00  0.00    +0.000 C 
ENDBRANCH  16  17
ENDBRANCH  14  16
ENDBRANCH   4  14
BRANCH   7  21
ATOM     21  C   UNL     1       5.164   5.803  15.302  0.00  0.00    +0.000 C 
BRANCH  21  22
ATOM     22  N   UNL     1       6.075   4.859  14.611  0.00  0.00    +0.000 NA
ATOM     23  C   UNL     1       5.272   3.990  13.750  0.00  0.00    +0.000 C 
ATOM     24  C   UNL     1       6.044   3.189  12.708  0.00  0.00    +0.000 C 
ATOM     25  C   UNL     1       7.030   4.053  11.942  0.00  0.00    +0.000 C 
ATOM     26  C   UNL     1       7.953   4.758  12.920  0.00  0.00    +0.000 C 
ATOM     27  C   UNL     1       7.140   5.601  13.907  0.00  0.00    +0.000 C 
ENDBRANCH  21  22
ENDBRANCH   7  21
TORSDOF 9
ENDMDL
MODEL 2
REMARK VINA RESULT:      -6.2      3.316      7.739
REMARK  Name = 
REMARK  15 active torsions:
REMARK  status: ('A' for Active; 'I' for Inactive)
REMARK    1  A    between atoms: C_1  and  C_2
REMARK    2  A    between atoms: C_2  and  C_3
REMARK    3  A    between atoms: C_3  and  O_4
REMARK    4  A    between atoms: O_4  and  C_5
REMARK    5  A    between atoms: C_5  and  C_7
REMARK    6  A    between atoms: C_8  and  C_9
REMARK    7  A    between atoms: C_10  and  C_11
REMARK    8  A    between atoms: C_11  and  O_13
REMARK    9  A    between atoms: O_13  and  C_14
REMARK   10  A    between atoms: C_14  and  C_15
REMARK   11  A    between atoms: C_14  and  C_16
REMARK   12  A    between atoms: C_14  and  C_17
REMARK   13  A    between atoms: C_18  and  C_19
REMARK   14  A    between atoms: N_20  and  C_21
REMARK   15  A    between atoms: C_21  and  N_22
REMARK                            x       y       z     vdW  Elec       q    Type
REMARK                         _______ _______ _______ _____ _____    ______ ____
ROOT
ATOM      1  C   UNL     1       2.889   5.486  19.385  0.00  0.00    +0.000 A 
ATOM      2  C   UNL     1       4.249   5.387  19.000  0.00  0.00    +0.000 A 
ATOM      3  C   UNL     1       5.272   4.451  19.539  0.00  0.00    +0.000 C 
ATOM      4  C   UNL     1       4.558   6.414  18.018  0.00  0.00    +0.000 A 
ATOM      5  C   UNL     1       3.396   7.137  17.826  0.00  0.00    +0.000 A 
ATOM      6  C   UNL     1       3.112   8.304  16.909  0.00  0.00    +0.000 C 
ATOM      7  N   UNL     1       2.438   6.663  18.730  0.00  0.00    +0.000 N 
ENDROOT
BRANCH   1   8
ATOM      8  C   UNL     1       2.090   4.663  20.366  0.00  0.00    +0.000 C 
ATOM      9  O   UNL     1       2.385   4.533  21.548  0.00  0.00    +0.000 OA
BRANCH   8  10
ATOM     10  O   UNL     1       0.987   4.025  19.808  0.00  0.00    +0.000 OA
BRANCH  10  11
ATOM     11  C   UNL     1       1.099   2.910  18.823  0.00  0.00    +0.000 C 
BRANCH  11  13
ATOM     12  C   UNL     1       3.341   1.788  17.968  0.00  0.00    +0.000 C 
ATOM     13  C   UNL     1       2.242   1.890  19.051  0.00  0.00    +0.000 C 
ENDBRANCH  11  13
ENDBRANCH  10  11
ENDBRANCH   8  10
ENDBRANCH   1   8
BRANCH   4  14
ATOM     14  C   UNL     1       5.850   6.743  17.337  0.00  0.00    +0.000 C 
ATOM     15  O   UNL     1       6.768   7.305  17.901  0.00  0.00    +0.000 OA
BRANCH  14  16
ATOM     16  O   UNL     1       5.893   6.337  16.040  0.00  0.00    +0.000 OA
BRANCH  16  17
ATOM     17  C   UNL     1       6.432   5.021  15.702  0.00  0.00    +0.000 C 
ATOM     18  C   UNL     1       7.413   4.501  16.763  0.00  0.00    +0.000 C 
ATOM     19  C   UNL     1       5.208   4.091  15.677  0.00  0.00    +0.000 C 
ATOM     20  C   UNL     1       7.067   5.007  14.305  0.00  0.00    +0.000 C 
ENDBRANCH  16  17
ENDBRANCH  14  16
ENDBRANCH   4  14
BRANCH   7  21
ATOM     21  C   UNL     1       1.244   7.484  19.021  0.00  0.00    +0.000 C 
BRANCH  21  22
ATOM     22  N   UNL     1       1.574   8.522  20.026  0.00  0.00    +0.000 NA
ATOM     23  C   UNL     1       0.993   9.791  19.588  0.00  0.00    +0.000 C 
ATOM     24  C   UNL     1       0.928  10.892  20.640  0.00  0.00    +0.000 C 
ATOM     25  C   UNL     1       0.358  10.389  21.955  0.00  0.00    +0.000 C 
ATOM     26  C   UNL     1       1.161   9.191  22.430  0.00  0.00    +0.000 C 
ATOM     27  C   UNL     1       1.145   8.085  21.370  0.00  0.00    +0.000 C 
ENDBRANCH  21  22
ENDBRANCH   7  21
TORSDOF 9
ENDMDL
MODEL 3
REMARK VINA RESULT:      -6.1      1.836      2.878
REMARK  Name = 
REMARK  15 active torsions:
REMARK  status: ('A' for Active; 'I' for Inactive)
REMARK    1  A    between atoms: C_1  and  C_2
REMARK    2  A    between atoms: C_2  and  C_3
REMARK    3  A    between atoms: C_3  and  O_4
REMARK    4  A    between atoms: O_4  and  C_5
REMARK    5  A    between atoms: C_5  and  C_7
REMARK    6  A    between atoms: C_8  and  C_9
REMARK    7  A    between atoms: C_10  and  C_11
REMARK    8  A    between atoms: C_11  and  O_13
REMARK    9  A    between atoms: O_13  and  C_14
REMARK   10  A    between atoms: C_14  and  C_15
REMARK   11  A    between atoms: C_14  and  C_16
REMARK   12  A    between atoms: C_14  and  C_17
REMARK   13  A    between atoms: C_18  and  C_19
REMARK   14  A    between atoms: N_20  and  C_21
REMARK   15  A    between atoms: C_21  and  N_22
REMARK                            x       y       z     vdW  Elec       q    Type
REMARK                         _______ _______ _______ _____ _____    ______ ____
ROOT
ATOM      1  C   UNL     1       4.263   5.889  16.839  0.00  0.00    +0.000 A 
ATOM      2  C   UNL     1       3.187   5.875  17.762  0.00  0.00    +0.000 A 
ATOM      3  C   UNL     1       2.694   7.009  18.588  0.00  0.00    +0.000 C 
ATOM      4  C   UNL     1       2.647   4.529  17.866  0.00  0.00    +0.000 A 
ATOM      5  C   UNL     1       3.402   3.735  17.022  0.00  0.00    +0.000 A 
ATOM      6  C   UNL     1       3.287   2.263  16.704  0.00  0.00    +0.000 C 
ATOM      7  N   UNL     1       4.440   4.520  16.507  0.00  0.00    +0.000 N 
ENDROOT
BRANCH   1   8
ATOM      8  C   UNL     1       5.146   7.027  16.388  0.00  0.00    +0.000 C 
ATOM      9  O   UNL     1       5.142   7.486  15.252  0.00  0.00    +0.000 OA
BRANCH   8  10
ATOM     10  O   UNL     1       6.005   7.505  17.373  0.00  0.00    +0.000 OA
BRANCH  10  11
ATOM     11  C   UNL     1       7.419   7.050  17.516  0.00  0.00    +0.000 C 
BRANCH  11  13
ATOM     12  C   UNL     1       6.583   5.382  19.397  0.00  0.00    +0.000 C 
ATOM     13  C   UNL     1       7.658   5.770  18.355  0.00  0.00    +0.000 C 
ENDBRANCH  11  13
ENDBRANCH  10  11
ENDBRANCH   8  10
ENDBRANCH   1   8
BRANCH   4  14
ATOM     14  C   UNL     1       1.541   3.995  18.720  0.00  0.00    +0.000 C 
ATOM     15  O   UNL     1       0.479   3.615  18.265  0.00  0.00    +0.000 OA
BRANCH  14  16
ATOM     16  O   UNL     1       1.850   3.966  20.045  0.00  0.00    +0.000 OA
BRANCH  16  17
ATOM     17  C   UNL     1       2.303   2.721  20.663  0.00  0.00    +0.000 C 
ATOM     18  C   UNL     1       1.756   2.541  22.086  0.00  0.00    +0.000 C 
ATOM     19  C   UNL     1       1.720   1.609  19.776  0.00  0.00    +0.000 C 
ATOM     20  C   UNL     1       3.832   2.596  20.636  0.00  0.00    +0.000 C 
ENDBRANCH  16  17
ENDBRANCH  14  16
ENDBRANCH   4  14
BRANCH   7  21
ATOM     21  C   UNL     1       5.613   3.862  15.892  0.00  0.00    +0.000 C 
BRANCH  21  22
ATOM     22  N   UNL     1       5.783   4.328  14.495  0.00  0.00    +0.000 NA
ATOM     23  C   UNL     1       7.169   4.762  14.320  0.00  0.00    +0.000 C 
ATOM     24  C   UNL     1       7.629   4.952  12.879  0.00  0.00    +0.000 C 
ATOM     25  C   UNL     1       7.249   3.773  12.000  0.00  0.00    +0.000 C 
ATOM     26  C   UNL     1       5.753   3.531  12.096  0.00  0.00    +0.000 C 
ATOM     27  C   UNL     1       5.346   3.281  13.551  0.00  0.00    +0.000 C 
ENDBRANCH  21  22
ENDBRANCH   7  21
TORSDOF 9
ENDMDL
MODEL 4
REMARK VINA RESULT:      -6.1      8.957     11.213
REMARK  Name = 
REMARK  15 active torsions:
REMARK  status: ('A' for Active; 'I' for Inactive)
REMARK    1  A    between atoms: C_1  and  C_2
REMARK    2  A    between atoms: C_2  and  C_3
REMARK    3  A    between atoms: C_3  and  O_4
REMARK    4  A    between atoms: O_4  and  C_5
REMARK    5  A    between atoms: C_5  and  C_7
REMARK    6  A    between atoms: C_8  and  C_9
REMARK    7  A    between atoms: C_10  and  C_11
REMARK    8  A    between atoms: C_11  and  O_13
REMARK    9  A    between atoms: O_13  and  C_14
REMARK   10  A    between atoms: C_14  and  C_15
REMARK   11  A    between atoms: C_14  and  C_16
REMARK   12  A    between atoms: C_14  and  C_17
REMARK   13  A    between atoms: C_18  and  C_19
REMARK   14  A    between atoms: N_20  and  C_21
REMARK   15  A    between atoms: C_21  and  N_22
REMARK                            x       y       z     vdW  Elec       q    Type
REMARK                         _______ _______ _______ _____ _____    ______ ____
ROOT
ATOM      1  C   UNL     1      -1.390  11.893  19.883  0.00  0.00    +0.000 A 
ATOM      2  C   UNL     1      -2.362  12.469  20.739  0.00  0.00    +0.000 A 
ATOM      3  C   UNL     1      -3.414  13.454  20.372  0.00  0.00    +0.000 C 
ATOM      4  C   UNL     1      -2.145  12.015  22.103  0.00  0.00    +0.000 A 
ATOM      5  C   UNL     1      -1.040  11.185  22.071  0.00  0.00    +0.000 A 
ATOM      6  C   UNL     1      -0.368  10.411  23.181  0.00  0.00    +0.000 C 
ATOM      7  N   UNL     1      -0.519  11.211  20.772  0.00  0.00    +0.000 N 
ENDROOT
BRANCH   1   8
ATOM      8  C   UNL     1      -1.185  12.049  18.395  0.00  0.00    +0.000 C 
ATOM      9  O   UNL     1      -0.785  13.078  17.864  0.00  0.00    +0.000 OA
BRANCH   8  10
ATOM     10  O   UNL     1      -1.522  10.921  17.654  0.00  0.00    +0.000 OA
BRANCH  10  11
ATOM     11  C   UNL     1      -2.901  10.352  17.610  0.00  0.00    +0.000 C 
BRANCH  11  13
ATOM     12  C   UNL     1      -5.403  11.113  18.032  0.00  0.00    +0.000 C 
ATOM     13  C   UNL     1      -4.054  11.342  17.312  0.00  0.00    +0.000 C 
ENDBRANCH  11  13
ENDBRANCH  10  11
ENDBRANCH   8  10
ENDBRANCH   1   8
BRANCH   4  14
ATOM     14  C   UNL     1      -2.873  12.361  23.364  0.00  0.00    +0.000 C 
ATOM     15  O   UNL     1      -3.863  11.763  23.739  0.00  0.00    +0.000 OA
BRANCH  14  16
ATOM     16  O   UNL     1      -2.310  13.394  24.045  0.00  0.00    +0.000 OA
BRANCH  16  17
ATOM     17  C   UNL     1      -2.934  14.715  24.020  0.00  0.00    +0.000 C 
ATOM     18  C   UNL     1      -4.427  14.650  23.664  0.00  0.00    +0.000 C 
ATOM     19  C   UNL     1      -2.803  15.239  25.459  0.00  0.00    +0.000 C 
ATOM     20  C   UNL     1      -2.185  15.682  23.094  0.00  0.00    +0.000 C 
ENDBRANCH  16  17
ENDBRANCH  14  16
ENDBRANCH   4  14
BRANCH   7  21
ATOM     21  C   UNL     1       0.861  10.735  20.534  0.00  0.00    +0.000 C 
BRANCH  21  22
ATOM     22  N   UNL     1       0.833   9.405  19.880  0.00  0.00    +0.000 NA
ATOM     23  C   UNL     1       1.472   9.521  18.570  0.00  0.00    +0.000 C 
ATOM     24  C   UNL     1       1.847   8.207  17.893  0.00  0.00    +0.000 C 
ATOM     25  C   UNL     1       2.575   7.268  18.838  0.00  0.00    +0.000 C 
ATOM     26  C   UNL     1       1.735   7.051  20.084  0.00  0.00    +0.000 C 
ATOM     27  C   UNL     1       1.436   8.389  20.766  0.00  0.00    +0.000 C 
ENDBRANCH  21  22
ENDBRANCH   7  21
TORSDOF 9
ENDMDL
MODEL 5
REMARK VINA RESULT:      -5.9      0.589      1.009
REMARK  Name = 
REMARK  15 active torsions:
REMARK  status: ('A' for Active; 'I' for Inactive)
REMARK    1  A    between atoms: C_1  and  C_2
REMARK    2  A    between atoms: C_2  and  C_3
REMARK    3  A    between atoms: C_3  and  O_4
REMARK    4  A    between atoms: O_4  and  C_5
REMARK    5  A    between atoms: C_5  and  C_7
REMARK    6  A    between atoms: C_8  and  C_9
REMARK    7  A    between atoms: C_10  and  C_11
REMARK    8  A    between atoms: C_11  and  O_13
REMARK    9  A    between atoms: O_13  and  C_14
REMARK   10  A    between atoms: C_14  and  C_15
REMARK   11  A    between atoms: C_14  and  C_16
REMARK   12  A    between atoms: C_14  and  C_17
REMARK   13  A    between atoms: C_18  and  C_19
REMARK   14  A    between atoms: N_20  and  C_21
REMARK   15  A    between atoms: C_21  and  N_22
REMARK                            x       y       z     vdW  Elec       q    Type
REMARK                         _______ _______ _______ _____ _____    ______ ____
ROOT
ATOM      1  C   UNL     1       6.303   5.858  17.539  0.00  0.00    +0.000 A 
ATOM      2  C   UNL     1       6.179   5.029  18.682  0.00  0.00    +0.000 A 
ATOM      3  C   UNL     1       7.110   4.945  19.839  0.00  0.00    +0.000 C 
ATOM      4  C   UNL     1       5.012   4.172  18.543  0.00  0.00    +0.000 A 
ATOM      5  C   UNL     1       4.448   4.472  17.317  0.00  0.00    +0.000 A 
ATOM      6  C   UNL     1       3.211   3.916  16.650  0.00  0.00    +0.000 C 
ATOM      7  N   UNL     1       5.286   5.386  16.668  0.00  0.00    +0.000 N 
ENDROOT
BRANCH   1   8
ATOM      8  C   UNL     1       7.336   6.906  17.201  0.00  0.00    +0.000 C 
ATOM      9  O   UNL     1       8.075   6.847  16.226  0.00  0.00    +0.000 OA
BRANCH   8  10
ATOM     10  O   UNL     1       7.407   7.950  18.118  0.00  0.00    +0.000 OA
BRANCH  10  11
ATOM     11  C   UNL     1       8.054   9.260  17.816  0.00  0.00    +0.000 C 
BRANCH  11  13
ATOM     12  C   UNL     1       9.855  11.068  18.529  0.00  0.00    +0.000 C 
ATOM     13  C   UNL     1       8.984   9.847  18.906  0.00  0.00    +0.000 C 
ENDBRANCH  11  13
ENDBRANCH  10  11
ENDBRANCH   8  10
ENDBRANCH   1   8
BRANCH   4  14
ATOM     14  C   UNL     1       4.479   3.111  19.453  0.00  0.00    +0.000 C 
ATOM     15  O   UNL     1       5.182   2.491  20.227  0.00  0.00    +0.000 OA
BRANCH  14  16
ATOM     16  O   UNL     1       3.136   2.927  19.337  0.00  0.00    +0.000 OA
BRANCH  16  17
ATOM     17  C   UNL     1       2.225   3.558  20.289  0.00  0.00    +0.000 C 
ATOM     18  C   UNL     1       0.756   3.442  19.859  0.00  0.00    +0.000 C 
ATOM     19  C   UNL     1       2.411   2.764  21.593  0.00  0.00    +0.000 C 
ATOM     20  C   UNL     1       2.610   5.017  20.564  0.00  0.00    +0.000 C 
ENDBRANCH  16  17
ENDBRANCH  14  16
ENDBRANCH   4  14
BRANCH   7  21
ATOM     21  C   UNL     1       5.147   5.591  15.210  0.00  0.00    +0.000 C 
BRANCH  21  22
ATOM     22  N   UNL     1       6.035   4.656  14.479  0.00  0.00    +0.000 NA
ATOM     23  C   UNL     1       5.216   3.867  13.560  0.00  0.00    +0.000 C 
ATOM     24  C   UNL     1       5.976   3.098  12.484  0.00  0.00    +0.000 C 
ATOM     25  C   UNL     1       7.004   3.969  11.783  0.00  0.00    +0.000 C 
ATOM     26  C   UNL     1       7.935   4.583  12.813  0.00  0.00    +0.000 C 
ATOM     27  C   UNL     1       7.136   5.398  13.835  0.00  0.00    +0.000 C 
ENDBRANCH  21  22
ENDBRANCH   7  21
TORSDOF 9
ENDMDL
MODEL 6
REMARK VINA RESULT:      -5.8      1.633      2.433
REMARK  Name = 
REMARK  15 active torsions:
REMARK  status: ('A' for Active; 'I' for Inactive)
REMARK    1  A    between atoms: C_1  and  C_2
REMARK    2  A    between atoms: C_2  and  C_3
REMARK    3  A    between atoms: C_3  and  O_4
REMARK    4  A    between atoms: O_4  and  C_5
REMARK    5  A    between atoms: C_5  and  C_7
REMARK    6  A    between atoms: C_8  and  C_9
REMARK    7  A    between atoms: C_10  and  C_11
REMARK    8  A    between atoms: C_11  and  O_13
REMARK    9  A    between atoms: O_13  and  C_14
REMARK   10  A    between atoms: C_14  and  C_15
REMARK   11  A    between atoms: C_14  and  C_16
REMARK   12  A    between atoms: C_14  and  C_17
REMARK   13  A    between atoms: C_18  and  C_19
REMARK   14  A    between atoms: N_20  and  C_21
REMARK   15  A    between atoms: C_21  and  N_22
REMARK                            x       y       z     vdW  Elec       q    Type
REMARK                         _______ _______ _______ _____ _____    ______ ____
ROOT
ATOM      1  C   UNL     1       4.351   5.849  16.982  0.00  0.00    +0.000 A 
ATOM      2  C   UNL     1       3.259   5.833  17.885  0.00  0.00    +0.000 A 
ATOM      3  C   UNL     1       2.821   6.932  18.787  0.00  0.00    +0.000 C 
ATOM      4  C   UNL     1       2.634   4.520  17.878  0.00  0.00    +0.000 A 
ATOM      5  C   UNL     1       3.355   3.746  16.988  0.00  0.00    +0.000 A 
ATOM      6  C   UNL     1       3.155   2.311  16.558  0.00  0.00    +0.000 C 
ATOM      7  N   UNL     1       4.449   4.500  16.549  0.00  0.00    +0.000 N 
ENDROOT
BRANCH   1   8
ATOM      8  C   UNL     1       5.312   6.959  16.632  0.00  0.00    +0.000 C 
ATOM      9  O   UNL     1       5.298   7.564  15.567  0.00  0.00    +0.000 OA
BRANCH   8  10
ATOM     10  O   UNL     1       6.255   7.228  17.619  0.00  0.00    +0.000 OA
BRANCH  10  11
ATOM     11  C   UNL     1       7.634   7.715  17.322  0.00  0.00    +0.000 C 
BRANCH  11  13
ATOM     12  C   UNL     1       8.752   9.914  18.288  0.00  0.00    +0.000 C 
ATOM     13  C   UNL     1       8.387   8.423  18.475  0.00  0.00    +0.000 C 
ENDBRANCH  11  13
ENDBRANCH  10  11
ENDBRANCH   8  10
ENDBRANCH   1   8
BRANCH   4  14
ATOM     14  C   UNL     1       1.481   3.995  18.674  0.00  0.00    +0.000 C 
ATOM     15  O   UNL     1       0.437   3.635  18.164  0.00  0.00    +0.000 OA
BRANCH  14  16
ATOM     16  O   UNL     1       1.725   3.949  20.011  0.00  0.00    +0.000 OA
BRANCH  16  17
ATOM     17  C   UNL     1       2.238   2.723  20.619  0.00  0.00    +0.000 C 
ATOM     18  C   UNL     1       1.720   2.519  22.050  0.00  0.00    +0.000 C 
ATOM     19  C   UNL     1       1.687   1.589  19.739  0.00  0.00    +0.000 C 
ATOM     20  C   UNL     1       3.770   2.661  20.569  0.00  0.00    +0.000 C 
ENDBRANCH  16  17
ENDBRANCH  14  16
ENDBRANCH   4  14
BRANCH   7  21
ATOM     21  C   UNL     1       5.591   3.816  15.903  0.00  0.00    +0.000 C 
BRANCH  21  22
ATOM     22  N   UNL     1       5.763   4.314  14.518  0.00  0.00    +0.000 NA
ATOM     23  C   UNL     1       7.146   4.761  14.357  0.00  0.00    +0.000 C 
ATOM     24  C   UNL     1       7.611   4.986  12.922  0.00  0.00    +0.000 C 
ATOM     25  C   UNL     1       7.243   3.823  12.017  0.00  0.00    +0.000 C 
ATOM     26  C   UNL     1       5.748   3.569  12.102  0.00  0.00    +0.000 C 
ATOM     27  C   UNL     1       5.337   3.285  13.550  0.00  0.00    +0.000 C 
ENDBRANCH  21  22
ENDBRANCH   7  21
TORSDOF 9
ENDMDL
MODEL 7
REMARK VINA RESULT:      -5.8      4.714      7.369
REMARK  Name = 
REMARK  15 active torsions:
REMARK  status: ('A' for Active; 'I' for Inactive)
REMARK    1  A    between atoms: C_1  and  C_2
REMARK    2  A    between atoms: C_2  and  C_3
REMARK    3  A    between atoms: C_3  and  O_4
REMARK    4  A    between atoms: O_4  and  C_5
REMARK    5  A    between atoms: C_5  and  C_7
REMARK    6  A    between atoms: C_8  and  C_9
REMARK    7  A    between atoms: C_10  and  C_11
REMARK    8  A    between atoms: C_11  and  O_13
REMARK    9  A    between atoms: O_13  and  C_14
REMARK   10  A    between atoms: C_14  and  C_15
REMARK   11  A    between atoms: C_14  and  C_16
REMARK   12  A    between atoms: C_14  and  C_17
REMARK   13  A    between atoms: C_18  and  C_19
REMARK   14  A    between atoms: N_20  and  C_21
REMARK   15  A    between atoms: C_21  and  N_22
REMARK                            x       y       z     vdW  Elec       q    Type
REMARK                         _______ _______ _______ _____ _____    ______ ____
ROOT
ATOM      1  C   UNL     1       1.884   7.012  20.077  0.00  0.00    +0.000 A 
ATOM      2  C   UNL     1       1.144   8.015  20.751  0.00  0.00    +0.000 A 
ATOM      3  C   UNL     1       0.397   7.875  22.030  0.00  0.00    +0.000 C 
ATOM      4  C   UNL     1       1.139   9.236  19.962  0.00  0.00    +0.000 A 
ATOM      5  C   UNL     1       1.858   8.965  18.813  0.00  0.00    +0.000 A 
ATOM      6  C   UNL     1       2.203   9.859  17.644  0.00  0.00    +0.000 C 
ATOM      7  N   UNL     1       2.196   7.607  18.826  0.00  0.00    +0.000 N 
ENDROOT
BRANCH   1   8
ATOM      8  C   UNL     1       2.180   5.586  20.472  0.00  0.00    +0.000 C 
ATOM      9  O   UNL     1       3.309   5.150  20.665  0.00  0.00    +0.000 OA
BRANCH   8  10
ATOM     10  O   UNL     1       1.052   4.777  20.572  0.00  0.00    +0.000 OA
BRANCH  10  11
ATOM     11  C   UNL     1       1.106   3.347  20.995  0.00  0.00    +0.000 C 
BRANCH  11  13
ATOM     12  C   UNL     1       1.145   2.728  18.420  0.00  0.00    +0.000 C 
ATOM     13  C   UNL     1       1.384   2.302  19.887  0.00  0.00    +0.000 C 
ENDBRANCH  11  13
ENDBRANCH  10  11
ENDBRANCH   8  10
ENDBRANCH   1   8
BRANCH   4  14
ATOM     14  C   UNL     1       0.475  10.552  20.222  0.00  0.00    +0.000 C 
ATOM     15  O   UNL     1       1.079  11.530  20.616  0.00  0.00    +0.000 OA
BRANCH  14  16
ATOM     16  O   UNL     1      -0.860  10.542  19.960  0.00  0.00    +0.000 OA
BRANCH  16  17
ATOM     17  C   UNL     1      -1.386  11.281  18.814  0.00  0.00    +0.000 C 
ATOM     18  C   UNL     1      -0.424  12.379  18.335  0.00  0.00    +0.000 C 
ATOM     19  C   UNL     1      -1.518  10.232  17.698  0.00  0.00    +0.000 C 
ATOM     20  C   UNL     1      -2.782  11.852  19.096  0.00  0.00    +0.000 C 
ENDBRANCH  16  17
ENDBRANCH  14  16
ENDBRANCH   4  14
BRANCH   7  21
ATOM     21  C   UNL     1       2.623   6.953  17.570  0.00  0.00    +0.000 C 
BRANCH  21  22
ATOM     22  N   UNL     1       3.953   6.325  17.752  0.00  0.00    +0.000 NA
ATOM     23  C   UNL     1       3.884   4.948  17.263  0.00  0.00    +0.000 C 
ATOM     24  C   UNL     1       5.222   4.249  17.048  0.00  0.00    +0.000 C 
ATOM     25  C   UNL     1       6.197   5.117  16.272  0.00  0.00    +0.000 C 
ATOM     26  C   UNL     1       6.356   6.453  16.974  0.00  0.00    +0.000 C 
ATOM     27  C   UNL     1       4.998   7.148  17.112  0.00  0.00    +0.000 C 
ENDBRANCH  21  22
ENDBRANCH   7  21
TORSDOF 9
ENDMDL
MODEL 8
REMARK VINA RESULT:      -5.7      2.974      5.681
REMARK  Name = 
REMARK  15 active torsions:
REMARK  status: ('A' for Active; 'I' for Inactive)
REMARK    1  A    between atoms: C_1  and  C_2
REMARK    2  A    between atoms: C_2  and  C_3
REMARK    3  A    between atoms: C_3  and  O_4
REMARK    4  A    between atoms: O_4  and  C_5
REMARK    5  A    between atoms: C_5  and  C_7
REMARK    6  A    between atoms: C_8  and  C_9
REMARK    7  A    between atoms: C_10  and  C_11
REMARK    8  A    between atoms: C_11  and  O_13
REMARK    9  A    between atoms: O_13  and  C_14
REMARK   10  A    between atoms: C_14  and  C_15
REMARK   11  A    between atoms: C_14  and  C_16
REMARK   12  A    between atoms: C_14  and  C_17
REMARK   13  A    between atoms: C_18  and  C_19
REMARK   14  A    between atoms: N_20  and  C_21
REMARK   15  A    between atoms: C_21  and  N_22
REMARK                            x       y       z     vdW  Elec       q    Type
REMARK                         _______ _______ _______ _____ _____    ______ ____
ROOT
ATOM      1  C   UNL     1       3.676   4.347  17.942  0.00  0.00    +0.000 A 
ATOM      2  C   UNL     1       2.709   5.370  18.108  0.00  0.00    +0.000 A 
ATOM      3  C   UNL     1       1.262   5.202  18.406  0.00  0.00    +0.000 C 
ATOM      4  C   UNL     1       3.320   6.667  17.863  0.00  0.00    +0.000 A 
ATOM      5  C   UNL     1       4.641   6.425  17.536  0.00  0.00    +0.000 A 
ATOM      6  C   UNL     1       5.758   7.388  17.205  0.00  0.00    +0.000 C 
ATOM      7  N   UNL     1       4.820   5.038  17.464  0.00  0.00    +0.000 N 
ENDROOT
BRANCH   1   8
ATOM      8  C   UNL     1       3.545   2.850  18.080  0.00  0.00    +0.000 C 
ATOM      9  O   UNL     1       2.770   2.168  17.421  0.00  0.00    +0.000 OA
BRANCH   8  10
ATOM     10  O   UNL     1       4.367   2.294  19.056  0.00  0.00    +0.000 OA
BRANCH  10  11
ATOM     11  C   UNL     1       4.052   2.339  20.514  0.00  0.00    +0.000 C 
BRANCH  11  13
ATOM     12  C   UNL     1       2.075   3.757  21.562  0.00  0.00    +0.000 C 
ATOM     13  C   UNL     1       2.556   2.444  20.901  0.00  0.00    +0.000 C 
ENDBRANCH  11  13
ENDBRANCH  10  11
ENDBRANCH   8  10
ENDBRANCH   1   8
BRANCH   4  14
ATOM     14  C   UNL     1       2.718   8.037  17.878  0.00  0.00    +0.000 C 
ATOM     15  O   UNL     1       2.731   8.775  16.912  0.00  0.00    +0.000 OA
BRANCH  14  16
ATOM     16  O   UNL     1       2.146   8.361  19.069  0.00  0.00    +0.000 OA
BRANCH  16  17
ATOM     17  C   UNL     1       1.156   9.433  19.138  0.00  0.00    +0.000 C 
ATOM     18  C   UNL     1       0.054   9.280  18.079  0.00  0.00    +0.000 C 
ATOM     19  C   UNL     1       0.515   9.286  20.527  0.00  0.00    +0.000 C 
ATOM     20  C   UNL     1       1.810  10.819  19.062  0.00  0.00    +0.000 C 
ENDBRANCH  16  17
ENDBRANCH  14  16
ENDBRANCH   4  14
BRANCH   7  21
ATOM     21  C   UNL     1       6.007   4.494  16.769  0.00  0.00    +0.000 C 
BRANCH  21  22
ATOM     22  N   UNL     1       5.928   4.793  15.320  0.00  0.00    +0.000 NA
ATOM     23  C   UNL     1       7.289   4.939  14.804  0.00  0.00    +0.000 C 
ATOM     24  C   UNL     1       7.433   4.909  13.287  0.00  0.00    +0.000 C 
ATOM     25  C   UNL     1       6.675   3.748  12.667  0.00  0.00    +0.000 C 
ATOM     26  C   UNL     1       5.222   3.802  13.103  0.00  0.00    +0.000 C 
ATOM     27  C   UNL     1       5.121   3.766  14.631  0.00  0.00    +0.000 C 
ENDBRANCH  21  22
ENDBRANCH   7  21
TORSDOF 9
ENDMDL
MODEL 9
REMARK VINA RESULT:      -5.7      5.288      8.103
REMARK  Name = 
REMARK  15 active torsions:
REMARK  status: ('A' for Active; 'I' for Inactive)
REMARK    1  A    between atoms: C_1  and  C_2
REMARK    2  A    between atoms: C_2  and  C_3
REMARK    3  A    between atoms: C_3  and  O_4
REMARK    4  A    between atoms: O_4  and  C_5
REMARK    5  A    between atoms: C_5  and  C_7
REMARK    6  A    between atoms: C_8  and  C_9
REMARK    7  A    between atoms: C_10  and  C_11
REMARK    8  A    between atoms: C_11  and  O_13
REMARK    9  A    between atoms: O_13  and  C_14
REMARK   10  A    between atoms: C_14  and  C_15
REMARK   11  A    between atoms: C_14  and  C_16
REMARK   12  A    between atoms: C_14  and  C_17
REMARK   13  A    between atoms: C_18  and  C_19
REMARK   14  A    between atoms: N_20  and  C_21
REMARK   15  A    between atoms: C_21  and  N_22
REMARK                            x       y       z     vdW  Elec       q    Type
REMARK                         _______ _______ _______ _____ _____    ______ ____
ROOT
ATOM      1  C   UNL     1       1.331   7.618  20.307  0.00  0.00    +0.000 A 
ATOM      2  C   UNL     1       2.098   6.437  20.146  0.00  0.00    +0.000 A 
ATOM      3  C   UNL     1       2.199   5.293  21.091  0.00  0.00    +0.000 C 
ATOM      4  C   UNL     1       2.872   6.517  18.917  0.00  0.00    +0.000 A 
ATOM      5  C   UNL     1       2.585   7.746  18.352  0.00  0.00    +0.000 A 
ATOM      6  C   UNL     1       3.077   8.367  17.065  0.00  0.00    +0.000 C 
ATOM      7  N   UNL     1       1.764   8.449  19.241  0.00  0.00    +0.000 N 
ENDROOT
BRANCH   1   8
ATOM      8  C   UNL     1       0.378   8.020  21.406  0.00  0.00    +0.000 C 
ATOM      9  O   UNL     1      -0.802   7.691  21.441  0.00  0.00    +0.000 OA
BRANCH   8  10
ATOM     10  O   UNL     1       0.945   8.834  22.382  0.00  0.00    +0.000 OA
BRANCH  10  11
ATOM     11  C   UNL     1       0.142   9.721  23.274  0.00  0.00    +0.000 C 
BRANCH  11  13
ATOM     12  C   UNL     1      -1.858  11.458  23.241  0.00  0.00    +0.000 C 
ATOM     13  C   UNL     1      -0.544  10.941  22.610  0.00  0.00    +0.000 C 
ENDBRANCH  11  13
ENDBRANCH  10  11
ENDBRANCH   8  10
ENDBRANCH   1   8
BRANCH   4  14
ATOM     14  C   UNL     1       3.849   5.551  18.326  0.00  0.00    +0.000 C 
ATOM     15  O   UNL     1       3.509   4.523  17.774  0.00  0.00    +0.000 OA
BRANCH  14  16
ATOM     16  O   UNL     1       5.144   5.946  18.458  0.00  0.00    +0.000 OA
BRANCH  16  17
ATOM     17  C   UNL     1       6.053   5.867  17.316  0.00  0.00    +0.000 C 
ATOM     18  C   UNL     1       5.315   5.967  15.973  0.00  0.00    +0.000 C 
ATOM     19  C   UNL     1       6.968   7.093  17.458  0.00  0.00    +0.000 C 
ATOM     20  C   UNL     1       6.932   4.610  17.374  0.00  0.00    +0.000 C 
ENDBRANCH  16  17
ENDBRANCH  14  16
ENDBRANCH   4  14
BRANCH   7  21
ATOM     21  C   UNL     1       1.614   9.912  19.088  0.00  0.00    +0.000 C 
BRANCH  21  22
ATOM     22  N   UNL     1       0.178  10.279  19.098  0.00  0.00    +0.000 NA
ATOM     23  C   UNL     1       0.073  11.731  19.240  0.00  0.00    +0.000 C 
ATOM     24  C   UNL     1      -1.293  12.333  18.931  0.00  0.00    +0.000 C 
ATOM     25  C   UNL     1      -1.860  11.812  17.622  0.00  0.00    +0.000 C 
ATOM     26  C   UNL     1      -1.898  10.295  17.654  0.00  0.00    +0.000 C 
ATOM     27  C   UNL     1      -0.496   9.732  17.904  0.00  0.00    +0.000 C 
ENDBRANCH  21  22
ENDBRANCH   7  21
TORSDOF 9
ENDMDL
