MODEL 1
REMARK VINA RESULT:      -9.1      0.000      0.000
REMARK  Name = 
REMARK  8 active torsions:
REMARK  status: ('A' for Active; 'I' for Inactive)
REMARK    1  A    between atoms: C_2  and  C_3
REMARK    2  A    between atoms: N_7  and  C_8
REMARK    3  A    between atoms: C_8  and  C_9
REMARK    4  A    between atoms: C_14  and  C_15
REMARK    5  A    between atoms: C_20  and  N_21
REMARK    6  A    between atoms: N_21  and  C_22
REMARK    7  A    between atoms: C_22  and  C_23
REMARK    8  A    between atoms: C_29  and  N_30
REMARK                            x       y       z     vdW  Elec       q    Type
REMARK                         _______ _______ _______ _____ _____    ______ ____
ROOT
ATOM      1  C   UNL     1       6.921   5.516  16.611  0.00  0.00    +0.000 A 
ATOM      2  C   UNL     1       7.411   6.712  16.127  0.00  0.00    +0.000 A 
ATOM      3  N   UNL     1       7.962   7.664  16.901  0.00  0.00    +0.000 NA
ATOM      4  C   UNL     1       8.052   7.406  18.208  0.00  0.00    +0.000 A 
ATOM      5  N   UNL     1       8.678   8.311  19.062  0.00  0.00    +0.000 N 
ATOM      6  N   UNL     1       7.636   6.249  18.750  0.00  0.00    +0.000 NA
ATOM      7  C   UNL     1       7.042   5.310  17.972  0.00  0.00    +0.000 A 
ATOM      8  H   UNL     1       9.592   7.908  19.231  0.00  0.00    +0.000 HD
ENDROOT
BRANCH   1  10
ATOM      9  N   UNL     1       5.904   3.832  14.934  0.00  0.00    +0.000 NA
ATOM     10  C   UNL     1       6.347   4.574  15.710  0.00  0.00    +0.000 C 
ENDBRANCH   1  10
BRANCH   7  11
ATOM     11  N   UNL     1       6.491   4.150  18.590  0.00  0.00    +0.000 N 
ATOM     12  H   UNL     1       7.228   3.524  18.909  0.00  0.00    +0.000 HD
BRANCH  11  13
ATOM     13  C   UNL     1       5.518   4.475  19.638  0.00  0.00    +0.000 C 
BRANCH  13  14
ATOM     14  C   UNL     1       4.055   4.056  19.354  0.00  0.00    +0.000 C 
ATOM     15  C   UNL     1       3.226   5.370  19.446  0.00  0.00    +0.000 C 
ATOM     16  C   UNL     1       1.745   5.121  19.155  0.00  0.00    +0.000 C 
ATOM     17  C   UNL     1       1.622   4.541  17.738  0.00  0.00    +0.000 C 
ATOM     18  C   UNL     1       2.367   3.194  17.652  0.00  0.00    +0.000 C 
ATOM     19  C   UNL     1       3.868   3.441  17.946  0.00  0.00    +0.000 C 
ATOM     20  C   UNL     1       1.812   2.191  18.692  0.00  0.00    +0.000 C 
ATOM     21  C   UNL     1       1.964   2.799  20.107  0.00  0.00    +0.000 C 
ATOM     22  C   UNL     1       1.200   4.135  20.198  0.00  0.00    +0.000 C 
ATOM     23  C   UNL     1       3.470   3.058  20.388  0.00  0.00    +0.000 C 
BRANCH  20  24
ATOM     24  N   UNL     1       0.426   1.822  18.388  0.00  0.00    +0.000 NA
ATOM     25  H   UNL     1      -0.154   2.645  18.237  0.00  0.00    +0.000 HD
ATOM     26  H   UNL     1       0.016   1.331  19.180  0.00  0.00    +0.000 HD
ENDBRANCH  20  24
ENDBRANCH  13  14
ENDBRANCH  11  13
ENDBRANCH   7  11
BRANCH   5  27
ATOM     27  C   UNL     1       8.762   9.668  18.532  0.00  0.00    +0.000 C 
BRANCH  27  28
ATOM     28  C   UNL     1       9.167  10.711  19.574  0.00  0.00    +0.000 A 
ATOM     29  C   UNL     1       8.864  10.544  20.941  0.00  0.00    +0.000 A 
ATOM     30  C   UNL     1       9.251  11.487  21.898  0.00  0.00    +0.000 A 
ATOM     31  C   UNL     1       9.942  12.629  21.515  0.00  0.00    +0.000 A 
ATOM     32  C   UNL     1      10.252  12.823  20.172  0.00  0.00    +0.000 A 
ATOM     33  C   UNL     1       9.881  11.879  19.188  0.00  0.00    +0.000 A 
BRANCH  33  34
ATOM     34  C   UNL     1      10.288  12.203  17.762  0.00  0.00    +0.000 C 
ATOM     35  F   UNL     1      10.919  11.200  17.096  0.00  0.00    +0.000 F 
ATOM     36  F   UNL     1       9.219  12.542  16.988  0.00  0.00    +0.000 F 
ATOM     37  F   UNL     1      11.138  13.267  17.704  0.00  0.00    +0.000 F 
ENDBRANCH  33  34
ENDBRANCH  27  28
ENDBRANCH   5  27
TORSDOF 8
ENDMDL
MODEL 2
REMARK VINA RESULT:      -8.8      6.934      8.962
REMARK  Name = 
REMARK  8 active torsions:
REMARK  status: ('A' for Active; 'I' for Inactive)
REMARK    1  A    between atoms: C_2  and  C_3
REMARK    2  A    between atoms: N_7  and  C_8
REMARK    3  A    between atoms: C_8  and  C_9
REMARK    4  A    between atoms: C_14  and  C_15
REMARK    5  A    between atoms: C_20  and  N_21
REMARK    6  A    between atoms: N_21  and  C_22
REMARK    7  A    between atoms: C_22  and  C_23
REMARK    8  A    between atoms: C_29  and  N_30
REMARK                            x       y       z     vdW  Elec       q    Type
REMARK                         _______ _______ _______ _____ _____    ______ ____
ROOT
ATOM      1  C   UNL     1       2.303   8.386  18.413  0.00  0.00    +0.000 A 
ATOM      2  C   UNL     1       1.679   9.394  17.706  0.00  0.00    +0.000 A 
ATOM      3  N   UNL     1       0.678  10.146  18.198  0.00  0.00    +0.000 NA
ATOM      4  C   UNL     1       0.298   9.902  19.455  0.00  0.00    +0.000 A 
ATOM      5  N   UNL     1      -0.680  10.689  20.059  0.00  0.00    +0.000 N 
ATOM      6  N   UNL     1       0.882   8.966  20.221  0.00  0.00    +0.000 NA
ATOM      7  C   UNL     1       1.862   8.182  19.707  0.00  0.00    +0.000 A 
ATOM      8  H   UNL     1      -0.162  11.317  20.661  0.00  0.00    +0.000 HD
ENDROOT
BRANCH   1  10
ATOM      9  N   UNL     1       4.235   7.075  17.306  0.00  0.00    +0.000 NA
ATOM     10  C   UNL     1       3.349   7.639  17.801  0.00  0.00    +0.000 C 
ENDBRANCH   1  10
BRANCH   7  11
ATOM     11  N   UNL     1       2.375   7.111  20.496  0.00  0.00    +0.000 N 
ATOM     12  H   UNL     1       2.588   7.427  21.440  0.00  0.00    +0.000 HD
BRANCH  11  13
ATOM     13  C   UNL     1       1.515   5.924  20.465  0.00  0.00    +0.000 C 
BRANCH  13  14
ATOM     14  C   UNL     1       2.123   4.667  19.796  0.00  0.00    +0.000 C 
ATOM     15  C   UNL     1       1.579   4.674  18.338  0.00  0.00    +0.000 C 
ATOM     16  C   UNL     1       2.123   3.494  17.531  0.00  0.00    +0.000 C 
ATOM     17  C   UNL     1       3.655   3.594  17.502  0.00  0.00    +0.000 C 
ATOM     18  C   UNL     1       4.217   3.503  18.934  0.00  0.00    +0.000 C 
ATOM     19  C   UNL     1       3.670   4.696  19.756  0.00  0.00    +0.000 C 
ATOM     20  C   UNL     1       3.779   2.184  19.615  0.00  0.00    +0.000 C 
ATOM     21  C   UNL     1       2.233   2.121  19.640  0.00  0.00    +0.000 C 
ATOM     22  C   UNL     1       1.673   2.190  18.205  0.00  0.00    +0.000 C 
ATOM     23  C   UNL     1       1.691   3.329  20.453  0.00  0.00    +0.000 C 
BRANCH  20  24
ATOM     24  N   UNL     1       4.374   1.019  18.951  0.00  0.00    +0.000 NA
ATOM     25  H   UNL     1       3.695   0.269  18.835  0.00  0.00    +0.000 HD
ATOM     26  H   UNL     1       5.121   0.635  19.526  0.00  0.00    +0.000 HD
ENDBRANCH  20  24
ENDBRANCH  13  14
ENDBRANCH  11  13
ENDBRANCH   7  11
BRANCH   5  27
ATOM     27  C   UNL     1      -1.533  11.405  19.116  0.00  0.00    +0.000 C 
BRANCH  27  28
ATOM     28  C   UNL     1      -2.766  12.040  19.761  0.00  0.00    +0.000 A 
ATOM     29  C   UNL     1      -2.672  12.788  20.951  0.00  0.00    +0.000 A 
ATOM     30  C   UNL     1      -3.794  13.387  21.531  0.00  0.00    +0.000 A 
ATOM     31  C   UNL     1      -5.044  13.244  20.945  0.00  0.00    +0.000 A 
ATOM     32  C   UNL     1      -5.169  12.507  19.770  0.00  0.00    +0.000 A 
ATOM     33  C   UNL     1      -4.048  11.902  19.160  0.00  0.00    +0.000 A 
BRANCH  33  34
ATOM     34  C   UNL     1      -4.315  11.136  17.877  0.00  0.00    +0.000 C 
ATOM     35  F   UNL     1      -3.816   9.872  17.840  0.00  0.00    +0.000 F 
ATOM     36  F   UNL     1      -5.648  11.011  17.623  0.00  0.00    +0.000 F 
ATOM     37  F   UNL     1      -3.790  11.765  16.789  0.00  0.00    +0.000 F 
ENDBRANCH  33  34
ENDBRANCH  27  28
ENDBRANCH   5  27
TORSDOF 8
ENDMDL
MODEL 3
REMARK VINA RESULT:      -8.8      6.611      8.797
REMARK  Name = 
REMARK  8 active torsions:
REMARK  status: ('A' for Active; 'I' for Inactive)
REMARK    1  A    between atoms: C_2  and  C_3
REMARK    2  A    between atoms: N_7  and  C_8
REMARK    3  A    between atoms: C_8  and  C_9
REMARK    4  A    between atoms: C_14  and  C_15
REMARK    5  A    between atoms: C_20  and  N_21
REMARK    6  A    between atoms: N_21  and  C_22
REMARK    7  A    between atoms: C_22  and  C_23
REMARK    8  A    between atoms: C_29  and  N_30
REMARK                            x       y       z     vdW  Elec       q    Type
REMARK                         _______ _______ _______ _____ _____    ______ ____
ROOT
ATOM      1  C   UNL     1       2.333   8.615  18.418  0.00  0.00    +0.000 A 
ATOM      2  C   UNL     1       1.866   9.724  17.742  0.00  0.00    +0.000 A 
ATOM      3  N   UNL     1       0.940  10.568  18.235  0.00  0.00    +0.000 NA
ATOM      4  C   UNL     1       0.478  10.311  19.461  0.00  0.00    +0.000 A 
ATOM      5  N   UNL     1      -0.426  11.181  20.067  0.00  0.00    +0.000 N 
ATOM      6  N   UNL     1       0.911   9.276  20.198  0.00  0.00    +0.000 NA
ATOM      7  C   UNL     1       1.813   8.404  19.682  0.00  0.00    +0.000 A 
ATOM      8  H   UNL     1       0.136  11.712  20.722  0.00  0.00    +0.000 HD
ENDROOT
BRANCH   1  10
ATOM      9  N   UNL     1       4.097   7.121  17.263  0.00  0.00    +0.000 NA
ATOM     10  C   UNL     1       3.309   7.777  17.808  0.00  0.00    +0.000 C 
ENDBRANCH   1  10
BRANCH   7  11
ATOM     11  N   UNL     1       2.157   7.242  20.431  0.00  0.00    +0.000 N 
ATOM     12  H   UNL     1       2.137   7.436  21.431  0.00  0.00    +0.000 HD
BRANCH  11  13
ATOM     13  C   UNL     1       1.361   6.069  20.055  0.00  0.00    +0.000 C 
BRANCH  13  14
ATOM     14  C   UNL     1       2.165   4.805  19.665  0.00  0.00    +0.000 C 
ATOM     15  C   UNL     1       1.797   4.527  18.178  0.00  0.00    +0.000 C 
ATOM     16  C   UNL     1       2.546   3.310  17.633  0.00  0.00    +0.000 C 
ATOM     17  C   UNL     1       4.053   3.582  17.741  0.00  0.00    +0.000 C 
ATOM     18  C   UNL     1       4.451   3.775  19.218  0.00  0.00    +0.000 C 
ATOM     19  C   UNL     1       3.695   5.007  19.775  0.00  0.00    +0.000 C 
ATOM     20  C   UNL     1       4.069   2.532  20.058  0.00  0.00    +0.000 C 
ATOM     21  C   UNL     1       2.544   2.295  19.938  0.00  0.00    +0.000 C 
ATOM     22  C   UNL     1       2.151   2.080  18.463  0.00  0.00    +0.000 C 
ATOM     23  C   UNL     1       1.794   3.541  20.485  0.00  0.00    +0.000 C 
BRANCH  20  24
ATOM     24  N   UNL     1       4.850   1.358  19.656  0.00  0.00    +0.000 NA
ATOM     25  H   UNL     1       4.983   1.327  18.646  0.00  0.00    +0.000 HD
ATOM     26  H   UNL     1       4.348   0.507  19.898  0.00  0.00    +0.000 HD
ENDBRANCH  20  24
ENDBRANCH  13  14
ENDBRANCH  11  13
ENDBRANCH   7  11
BRANCH   5  27
ATOM     27  C   UNL     1      -1.143  12.040  19.131  0.00  0.00    +0.000 C 
BRANCH  27  28
ATOM     28  C   UNL     1      -2.654  12.074  19.362  0.00  0.00    +0.000 A 
ATOM     29  C   UNL     1      -3.213  12.705  20.492  0.00  0.00    +0.000 A 
ATOM     30  C   UNL     1      -4.596  12.755  20.694  0.00  0.00    +0.000 A 
ATOM     31  C   UNL     1      -5.458  12.167  19.779  0.00  0.00    +0.000 A 
ATOM     32  C   UNL     1      -4.935  11.533  18.655  0.00  0.00    +0.000 A 
ATOM     33  C   UNL     1      -3.543  11.479  18.424  0.00  0.00    +0.000 A 
BRANCH  33  34
ATOM     34  C   UNL     1      -3.101  10.769  17.157  0.00  0.00    +0.000 C 
ATOM     35  F   UNL     1      -2.261  11.476  16.357  0.00  0.00    +0.000 F 
ATOM     36  F   UNL     1      -2.457   9.598  17.424  0.00  0.00    +0.000 F 
ATOM     37  F   UNL     1      -4.160  10.435  16.366  0.00  0.00    +0.000 F 
ENDBRANCH  33  34
ENDBRANCH  27  28
ENDBRANCH   5  27
TORSDOF 8
ENDMDL
MODEL 4
REMARK VINA RESULT:      -8.7      0.547      1.376
REMARK  Name = 
REMARK  8 active torsions:
REMARK  status: ('A' for Active; 'I' for Inactive)
REMARK    1  A    between atoms: C_2  and  C_3
REMARK    2  A    between atoms: N_7  and  C_8
REMARK    3  A    between atoms: C_8  and  C_9
REMARK    4  A    between atoms: C_14  and  C_15
REMARK    5  A    between atoms: C_20  and  N_21
REMARK    6  A    between atoms: N_21  and  C_22
REMARK    7  A    between atoms: C_22  and  C_23
REMARK    8  A    between atoms: C_29  and  N_30
REMARK                            x       y       z     vdW  Elec       q    Type
REMARK                         _______ _______ _______ _____ _____    ______ ____
ROOT
ATOM      1  C   UNL     1       7.047   5.617  16.580  0.00  0.00    +0.000 A 
ATOM      2  C   UNL     1       7.555   6.806  16.097  0.00  0.00    +0.000 A 
ATOM      3  N   UNL     1       8.065   7.776  16.878  0.00  0.00    +0.000 NA
ATOM      4  C   UNL     1       8.094   7.543  18.193  0.00  0.00    +0.000 A 
ATOM      5  N   UNL     1       8.675   8.467  19.057  0.00  0.00    +0.000 N 
ATOM      6  N   UNL     1       7.656   6.395  18.736  0.00  0.00    +0.000 NA
ATOM      7  C   UNL     1       7.104   5.438  17.950  0.00  0.00    +0.000 A 
ATOM      8  H   UNL     1       9.582   8.071  19.277  0.00  0.00    +0.000 HD
ENDROOT
BRANCH   1  10
ATOM      9  N   UNL     1       6.057   3.910  14.911  0.00  0.00    +0.000 NA
ATOM     10  C   UNL     1       6.520   4.655  15.672  0.00  0.00    +0.000 C 
ENDBRANCH   1  10
BRANCH   7  11
ATOM     11  N   UNL     1       6.528   4.288  18.563  0.00  0.00    +0.000 N 
ATOM     12  H   UNL     1       7.252   3.665  18.917  0.00  0.00    +0.000 HD
BRANCH  11  13
ATOM     13  C   UNL     1       5.518   4.630  19.571  0.00  0.00    +0.000 C 
BRANCH  13  14
ATOM     14  C   UNL     1       4.086   4.110  19.295  0.00  0.00    +0.000 C 
ATOM     15  C   UNL     1       3.992   3.969  17.748  0.00  0.00    +0.000 C 
ATOM     16  C   UNL     1       2.627   3.429  17.316  0.00  0.00    +0.000 C 
ATOM     17  C   UNL     1       2.425   2.052  17.966  0.00  0.00    +0.000 C 
ATOM     18  C   UNL     1       2.430   2.187  19.502  0.00  0.00    +0.000 C 
ATOM     19  C   UNL     1       3.810   2.733  19.944  0.00  0.00    +0.000 C 
ATOM     20  C   UNL     1       1.330   3.168  19.972  0.00  0.00    +0.000 C 
ATOM     21  C   UNL     1       1.571   4.546  19.311  0.00  0.00    +0.000 C 
ATOM     22  C   UNL     1       1.543   4.414  17.776  0.00  0.00    +0.000 C 
ATOM     23  C   UNL     1       2.963   5.081  19.747  0.00  0.00    +0.000 C 
BRANCH  20  24
ATOM     24  N   UNL     1      -0.009   2.640  19.691  0.00  0.00    +0.000 NA
ATOM     25  H   UNL     1      -0.736   3.291  19.987  0.00  0.00    +0.000 HD
ATOM     26  H   UNL     1      -0.165   1.786  20.222  0.00  0.00    +0.000 HD
ENDBRANCH  20  24
ENDBRANCH  13  14
ENDBRANCH  11  13
ENDBRANCH   7  11
BRANCH   5  27
ATOM     27  C   UNL     1       8.779   9.814  18.506  0.00  0.00    +0.000 C 
BRANCH  27  28
ATOM     28  C   UNL     1       9.133  10.879  19.544  0.00  0.00    +0.000 A 
ATOM     29  C   UNL     1       9.027  10.624  20.927  0.00  0.00    +0.000 A 
ATOM     30  C   UNL     1       9.369  11.589  21.878  0.00  0.00    +0.000 A 
ATOM     31  C   UNL     1       9.816  12.840  21.476  0.00  0.00    +0.000 A 
ATOM     32  C   UNL     1       9.928  13.123  20.117  0.00  0.00    +0.000 A 
ATOM     33  C   UNL     1       9.598  12.160  19.137  0.00  0.00    +0.000 A 
BRANCH  33  34
ATOM     34  C   UNL     1       9.774  12.588  17.692  0.00  0.00    +0.000 C 
ATOM     35  F   UNL     1       8.648  12.546  16.931  0.00  0.00    +0.000 F 
ATOM     36  F   UNL     1      10.239  13.865  17.588  0.00  0.00    +0.000 F 
ATOM     37  F   UNL     1      10.683  11.811  17.038  0.00  0.00    +0.000 F 
ENDBRANCH  33  34
ENDBRANCH  27  28
ENDBRANCH   5  27
TORSDOF 8
ENDMDL
MODEL 5
REMARK VINA RESULT:      -8.6      6.965      9.566
REMARK  Name = 
REMARK  8 active torsions:
REMARK  status: ('A' for Active; 'I' for Inactive)
REMARK    1  A    between atoms: C_2  and  C_3
REMARK    2  A    between atoms: N_7  and  C_8
REMARK    3  A    between atoms: C_8  and  C_9
REMARK    4  A    between atoms: C_14  and  C_15
REMARK    5  A    between atoms: C_20  and  N_21
REMARK    6  A    between atoms: N_21  and  C_22
REMARK    7  A    between atoms: C_22  and  C_23
REMARK    8  A    between atoms: C_29  and  N_30
REMARK                            x       y       z     vdW  Elec       q    Type
REMARK                         _______ _______ _______ _____ _____    ______ ____
ROOT
ATOM      1  C   UNL     1       0.935   9.545  21.809  0.00  0.00    +0.000 A 
ATOM      2  C   UNL     1       0.072  10.607  21.629  0.00  0.00    +0.000 A 
ATOM      3  N   UNL     1      -0.549  10.880  20.467  0.00  0.00    +0.000 NA
ATOM      4  C   UNL     1      -0.321  10.047  19.448  0.00  0.00    +0.000 A 
ATOM      5  N   UNL     1      -0.986  10.221  18.236  0.00  0.00    +0.000 N 
ATOM      6  N   UNL     1       0.473   8.969  19.555  0.00  0.00    +0.000 NA
ATOM      7  C   UNL     1       1.129   8.722  20.716  0.00  0.00    +0.000 A 
ATOM      8  H   UNL     1      -1.717   9.520  18.246  0.00  0.00    +0.000 HD
ENDROOT
BRANCH   1  10
ATOM      9  N   UNL     1       2.101   9.186  24.087  0.00  0.00    +0.000 NA
ATOM     10  C   UNL     1       1.550   9.344  23.077  0.00  0.00    +0.000 C 
ENDBRANCH   1  10
BRANCH   7  11
ATOM     11  N   UNL     1       2.066   7.649  20.764  0.00  0.00    +0.000 N 
ATOM     12  H   UNL     1       1.791   6.958  21.459  0.00  0.00    +0.000 HD
BRANCH  11  13
ATOM     13  C   UNL     1       2.327   7.066  19.444  0.00  0.00    +0.000 C 
BRANCH  13  14
ATOM     14  C   UNL     1       2.373   5.520  19.385  0.00  0.00    +0.000 C 
ATOM     15  C   UNL     1       1.440   5.038  20.534  0.00  0.00    +0.000 C 
ATOM     16  C   UNL     1       1.356   3.511  20.585  0.00  0.00    +0.000 C 
ATOM     17  C   UNL     1       0.806   3.012  19.241  0.00  0.00    +0.000 C 
ATOM     18  C   UNL     1       1.763   3.408  18.099  0.00  0.00    +0.000 C 
ATOM     19  C   UNL     1       1.852   4.953  18.043  0.00  0.00    +0.000 C 
ATOM     20  C   UNL     1       3.180   2.834  18.345  0.00  0.00    +0.000 C 
ATOM     21  C   UNL     1       3.709   3.367  19.699  0.00  0.00    +0.000 C 
ATOM     22  C   UNL     1       2.762   2.952  20.842  0.00  0.00    +0.000 C 
ATOM     23  C   UNL     1       3.780   4.918  19.639  0.00  0.00    +0.000 C 
BRANCH  20  24
ATOM     24  N   UNL     1       3.179   1.369  18.283  0.00  0.00    +0.000 NA
ATOM     25  H   UNL     1       3.427   1.035  17.353  0.00  0.00    +0.000 HD
ATOM     26  H   UNL     1       2.244   1.014  18.468  0.00  0.00    +0.000 HD
ENDBRANCH  20  24
ENDBRANCH  13  14
ENDBRANCH  11  13
ENDBRANCH   7  11
BRANCH   5  27
ATOM     27  C   UNL     1      -1.514  11.566  18.035  0.00  0.00    +0.000 C 
BRANCH  27  28
ATOM     28  C   UNL     1      -3.031  11.663  18.199  0.00  0.00    +0.000 A 
ATOM     29  C   UNL     1      -3.613  12.234  19.348  0.00  0.00    +0.000 A 
ATOM     30  C   UNL     1      -5.000  12.342  19.491  0.00  0.00    +0.000 A 
ATOM     31  C   UNL     1      -5.844  11.871  18.495  0.00  0.00    +0.000 A 
ATOM     32  C   UNL     1      -5.298  11.297  17.350  0.00  0.00    +0.000 A 
ATOM     33  C   UNL     1      -3.901  11.187  17.178  0.00  0.00    +0.000 A 
BRANCH  33  34
ATOM     34  C   UNL     1      -3.433  10.553  15.881  0.00  0.00    +0.000 C 
ATOM     35  F   UNL     1      -4.401  10.354  14.948  0.00  0.00    +0.000 F 
ATOM     36  F   UNL     1      -2.474  11.299  15.262  0.00  0.00    +0.000 F 
ATOM     37  F   UNL     1      -2.870   9.329  16.086  0.00  0.00    +0.000 F 
ENDBRANCH  33  34
ENDBRANCH  27  28
ENDBRANCH   5  27
TORSDOF 8
ENDMDL
MODEL 6
REMARK VINA RESULT:      -8.5      6.380      7.771
REMARK  Name = 
REMARK  8 active torsions:
REMARK  status: ('A' for Active; 'I' for Inactive)
REMARK    1  A    between atoms: C_2  and  C_3
REMARK    2  A    between atoms: N_7  and  C_8
REMARK    3  A    between atoms: C_8  and  C_9
REMARK    4  A    between atoms: C_14  and  C_15
REMARK    5  A    between atoms: C_20  and  N_21
REMARK    6  A    between atoms: N_21  and  C_22
REMARK    7  A    between atoms: C_22  and  C_23
REMARK    8  A    between atoms: C_29  and  N_30
REMARK                            x       y       z     vdW  Elec       q    Type
REMARK                         _______ _______ _______ _____ _____    ______ ____
ROOT
ATOM      1  C   UNL     1       2.164   8.434  18.513  0.00  0.00    +0.000 A 
ATOM      2  C   UNL     1       1.465   9.477  17.940  0.00  0.00    +0.000 A 
ATOM      3  N   UNL     1       0.517  10.186  18.580  0.00  0.00    +0.000 NA
ATOM      4  C   UNL     1       0.273   9.861  19.852  0.00  0.00    +0.000 A 
ATOM      5  N   UNL     1      -0.640  10.598  20.603  0.00  0.00    +0.000 N 
ATOM      6  N   UNL     1       0.939   8.886  20.493  0.00  0.00    +0.000 NA
ATOM      7  C   UNL     1       1.863   8.146  19.832  0.00  0.00    +0.000 A 
ATOM      8  H   UNL     1      -0.064  11.194  21.186  0.00  0.00    +0.000 HD
ENDROOT
BRANCH   1  10
ATOM      9  N   UNL     1       3.976   7.213  17.133  0.00  0.00    +0.000 NA
ATOM     10  C   UNL     1       3.143   7.738  17.750  0.00  0.00    +0.000 C 
ENDBRANCH   1  10
BRANCH   7  11
ATOM     11  N   UNL     1       2.460   7.035  20.494  0.00  0.00    +0.000 N 
ATOM     12  H   UNL     1       2.783   7.297  21.424  0.00  0.00    +0.000 HD
BRANCH  11  13
ATOM     13  C   UNL     1       1.598   5.848  20.497  0.00  0.00    +0.000 C 
BRANCH  13  14
ATOM     14  C   UNL     1       2.163   4.602  19.771  0.00  0.00    +0.000 C 
ATOM     15  C   UNL     1       1.579   4.667  18.330  0.00  0.00    +0.000 C 
ATOM     16  C   UNL     1       2.077   3.504  17.471  0.00  0.00    +0.000 C 
ATOM     17  C   UNL     1       3.609   3.575  17.402  0.00  0.00    +0.000 C 
ATOM     18  C   UNL     1       4.209   3.427  18.814  0.00  0.00    +0.000 C 
ATOM     19  C   UNL     1       3.708   4.602  19.689  0.00  0.00    +0.000 C 
ATOM     20  C   UNL     1       3.764   2.095  19.464  0.00  0.00    +0.000 C 
ATOM     21  C   UNL     1       2.218   2.061  19.531  0.00  0.00    +0.000 C 
ATOM     22  C   UNL     1       1.620   2.187  18.116  0.00  0.00    +0.000 C 
ATOM     23  C   UNL     1       1.722   3.252  20.397  0.00  0.00    +0.000 C 
BRANCH  20  24
ATOM     24  N   UNL     1       4.317   0.941  18.747  0.00  0.00    +0.000 NA
ATOM     25  H   UNL     1       5.336   0.948  18.760  0.00  0.00    +0.000 HD
ATOM     26  H   UNL     1       4.049   0.981  17.767  0.00  0.00    +0.000 HD
ENDBRANCH  20  24
ENDBRANCH  13  14
ENDBRANCH  11  13
ENDBRANCH   7  11
BRANCH   5  27
ATOM     27  C   UNL     1      -1.590  11.362  19.801  0.00  0.00    +0.000 C 
BRANCH  27  28
ATOM     28  C   UNL     1      -1.945  12.724  20.399  0.00  0.00    +0.000 A 
ATOM     29  C   UNL     1      -2.902  12.850  21.426  0.00  0.00    +0.000 A 
ATOM     30  C   UNL     1      -3.214  14.092  21.988  0.00  0.00    +0.000 A 
ATOM     31  C   UNL     1      -2.587  15.243  21.532  0.00  0.00    +0.000 A 
ATOM     32  C   UNL     1      -1.640  15.150  20.516  0.00  0.00    +0.000 A 
ATOM     33  C   UNL     1      -1.301  13.906  19.940  0.00  0.00    +0.000 A 
BRANCH  33  34
ATOM     34  C   UNL     1      -0.246  13.938  18.848  0.00  0.00    +0.000 C 
ATOM     35  F   UNL     1      -0.583  13.304  17.694  0.00  0.00    +0.000 F 
ATOM     36  F   UNL     1       0.079  15.211  18.487  0.00  0.00    +0.000 F 
ATOM     37  F   UNL     1       0.921  13.361  19.251  0.00  0.00    +0.000 F 
ENDBRANCH  33  34
ENDBRANCH  27  28
ENDBRANCH   5  27
TORSDOF 8
ENDMDL
MODEL 7
REMARK VINA RESULT:      -8.5      7.013      8.302
REMARK  Name = 
REMARK  8 active torsions:
REMARK  status: ('A' for Active; 'I' for Inactive)
REMARK    1  A    between atoms: C_2  and  C_3
REMARK    2  A    between atoms: N_7  and  C_8
REMARK    3  A    between atoms: C_8  and  C_9
REMARK    4  A    between atoms: C_14  and  C_15
REMARK    5  A    between atoms: C_20  and  N_21
REMARK    6  A    between atoms: N_21  and  C_22
REMARK    7  A    between atoms: C_22  and  C_23
REMARK    8  A    between atoms: C_29  and  N_30
REMARK                            x       y       z     vdW  Elec       q    Type
REMARK                         _______ _______ _______ _____ _____    ______ ____
ROOT
ATOM      1  C   UNL     1       2.254   8.414  18.473  0.00  0.00    +0.000 A 
ATOM      2  C   UNL     1       1.587   9.456  17.862  0.00  0.00    +0.000 A 
ATOM      3  N   UNL     1       0.621  10.181  18.457  0.00  0.00    +0.000 NA
ATOM      4  C   UNL     1       0.324   9.872  19.722  0.00  0.00    +0.000 A 
ATOM      5  N   UNL     1      -0.610  10.625  20.428  0.00  0.00    +0.000 N 
ATOM      6  N   UNL     1       0.956   8.899  20.399  0.00  0.00    +0.000 NA
ATOM      7  C   UNL     1       1.899   8.144  19.782  0.00  0.00    +0.000 A 
ATOM      8  H   UNL     1      -0.052  11.222  21.027  0.00  0.00    +0.000 HD
ENDROOT
BRANCH   1  10
ATOM      9  N   UNL     1       4.106   7.123  17.216  0.00  0.00    +0.000 NA
ATOM     10  C   UNL     1       3.256   7.702  17.756  0.00  0.00    +0.000 C 
ENDBRANCH   1  10
BRANCH   7  11
ATOM     11  N   UNL     1       2.460   7.035  20.479  0.00  0.00    +0.000 N 
ATOM     12  H   UNL     1       2.749   7.305  21.418  0.00  0.00    +0.000 HD
BRANCH  11  13
ATOM     13  C   UNL     1       1.589   5.856  20.461  0.00  0.00    +0.000 C 
BRANCH  13  14
ATOM     14  C   UNL     1       2.158   4.607  19.744  0.00  0.00    +0.000 C 
ATOM     15  C   UNL     1       1.589   4.669  18.297  0.00  0.00    +0.000 C 
ATOM     16  C   UNL     1       2.094   3.503  17.446  0.00  0.00    +0.000 C 
ATOM     17  C   UNL     1       3.627   3.570  17.393  0.00  0.00    +0.000 C 
ATOM     18  C   UNL     1       4.211   3.424  18.812  0.00  0.00    +0.000 C 
ATOM     19  C   UNL     1       3.704   4.603  19.678  0.00  0.00    +0.000 C 
ATOM     20  C   UNL     1       3.756   2.095  19.460  0.00  0.00    +0.000 C 
ATOM     21  C   UNL     1       2.209   2.065  19.511  0.00  0.00    +0.000 C 
ATOM     22  C   UNL     1       1.627   2.189  18.089  0.00  0.00    +0.000 C 
ATOM     23  C   UNL     1       1.707   3.259  20.369  0.00  0.00    +0.000 C 
BRANCH  20  24
ATOM     24  N   UNL     1       4.314   0.938  18.752  0.00  0.00    +0.000 NA
ATOM     25  H   UNL     1       5.283   1.099  18.481  0.00  0.00    +0.000 HD
ATOM     26  H   UNL     1       3.804   0.782  17.886  0.00  0.00    +0.000 HD
ENDBRANCH  20  24
ENDBRANCH  13  14
ENDBRANCH  11  13
ENDBRANCH   7  11
BRANCH   5  27
ATOM     27  C   UNL     1      -1.522  11.388  19.581  0.00  0.00    +0.000 C 
BRANCH  27  28
ATOM     28  C   UNL     1      -1.361  12.903  19.712  0.00  0.00    +0.000 A 
ATOM     29  C   UNL     1      -0.464  13.621  18.896  0.00  0.00    +0.000 A 
ATOM     30  C   UNL     1      -0.330  15.009  19.000  0.00  0.00    +0.000 A 
ATOM     31  C   UNL     1      -1.079  15.716  19.930  0.00  0.00    +0.000 A 
ATOM     32  C   UNL     1      -1.970  15.033  20.753  0.00  0.00    +0.000 A 
ATOM     33  C   UNL     1      -2.131  13.633  20.659  0.00  0.00    +0.000 A 
BRANCH  33  34
ATOM     34  C   UNL     1      -3.142  13.010  21.604  0.00  0.00    +0.000 C 
ATOM     35  F   UNL     1      -2.631  12.130  22.505  0.00  0.00    +0.000 F 
ATOM     36  F   UNL     1      -3.801  13.948  22.341  0.00  0.00    +0.000 F 
ATOM     37  F   UNL     1      -4.109  12.322  20.934  0.00  0.00    +0.000 F 
ENDBRANCH  33  34
ENDBRANCH  27  28
ENDBRANCH   5  27
TORSDOF 8
ENDMDL
MODEL 8
REMARK VINA RESULT:      -8.3      7.045      9.724
REMARK  Name = 
REMARK  8 active torsions:
REMARK  status: ('A' for Active; 'I' for Inactive)
REMARK    1  A    between atoms: C_2  and  C_3
REMARK    2  A    between atoms: N_7  and  C_8
REMARK    3  A    between atoms: C_8  and  C_9
REMARK    4  A    between atoms: C_14  and  C_15
REMARK    5  A    between atoms: C_20  and  N_21
REMARK    6  A    between atoms: N_21  and  C_22
REMARK    7  A    between atoms: C_22  and  C_23
REMARK    8  A    between atoms: C_29  and  N_30
REMARK                            x       y       z     vdW  Elec       q    Type
REMARK                         _______ _______ _______ _____ _____    ______ ____
ROOT
ATOM      1  C   UNL     1       0.398   9.642  21.800  0.00  0.00    +0.000 A 
ATOM      2  C   UNL     1      -0.512  10.639  21.514  0.00  0.00    +0.000 A 
ATOM      3  N   UNL     1      -0.947  10.924  20.273  0.00  0.00    +0.000 NA
ATOM      4  C   UNL     1      -0.475  10.170  19.277  0.00  0.00    +0.000 A 
ATOM      5  N   UNL     1      -0.936  10.356  17.976  0.00  0.00    +0.000 N 
ATOM      6  N   UNL     1       0.382   9.155  19.479  0.00  0.00    +0.000 NA
ATOM      7  C   UNL     1       0.850   8.898  20.726  0.00  0.00    +0.000 A 
ATOM      8  H   UNL     1      -1.592   9.598  17.830  0.00  0.00    +0.000 HD
ENDROOT
BRANCH   1  10
ATOM      9  N   UNL     1       1.090   9.274  24.263  0.00  0.00    +0.000 NA
ATOM     10  C   UNL     1       0.803   9.423  23.147  0.00  0.00    +0.000 C 
ENDBRANCH   1  10
BRANCH   7  11
ATOM     11  N   UNL     1       1.856   7.904  20.894  0.00  0.00    +0.000 N 
ATOM     12  H   UNL     1       1.528   7.155  21.502  0.00  0.00    +0.000 HD
BRANCH  11  13
ATOM     13  C   UNL     1       2.391   7.418  19.618  0.00  0.00    +0.000 C 
BRANCH  13  14
ATOM     14  C   UNL     1       2.358   5.884  19.413  0.00  0.00    +0.000 C 
ATOM     15  C   UNL     1       3.827   5.411  19.615  0.00  0.00    +0.000 C 
ATOM     16  C   UNL     1       3.953   3.894  19.472  0.00  0.00    +0.000 C 
ATOM     17  C   UNL     1       3.057   3.233  20.529  0.00  0.00    +0.000 C 
ATOM     18  C   UNL     1       1.584   3.623  20.292  0.00  0.00    +0.000 C 
ATOM     19  C   UNL     1       1.451   5.159  20.436  0.00  0.00    +0.000 C 
ATOM     20  C   UNL     1       1.128   3.212  18.871  0.00  0.00    +0.000 C 
ATOM     21  C   UNL     1       2.042   3.905  17.831  0.00  0.00    +0.000 C 
ATOM     22  C   UNL     1       3.511   3.497  18.056  0.00  0.00    +0.000 C 
ATOM     23  C   UNL     1       1.914   5.445  17.992  0.00  0.00    +0.000 C 
BRANCH  20  24
ATOM     24  N   UNL     1       1.113   1.754  18.718  0.00  0.00    +0.000 NA
ATOM     25  H   UNL     1       2.044   1.357  18.837  0.00  0.00    +0.000 HD
ATOM     26  H   UNL     1       0.822   1.506  17.775  0.00  0.00    +0.000 HD
ENDBRANCH  20  24
ENDBRANCH  13  14
ENDBRANCH  11  13
ENDBRANCH   7  11
BRANCH   5  27
ATOM     27  C   UNL     1      -1.539  11.663  17.740  0.00  0.00    +0.000 C 
BRANCH  27  28
ATOM     28  C   UNL     1      -3.055  11.685  17.935  0.00  0.00    +0.000 A 
ATOM     29  C   UNL     1      -3.643  12.271  19.075  0.00  0.00    +0.000 A 
ATOM     30  C   UNL     1      -5.029  12.311  19.246  0.00  0.00    +0.000 A 
ATOM     31  C   UNL     1      -5.868  11.756  18.290  0.00  0.00    +0.000 A 
ATOM     32  C   UNL     1      -5.317  11.166  17.155  0.00  0.00    +0.000 A 
ATOM     33  C   UNL     1      -3.920  11.123  16.955  0.00  0.00    +0.000 A 
BRANCH  33  34
ATOM     34  C   UNL     1      -3.446  10.463  15.673  0.00  0.00    +0.000 C 
ATOM     35  F   UNL     1      -2.829   9.262  15.830  0.00  0.00    +0.000 F 
ATOM     36  F   UNL     1      -4.471  10.238  14.803  0.00  0.00    +0.000 F 
ATOM     37  F   UNL     1      -2.555  11.243  14.998  0.00  0.00    +0.000 F 
ENDBRANCH  33  34
ENDBRANCH  27  28
ENDBRANCH   5  27
TORSDOF 8
ENDMDL
MODEL 9
REMARK VINA RESULT:      -8.3      7.013      9.646
REMARK  Name = 
REMARK  8 active torsions:
REMARK  status: ('A' for Active; 'I' for Inactive)
REMARK    1  A    between atoms: C_2  and  C_3
REMARK    2  A    between atoms: N_7  and  C_8
REMARK    3  A    between atoms: C_8  and  C_9
REMARK    4  A    between atoms: C_14  and  C_15
REMARK    5  A    between atoms: C_20  and  N_21
REMARK    6  A    between atoms: N_21  and  C_22
REMARK    7  A    between atoms: C_22  and  C_23
REMARK    8  A    between atoms: C_29  and  N_30
REMARK                            x       y       z     vdW  Elec       q    Type
REMARK                         _______ _______ _______ _____ _____    ______ ____
ROOT
ATOM      1  C   UNL     1       0.874   9.587  21.535  0.00  0.00    +0.000 A 
ATOM      2  C   UNL     1      -0.046  10.607  21.394  0.00  0.00    +0.000 A 
ATOM      3  N   UNL     1      -0.652  10.915  20.232  0.00  0.00    +0.000 NA
ATOM      4  C   UNL     1      -0.350  10.161  19.172  0.00  0.00    +0.000 A 
ATOM      5  N   UNL     1      -0.992  10.370  17.954  0.00  0.00    +0.000 N 
ATOM      6  N   UNL     1       0.504   9.125  19.238  0.00  0.00    +0.000 NA
ATOM      7  C   UNL     1       1.144   8.845  20.400  0.00  0.00    +0.000 A 
ATOM      8  H   UNL     1      -1.681   9.629  17.902  0.00  0.00    +0.000 HD
ENDROOT
BRANCH   1  10
ATOM      9  N   UNL     1       1.930   9.195  23.860  0.00  0.00    +0.000 NA
ATOM     10  C   UNL     1       1.467   9.345  22.806  0.00  0.00    +0.000 C 
ENDBRANCH   1  10
BRANCH   7  11
ATOM     11  N   UNL     1       2.141   7.827  20.411  0.00  0.00    +0.000 N 
ATOM     12  H   UNL     1       1.917   7.107  21.096  0.00  0.00    +0.000 HD
BRANCH  11  13
ATOM     13  C   UNL     1       2.413   7.287  19.075  0.00  0.00    +0.000 C 
BRANCH  13  14
ATOM     14  C   UNL     1       2.835   5.799  19.021  0.00  0.00    +0.000 C 
ATOM     15  C   UNL     1       1.937   5.157  17.924  0.00  0.00    +0.000 C 
ATOM     16  C   UNL     1       2.261   3.675  17.730  0.00  0.00    +0.000 C 
ATOM     17  C   UNL     1       3.735   3.553  17.316  0.00  0.00    +0.000 C 
ATOM     18  C   UNL     1       4.645   4.107  18.430  0.00  0.00    +0.000 C 
ATOM     19  C   UNL     1       4.321   5.608  18.631  0.00  0.00    +0.000 C 
ATOM     20  C   UNL     1       4.399   3.360  19.763  0.00  0.00    +0.000 C 
ATOM     21  C   UNL     1       2.910   3.514  20.158  0.00  0.00    +0.000 C 
ATOM     22  C   UNL     1       2.003   2.940  19.053  0.00  0.00    +0.000 C 
ATOM     23  C   UNL     1       2.589   5.023  20.343  0.00  0.00    +0.000 C 
BRANCH  20  24
ATOM     24  N   UNL     1       4.809   1.955  19.670  0.00  0.00    +0.000 NA
ATOM     25  H   UNL     1       5.589   1.752  20.294  0.00  0.00    +0.000 HD
ATOM     26  H   UNL     1       5.143   1.752  18.730  0.00  0.00    +0.000 HD
ENDBRANCH  20  24
ENDBRANCH  13  14
ENDBRANCH  11  13
ENDBRANCH   7  11
BRANCH   5  27
ATOM     27  C   UNL     1      -1.593  11.693  17.819  0.00  0.00    +0.000 C 
BRANCH  27  28
ATOM     28  C   UNL     1      -3.107  11.706  18.035  0.00  0.00    +0.000 A 
ATOM     29  C   UNL     1      -3.681  12.263  19.195  0.00  0.00    +0.000 A 
ATOM     30  C   UNL     1      -5.066  12.295  19.385  0.00  0.00    +0.000 A 
ATOM     31  C   UNL     1      -5.915  11.759  18.427  0.00  0.00    +0.000 A 
ATOM     32  C   UNL     1      -5.378  11.197  17.273  0.00  0.00    +0.000 A 
ATOM     33  C   UNL     1      -3.983  11.164  17.054  0.00  0.00    +0.000 A 
BRANCH  33  34
ATOM     34  C   UNL     1      -3.524  10.535  15.750  0.00  0.00    +0.000 C 
ATOM     35  F   UNL     1      -2.564  11.223  15.078  0.00  0.00    +0.000 F 
ATOM     36  F   UNL     1      -3.017   9.283  15.936  0.00  0.00    +0.000 F 
ATOM     37  F   UNL     1      -4.551  10.388  14.867  0.00  0.00    +0.000 F 
ENDBRANCH  33  34
ENDBRANCH  27  28
ENDBRANCH   5  27
TORSDOF 8
ENDMDL
