MODEL 1
REMARK VINA RESULT:      -7.8      0.000      0.000
REMARK  Name = 
REMARK  7 active torsions:
REMARK  status: ('A' for Active; 'I' for Inactive)
REMARK    1  A    between atoms: C_1  and  C_2
REMARK    2  A    between atoms: C_2  and  C_3
REMARK    3  A    between atoms: C_2  and  C_4
REMARK    4  A    between atoms: C_2  and  N_5
REMARK    5  A    between atoms: N_5  and  C_6
REMARK    6  A    between atoms: C_6  and  C_7
REMARK    7  A    between atoms: C_13  and  C_15
REMARK                            x       y       z     vdW  Elec       q    Type
REMARK                         _______ _______ _______ _____ _____    ______ ____
ROOT
ATOM      1  N   UNL     1       4.047   5.275  17.313  0.00  0.00    +0.000 N 
ATOM      2  C   UNL     1       3.990   6.643  17.641  0.00  0.00    +0.000 C 
ATOM      3  O   UNL     1       4.906   7.382  17.271  0.00  0.00    +0.000 OA
ENDROOT
BRANCH   2   4
ATOM      4  C   UNL     1       2.949   7.341  18.416  0.00  0.00    +0.000 A 
ATOM      5  C   UNL     1       2.226   8.400  17.886  0.00  0.00    +0.000 A 
ATOM      6  C   UNL     1       1.392   8.918  18.884  0.00  0.00    +0.000 A 
ATOM      7  C   UNL     1       0.490   9.995  18.929  0.00  0.00    +0.000 A 
ATOM      8  C   UNL     1      -0.177  10.255  20.127  0.00  0.00    +0.000 A 
ATOM      9  C   UNL     1       0.045   9.449  21.246  0.00  0.00    +0.000 A 
ATOM     10  C   UNL     1       0.942   8.368  21.214  0.00  0.00    +0.000 A 
ATOM     11  C   UNL     1       1.616   8.130  20.008  0.00  0.00    +0.000 A 
ATOM     12  O   UNL     1       2.569   7.161  19.729  0.00  0.00    +0.000 OA
ENDBRANCH   2   4
BRANCH   1  14
ATOM     13  C   UNL     1       6.544   4.735  17.540  0.00  0.00    +0.000 C 
ATOM     14  C   UNL     1       5.306   4.702  16.621  0.00  0.00    +0.000 C 
ATOM     15  C   UNL     1       5.647   5.478  15.325  0.00  0.00    +0.000 C 
ATOM     16  C   UNL     1       5.188   3.221  16.140  0.00  0.00    +0.000 C 
ENDBRANCH   1  14
BRANCH   1  17
ATOM     17  C   UNL     1       2.849   4.425  17.447  0.00  0.00    +0.000 C 
BRANCH  17  18
ATOM     18  C   UNL     1       2.591   3.793  18.810  0.00  0.00    +0.000 A 
ATOM     19  C   UNL     1       3.564   3.096  19.536  0.00  0.00    +0.000 A 
ATOM     20  C   UNL     1       3.310   2.635  20.831  0.00  0.00    +0.000 A 
ATOM     21  C   UNL     1       2.061   2.833  21.414  0.00  0.00    +0.000 A 
ATOM     22  C   UNL     1       1.058   3.476  20.693  0.00  0.00    +0.000 A 
ATOM     23  C   UNL     1       1.322   3.954  19.405  0.00  0.00    +0.000 A 
ENDBRANCH  17  18
ENDBRANCH   1  17
TORSDOF 4
ENDMDL
MODEL 2
REMARK VINA RESULT:      -7.7      0.074      1.349
REMARK  Name = 
REMARK  7 active torsions:
REMARK  status: ('A' for Active; 'I' for Inactive)
REMARK    1  A    between atoms: C_1  and  C_2
REMARK    2  A    between atoms: C_2  and  C_3
REMARK    3  A    between atoms: C_2  and  C_4
REMARK    4  A    between atoms: C_2  and  N_5
REMARK    5  A    between atoms: N_5  and  C_6
REMARK    6  A    between atoms: C_6  and  C_7
REMARK    7  A    between atoms: C_13  and  C_15
REMARK                            x       y       z     vdW  Elec       q    Type
REMARK                         _______ _______ _______ _____ _____    ______ ____
ROOT
ATOM      1  N   UNL     1       4.038   5.279  17.345  0.00  0.00    +0.000 N 
ATOM      2  C   UNL     1       3.974   6.651  17.654  0.00  0.00    +0.000 C 
ATOM      3  O   UNL     1       4.881   7.391  17.266  0.00  0.00    +0.000 OA
ENDROOT
BRANCH   2   4
ATOM      4  C   UNL     1       2.932   7.352  18.426  0.00  0.00    +0.000 A 
ATOM      5  C   UNL     1       2.201   8.400  17.889  0.00  0.00    +0.000 A 
ATOM      6  C   UNL     1       1.370   8.926  18.885  0.00  0.00    +0.000 A 
ATOM      7  C   UNL     1       0.462   9.999  18.923  0.00  0.00    +0.000 A 
ATOM      8  C   UNL     1      -0.200  10.268  20.122  0.00  0.00    +0.000 A 
ATOM      9  C   UNL     1       0.033   9.477  21.249  0.00  0.00    +0.000 A 
ATOM     10  C   UNL     1       0.936   8.400  21.223  0.00  0.00    +0.000 A 
ATOM     11  C   UNL     1       1.605   8.152  20.017  0.00  0.00    +0.000 A 
ATOM     12  O   UNL     1       2.561   7.185  19.744  0.00  0.00    +0.000 OA
ENDBRANCH   2   4
BRANCH   1  14
ATOM     13  C   UNL     1       5.094   3.249  16.185  0.00  0.00    +0.000 C 
ATOM     14  C   UNL     1       5.297   4.705  16.652  0.00  0.00    +0.000 C 
ATOM     15  C   UNL     1       6.530   4.745  17.587  0.00  0.00    +0.000 C 
ATOM     16  C   UNL     1       5.774   5.483  15.384  0.00  0.00    +0.000 C 
ENDBRANCH   1  14
BRANCH   1  17
ATOM     17  C   UNL     1       2.847   4.422  17.500  0.00  0.00    +0.000 C 
BRANCH  17  18
ATOM     18  C   UNL     1       2.545   3.893  18.897  0.00  0.00    +0.000 A 
ATOM     19  C   UNL     1       1.293   4.007  19.513  0.00  0.00    +0.000 A 
ATOM     20  C   UNL     1       1.036   3.404  20.749  0.00  0.00    +0.000 A 
ATOM     21  C   UNL     1       2.041   2.703  21.410  0.00  0.00    +0.000 A 
ATOM     22  C   UNL     1       3.311   2.620  20.844  0.00  0.00    +0.000 A 
ATOM     23  C   UNL     1       3.559   3.207  19.599  0.00  0.00    +0.000 A 
ENDBRANCH  17  18
ENDBRANCH   1  17
TORSDOF 4
ENDMDL
MODEL 3
REMARK VINA RESULT:      -7.7      1.095      1.581
REMARK  Name = 
REMARK  7 active torsions:
REMARK  status: ('A' for Active; 'I' for Inactive)
REMARK    1  A    between atoms: C_1  and  C_2
REMARK    2  A    between atoms: C_2  and  C_3
REMARK    3  A    between atoms: C_2  and  C_4
REMARK    4  A    between atoms: C_2  and  N_5
REMARK    5  A    between atoms: N_5  and  C_6
REMARK    6  A    between atoms: C_6  and  C_7
REMARK    7  A    between atoms: C_13  and  C_15
REMARK                            x       y       z     vdW  Elec       q    Type
REMARK                         _______ _______ _______ _____ _____    ______ ____
ROOT
ATOM      1  N   UNL     1       3.287   5.805  17.756  0.00  0.00    +0.000 N 
ATOM      2  C   UNL     1       3.323   7.202  17.930  0.00  0.00    +0.000 C 
ATOM      3  O   UNL     1       4.317   7.825  17.548  0.00  0.00    +0.000 OA
ENDROOT
BRANCH   2   4
ATOM      4  C   UNL     1       2.296   8.058  18.551  0.00  0.00    +0.000 A 
ATOM      5  C   UNL     1       1.603   9.016  17.826  0.00  0.00    +0.000 A 
ATOM      6  C   UNL     1       0.779   9.732  18.701  0.00  0.00    +0.000 A 
ATOM      7  C   UNL     1      -0.096  10.821  18.536  0.00  0.00    +0.000 A 
ATOM      8  C   UNL     1      -0.762  11.316  19.658  0.00  0.00    +0.000 A 
ATOM      9  C   UNL     1      -0.566  10.729  20.910  0.00  0.00    +0.000 A 
ATOM     10  C   UNL     1       0.303   9.639  21.088  0.00  0.00    +0.000 A 
ATOM     11  C   UNL     1       0.977   9.163  19.955  0.00  0.00    +0.000 A 
ATOM     12  O   UNL     1       1.905   8.136  19.871  0.00  0.00    +0.000 OA
ENDBRANCH   2   4
BRANCH   1  14
ATOM     13  C   UNL     1       4.222   3.614  16.805  0.00  0.00    +0.000 C 
ATOM     14  C   UNL     1       4.536   5.066  17.219  0.00  0.00    +0.000 C 
ATOM     15  C   UNL     1       5.674   5.034  18.269  0.00  0.00    +0.000 C 
ATOM     16  C   UNL     1       5.210   5.715  15.969  0.00  0.00    +0.000 C 
ENDBRANCH   1  14
BRANCH   1  17
ATOM     17  C   UNL     1       2.018   5.067  17.895  0.00  0.00    +0.000 C 
BRANCH  17  18
ATOM     18  C   UNL     1       1.816   4.262  19.173  0.00  0.00    +0.000 A 
ATOM     19  C   UNL     1       1.151   3.030  19.214  0.00  0.00    +0.000 A 
ATOM     20  C   UNL     1       1.094   2.277  20.391  0.00  0.00    +0.000 A 
ATOM     21  C   UNL     1       1.673   2.759  21.562  0.00  0.00    +0.000 A 
ATOM     22  C   UNL     1       2.294   4.006  21.561  0.00  0.00    +0.000 A 
ATOM     23  C   UNL     1       2.367   4.748  20.378  0.00  0.00    +0.000 A 
ENDBRANCH  17  18
ENDBRANCH   1  17
TORSDOF 4
ENDMDL
MODEL 4
REMARK VINA RESULT:      -7.7      1.610      3.957
REMARK  Name = 
REMARK  7 active torsions:
REMARK  status: ('A' for Active; 'I' for Inactive)
REMARK    1  A    between atoms: C_1  and  C_2
REMARK    2  A    between atoms: C_2  and  C_3
REMARK    3  A    between atoms: C_2  and  C_4
REMARK    4  A    between atoms: C_2  and  N_5
REMARK    5  A    between atoms: N_5  and  C_6
REMARK    6  A    between atoms: C_6  and  C_7
REMARK    7  A    between atoms: C_13  and  C_15
REMARK                            x       y       z     vdW  Elec       q    Type
REMARK                         _______ _______ _______ _____ _____    ______ ____
ROOT
ATOM      1  N   UNL     1       3.077   4.319  18.840  0.00  0.00    +0.000 N 
ATOM      2  C   UNL     1       2.471   5.166  19.787  0.00  0.00    +0.000 C 
ATOM      3  O   UNL     1       2.105   4.689  20.864  0.00  0.00    +0.000 OA
ENDROOT
BRANCH   2   4
ATOM      4  C   UNL     1       2.187   6.606  19.655  0.00  0.00    +0.000 A 
ATOM      5  C   UNL     1       1.634   7.344  20.691  0.00  0.00    +0.000 A 
ATOM      6  C   UNL     1       1.386   8.643  20.236  0.00  0.00    +0.000 A 
ATOM      7  C   UNL     1       0.810   9.783  20.825  0.00  0.00    +0.000 A 
ATOM      8  C   UNL     1       0.693  10.942  20.056  0.00  0.00    +0.000 A 
ATOM      9  C   UNL     1       1.151  10.962  18.737  0.00  0.00    +0.000 A 
ATOM     10  C   UNL     1       1.731   9.831  18.138  0.00  0.00    +0.000 A 
ATOM     11  C   UNL     1       1.828   8.670  18.917  0.00  0.00    +0.000 A 
ATOM     12  O   UNL     1       2.320   7.425  18.553  0.00  0.00    +0.000 OA
ENDBRANCH   2   4
BRANCH   1  14
ATOM     13  C   UNL     1       4.124   2.448  20.249  0.00  0.00    +0.000 C 
ATOM     14  C   UNL     1       3.150   2.796  19.105  0.00  0.00    +0.000 C 
ATOM     15  C   UNL     1       3.591   2.018  17.841  0.00  0.00    +0.000 C 
ATOM     16  C   UNL     1       1.796   2.122  19.496  0.00  0.00    +0.000 C 
ENDBRANCH   1  14
BRANCH   1  17
ATOM     17  C   UNL     1       3.811   4.886  17.692  0.00  0.00    +0.000 C 
BRANCH  17  18
ATOM     18  C   UNL     1       5.159   5.536  17.979  0.00  0.00    +0.000 A 
ATOM     19  C   UNL     1       6.021   5.113  18.998  0.00  0.00    +0.000 A 
ATOM     20  C   UNL     1       7.296   5.669  19.146  0.00  0.00    +0.000 A 
ATOM     21  C   UNL     1       7.721   6.685  18.294  0.00  0.00    +0.000 A 
ATOM     22  C   UNL     1       6.863   7.161  17.306  0.00  0.00    +0.000 A 
ATOM     23  C   UNL     1       5.596   6.590  17.148  0.00  0.00    +0.000 A 
ENDBRANCH  17  18
ENDBRANCH   1  17
TORSDOF 4
ENDMDL
MODEL 5
REMARK VINA RESULT:      -7.7      0.984      1.383
REMARK  Name = 
REMARK  7 active torsions:
REMARK  status: ('A' for Active; 'I' for Inactive)
REMARK    1  A    between atoms: C_1  and  C_2
REMARK    2  A    between atoms: C_2  and  C_3
REMARK    3  A    between atoms: C_2  and  C_4
REMARK    4  A    between atoms: C_2  and  N_5
REMARK    5  A    between atoms: N_5  and  C_6
REMARK    6  A    between atoms: C_6  and  C_7
REMARK    7  A    between atoms: C_13  and  C_15
REMARK                            x       y       z     vdW  Elec       q    Type
REMARK                         _______ _______ _______ _____ _____    ______ ____
ROOT
ATOM      1  N   UNL     1       3.432   5.725  17.661  0.00  0.00    +0.000 N 
ATOM      2  C   UNL     1       3.444   7.122  17.840  0.00  0.00    +0.000 C 
ATOM      3  O   UNL     1       4.416   7.765  17.437  0.00  0.00    +0.000 OA
ENDROOT
BRANCH   2   4
ATOM      4  C   UNL     1       2.415   7.955  18.487  0.00  0.00    +0.000 A 
ATOM      5  C   UNL     1       1.732   8.946  17.797  0.00  0.00    +0.000 A 
ATOM      6  C   UNL     1       0.903   9.628  18.694  0.00  0.00    +0.000 A 
ATOM      7  C   UNL     1       0.034  10.726  18.567  0.00  0.00    +0.000 A 
ATOM      8  C   UNL     1      -0.640  11.177  19.704  0.00  0.00    +0.000 A 
ATOM      9  C   UNL     1      -0.457  10.537  20.931  0.00  0.00    +0.000 A 
ATOM     10  C   UNL     1       0.406   9.437  21.072  0.00  0.00    +0.000 A 
ATOM     11  C   UNL     1       1.088   9.006  19.925  0.00  0.00    +0.000 A 
ATOM     12  O   UNL     1       2.013   7.979  19.806  0.00  0.00    +0.000 OA
ENDBRANCH   2   4
BRANCH   1  14
ATOM     13  C   UNL     1       4.399   3.542  16.724  0.00  0.00    +0.000 C 
ATOM     14  C   UNL     1       4.682   5.012  17.093  0.00  0.00    +0.000 C 
ATOM     15  C   UNL     1       5.859   5.040  18.099  0.00  0.00    +0.000 C 
ATOM     16  C   UNL     1       5.288   5.653  15.804  0.00  0.00    +0.000 C 
ENDBRANCH   1  14
BRANCH   1  17
ATOM     17  C   UNL     1       2.181   4.962  17.828  0.00  0.00    +0.000 C 
BRANCH  17  18
ATOM     18  C   UNL     1       2.012   4.173  19.120  0.00  0.00    +0.000 A 
ATOM     19  C   UNL     1       2.515   4.597  20.357  0.00  0.00    +0.000 A 
ATOM     20  C   UNL     1       2.233   3.895  21.533  0.00  0.00    +0.000 A 
ATOM     21  C   UNL     1       1.469   2.732  21.490  0.00  0.00    +0.000 A 
ATOM     22  C   UNL     1       1.002   2.258  20.266  0.00  0.00    +0.000 A 
ATOM     23  C   UNL     1       1.268   2.974  19.094  0.00  0.00    +0.000 A 
ENDBRANCH  17  18
ENDBRANCH   1  17
TORSDOF 4
ENDMDL
MODEL 6
REMARK VINA RESULT:      -7.7      1.491      4.236
REMARK  Name = 
REMARK  7 active torsions:
REMARK  status: ('A' for Active; 'I' for Inactive)
REMARK    1  A    between atoms: C_1  and  C_2
REMARK    2  A    between atoms: C_2  and  C_3
REMARK    3  A    between atoms: C_2  and  C_4
REMARK    4  A    between atoms: C_2  and  N_5
REMARK    5  A    between atoms: N_5  and  C_6
REMARK    6  A    between atoms: C_6  and  C_7
REMARK    7  A    between atoms: C_13  and  C_15
REMARK                            x       y       z     vdW  Elec       q    Type
REMARK                         _______ _______ _______ _____ _____    ______ ____
ROOT
ATOM      1  N   UNL     1       3.182   4.498  19.846  0.00  0.00    +0.000 N 
ATOM      2  C   UNL     1       2.087   5.320  20.178  0.00  0.00    +0.000 C 
ATOM      3  O   UNL     1       1.119   4.819  20.754  0.00  0.00    +0.000 OA
ENDROOT
BRANCH   2   4
ATOM      4  C   UNL     1       1.927   6.760  19.903  0.00  0.00    +0.000 A 
ATOM      5  C   UNL     1       1.439   7.639  20.856  0.00  0.00    +0.000 A 
ATOM      6  C   UNL     1       1.304   8.904  20.274  0.00  0.00    +0.000 A 
ATOM      7  C   UNL     1       0.827  10.141  20.743  0.00  0.00    +0.000 A 
ATOM      8  C   UNL     1       0.809  11.225  19.863  0.00  0.00    +0.000 A 
ATOM      9  C   UNL     1       1.269  11.076  18.553  0.00  0.00    +0.000 A 
ATOM     10  C   UNL     1       1.751   9.846  18.072  0.00  0.00    +0.000 A 
ATOM     11  C   UNL     1       1.747   8.764  18.963  0.00  0.00    +0.000 A 
ATOM     12  O   UNL     1       2.131   7.452  18.727  0.00  0.00    +0.000 OA
ENDBRANCH   2   4
BRANCH   1  14
ATOM     13  C   UNL     1       2.241   2.261  19.015  0.00  0.00    +0.000 C 
ATOM     14  C   UNL     1       3.095   2.971  20.084  0.00  0.00    +0.000 C 
ATOM     15  C   UNL     1       2.497   2.645  21.475  0.00  0.00    +0.000 C 
ATOM     16  C   UNL     1       4.463   2.218  20.089  0.00  0.00    +0.000 C 
ENDBRANCH   1  14
BRANCH   1  17
ATOM     17  C   UNL     1       4.473   5.094  19.456  0.00  0.00    +0.000 C 
BRANCH  17  18
ATOM     18  C   UNL     1       4.742   5.262  17.966  0.00  0.00    +0.000 A 
ATOM     19  C   UNL     1       4.819   6.507  17.329  0.00  0.00    +0.000 A 
ATOM     20  C   UNL     1       5.182   6.611  15.982  0.00  0.00    +0.000 A 
ATOM     21  C   UNL     1       5.442   5.464  15.236  0.00  0.00    +0.000 A 
ATOM     22  C   UNL     1       5.319   4.211  15.831  0.00  0.00    +0.000 A 
ATOM     23  C   UNL     1       4.976   4.111  17.183  0.00  0.00    +0.000 A 
ENDBRANCH  17  18
ENDBRANCH   1  17
TORSDOF 4
ENDMDL
MODEL 7
REMARK VINA RESULT:      -7.6      1.125      1.701
REMARK  Name = 
REMARK  7 active torsions:
REMARK  status: ('A' for Active; 'I' for Inactive)
REMARK    1  A    between atoms: C_1  and  C_2
REMARK    2  A    between atoms: C_2  and  C_3
REMARK    3  A    between atoms: C_2  and  C_4
REMARK    4  A    between atoms: C_2  and  N_5
REMARK    5  A    between atoms: N_5  and  C_6
REMARK    6  A    between atoms: C_6  and  C_7
REMARK    7  A    between atoms: C_13  and  C_15
REMARK                            x       y       z     vdW  Elec       q    Type
REMARK                         _______ _______ _______ _____ _____    ______ ____
ROOT
ATOM      1  N   UNL     1       4.493   6.161  18.164  0.00  0.00    +0.000 N 
ATOM      2  C   UNL     1       3.702   7.219  17.676  0.00  0.00    +0.000 C 
ATOM      3  O   UNL     1       3.920   7.652  16.542  0.00  0.00    +0.000 OA
ENDROOT
BRANCH   2   4
ATOM      4  C   UNL     1       2.611   7.922  18.374  0.00  0.00    +0.000 A 
ATOM      5  C   UNL     1       1.822   8.869  17.738  0.00  0.00    +0.000 A 
ATOM      6  C   UNL     1       0.950   9.431  18.676  0.00  0.00    +0.000 A 
ATOM      7  C   UNL     1      -0.023  10.445  18.609  0.00  0.00    +0.000 A 
ATOM      8  C   UNL     1      -0.714  10.782  19.774  0.00  0.00    +0.000 A 
ATOM      9  C   UNL     1      -0.446  10.113  20.971  0.00  0.00    +0.000 A 
ATOM     10  C   UNL     1       0.521   9.097  21.051  0.00  0.00    +0.000 A 
ATOM     11  C   UNL     1       1.218   8.781  19.876  0.00  0.00    +0.000 A 
ATOM     12  O   UNL     1       2.235   7.854  19.700  0.00  0.00    +0.000 OA
ENDBRANCH   2   4
BRANCH   1  14
ATOM     13  C   UNL     1       5.269   5.105  15.958  0.00  0.00    +0.000 C 
ATOM     14  C   UNL     1       5.698   5.656  17.333  0.00  0.00    +0.000 C 
ATOM     15  C   UNL     1       6.476   4.544  18.078  0.00  0.00    +0.000 C 
ATOM     16  C   UNL     1       6.793   6.727  17.027  0.00  0.00    +0.000 C 
ENDBRANCH   1  14
BRANCH   1  17
ATOM     17  C   UNL     1       4.076   5.406  19.360  0.00  0.00    +0.000 C 
BRANCH  17  18
ATOM     18  C   UNL     1       2.927   4.418  19.195  0.00  0.00    +0.000 A 
ATOM     19  C   UNL     1       2.882   3.444  18.189  0.00  0.00    +0.000 A 
ATOM     20  C   UNL     1       1.862   2.488  18.152  0.00  0.00    +0.000 A 
ATOM     21  C   UNL     1       0.845   2.510  19.103  0.00  0.00    +0.000 A 
ATOM     22  C   UNL     1       0.837   3.501  20.082  0.00  0.00    +0.000 A 
ATOM     23  C   UNL     1       1.870   4.443  20.129  0.00  0.00    +0.000 A 
ENDBRANCH  17  18
ENDBRANCH   1  17
TORSDOF 4
ENDMDL
MODEL 8
REMARK VINA RESULT:      -7.6      1.496      4.179
REMARK  Name = 
REMARK  7 active torsions:
REMARK  status: ('A' for Active; 'I' for Inactive)
REMARK    1  A    between atoms: C_1  and  C_2
REMARK    2  A    between atoms: C_2  and  C_3
REMARK    3  A    between atoms: C_2  and  C_4
REMARK    4  A    between atoms: C_2  and  N_5
REMARK    5  A    between atoms: N_5  and  C_6
REMARK    6  A    between atoms: C_6  and  C_7
REMARK    7  A    between atoms: C_13  and  C_15
REMARK                            x       y       z     vdW  Elec       q    Type
REMARK                         _______ _______ _______ _____ _____    ______ ____
ROOT
ATOM      1  N   UNL     1       3.206   4.474  19.860  0.00  0.00    +0.000 N 
ATOM      2  C   UNL     1       2.098   5.290  20.160  0.00  0.00    +0.000 C 
ATOM      3  O   UNL     1       1.113   4.782  20.702  0.00  0.00    +0.000 OA
ENDROOT
BRANCH   2   4
ATOM      4  C   UNL     1       1.940   6.730  19.887  0.00  0.00    +0.000 A 
ATOM      5  C   UNL     1       1.441   7.607  20.837  0.00  0.00    +0.000 A 
ATOM      6  C   UNL     1       1.313   8.873  20.257  0.00  0.00    +0.000 A 
ATOM      7  C   UNL     1       0.830  10.109  20.723  0.00  0.00    +0.000 A 
ATOM      8  C   UNL     1       0.822  11.195  19.846  0.00  0.00    +0.000 A 
ATOM      9  C   UNL     1       1.296  11.049  18.541  0.00  0.00    +0.000 A 
ATOM     10  C   UNL     1       1.783   9.821  18.062  0.00  0.00    +0.000 A 
ATOM     11  C   UNL     1       1.770   8.736  18.950  0.00  0.00    +0.000 A 
ATOM     12  O   UNL     1       2.157   7.425  18.715  0.00  0.00    +0.000 OA
ENDBRANCH   2   4
BRANCH   1  14
ATOM     13  C   UNL     1       2.274   2.241  19.006  0.00  0.00    +0.000 C 
ATOM     14  C   UNL     1       3.118   2.946  20.088  0.00  0.00    +0.000 C 
ATOM     15  C   UNL     1       2.508   2.610  21.471  0.00  0.00    +0.000 C 
ATOM     16  C   UNL     1       4.487   2.193  20.100  0.00  0.00    +0.000 C 
ENDBRANCH   1  14
BRANCH   1  17
ATOM     17  C   UNL     1       4.506   5.077  19.515  0.00  0.00    +0.000 C 
BRANCH  17  18
ATOM     18  C   UNL     1       4.854   5.187  18.036  0.00  0.00    +0.000 A 
ATOM     19  C   UNL     1       5.036   4.078  17.200  0.00  0.00    +0.000 A 
ATOM     20  C   UNL     1       5.240   4.233  15.825  0.00  0.00    +0.000 A 
ATOM     21  C   UNL     1       5.301   5.506  15.264  0.00  0.00    +0.000 A 
ATOM     22  C   UNL     1       5.177   6.627  16.082  0.00  0.00    +0.000 A 
ATOM     23  C   UNL     1       4.953   6.468  17.453  0.00  0.00    +0.000 A 
ENDBRANCH  17  18
ENDBRANCH   1  17
TORSDOF 4
ENDMDL
MODEL 9
REMARK VINA RESULT:      -7.6      1.042      1.827
REMARK  Name = 
REMARK  7 active torsions:
REMARK  status: ('A' for Active; 'I' for Inactive)
REMARK    1  A    between atoms: C_1  and  C_2
REMARK    2  A    between atoms: C_2  and  C_3
REMARK    3  A    between atoms: C_2  and  C_4
REMARK    4  A    between atoms: C_2  and  N_5
REMARK    5  A    between atoms: N_5  and  C_6
REMARK    6  A    between atoms: C_6  and  C_7
REMARK    7  A    between atoms: C_13  and  C_15
REMARK                            x       y       z     vdW  Elec       q    Type
REMARK                         _______ _______ _______ _____ _____    ______ ____
ROOT
ATOM      1  N   UNL     1       4.694   5.989  18.156  0.00  0.00    +0.000 N 
ATOM      2  C   UNL     1       3.869   7.020  17.666  0.00  0.00    +0.000 C 
ATOM      3  O   UNL     1       4.057   7.440  16.521  0.00  0.00    +0.000 OA
ENDROOT
BRANCH   2   4
ATOM      4  C   UNL     1       2.772   7.707  18.371  0.00  0.00    +0.000 A 
ATOM      5  C   UNL     1       1.960   8.636  17.738  0.00  0.00    +0.000 A 
ATOM      6  C   UNL     1       1.088   9.187  18.682  0.00  0.00    +0.000 A 
ATOM      7  C   UNL     1       0.096  10.183  18.620  0.00  0.00    +0.000 A 
ATOM      8  C   UNL     1      -0.589  10.514  19.790  0.00  0.00    +0.000 A 
ATOM      9  C   UNL     1      -0.296   9.858  20.988  0.00  0.00    +0.000 A 
ATOM     10  C   UNL     1       0.690   8.860  21.063  0.00  0.00    +0.000 A 
ATOM     11  C   UNL     1       1.380   8.549  19.883  0.00  0.00    +0.000 A 
ATOM     12  O   UNL     1       2.412   7.640  19.701  0.00  0.00    +0.000 OA
ENDBRANCH   2   4
BRANCH   1  14
ATOM     13  C   UNL     1       5.457   4.897  15.963  0.00  0.00    +0.000 C 
ATOM     14  C   UNL     1       5.896   5.501  17.312  0.00  0.00    +0.000 C 
ATOM     15  C   UNL     1       6.728   4.436  18.070  0.00  0.00    +0.000 C 
ATOM     16  C   UNL     1       6.948   6.598  16.952  0.00  0.00    +0.000 C 
ENDBRANCH   1  14
BRANCH   1  17
ATOM     17  C   UNL     1       4.315   5.243  19.370  0.00  0.00    +0.000 C 
BRANCH  17  18
ATOM     18  C   UNL     1       3.152   4.266  19.253  0.00  0.00    +0.000 A 
ATOM     19  C   UNL     1       2.028   4.298  20.088  0.00  0.00    +0.000 A 
ATOM     20  C   UNL     1       0.936   3.453  19.866  0.00  0.00    +0.000 A 
ATOM     21  C   UNL     1       0.962   2.532  18.821  0.00  0.00    +0.000 A 
ATOM     22  C   UNL     1       2.090   2.442  18.010  0.00  0.00    +0.000 A 
ATOM     23  C   UNL     1       3.173   3.303  18.222  0.00  0.00    +0.000 A 
ENDBRANCH  17  18
ENDBRANCH   1  17
TORSDOF 4
ENDMDL
