MODEL 1
REMARK VINA RESULT:      -9.7      0.000      0.000
REMARK  Name = 
REMARK  1 active torsions:
REMARK  status: ('A' for Active; 'I' for Inactive)
REMARK    1  A    between atoms: C_4  and  C_5
REMARK                            x       y       z     vdW  Elec       q    Type
REMARK                         _______ _______ _______ _____ _____    ______ ____
ROOT
ATOM      1  C   UNL     1       5.987   4.294  16.094  0.00  0.00    +0.000 C 
ATOM      2  C   UNL     1       7.150   4.544  17.061  0.00  0.00    +0.000 C 
ATOM      3  C   UNL     1       7.455   6.029  17.178  0.00  0.00    +0.000 C 
ATOM      4  C   UNL     1       6.215   6.817  17.597  0.00  0.00    +0.000 C 
ATOM      5  N   UNL     1       5.019   6.592  16.769  0.00  0.00    +0.000 NA
ATOM      6  C   UNL     1       3.852   7.334  17.364  0.00  0.00    +0.000 C 
ATOM      7  C   UNL     1       2.563   6.528  17.705  0.00  0.00    +0.000 C 
ATOM      8  C   UNL     1       2.965   5.213  18.275  0.00  0.00    +0.000 A 
ATOM      9  C   UNL     1       3.976   4.556  17.610  0.00  0.00    +0.000 A 
ATOM     10  N   UNL     1       4.149   3.337  18.188  0.00  0.00    +0.000 N 
ATOM     11  C   UNL     1       3.446   3.290  19.367  0.00  0.00    +0.000 A 
ATOM     12  C   UNL     1       3.478   2.313  20.360  0.00  0.00    +0.000 A 
ATOM     13  C   UNL     1       2.727   2.537  21.510  0.00  0.00    +0.000 A 
ATOM     14  C   UNL     1       1.958   3.690  21.640  0.00  0.00    +0.000 A 
ATOM     15  C   UNL     1       1.913   4.657  20.619  0.00  0.00    +0.000 A 
ATOM     16  C   UNL     1       2.687   4.468  19.454  0.00  0.00    +0.000 A 
ATOM     17  C   UNL     1       4.743   5.153  16.465  0.00  0.00    +0.000 C 
ATOM     18  H   UNL     1       4.777   2.609  17.894  0.00  0.00    +0.000 HD
ENDROOT
BRANCH   1  22
ATOM     19  C   UNL     1       7.171   4.402  11.933  0.00  0.00    +0.000 A 
ATOM     20  C   UNL     1       6.137   3.572  12.358  0.00  0.00    +0.000 A 
ATOM     21  C   UNL     1       5.769   3.554  13.702  0.00  0.00    +0.000 A 
ATOM     22  C   UNL     1       6.425   4.371  14.639  0.00  0.00    +0.000 A 
ATOM     23  C   UNL     1       7.455   5.206  14.195  0.00  0.00    +0.000 A 
ATOM     24  C   UNL     1       7.826   5.219  12.853  0.00  0.00    +0.000 A 
ENDBRANCH   1  22
TORSDOF 1
ENDMDL
MODEL 2
REMARK VINA RESULT:      -9.5      0.068      1.007
REMARK  Name = 
REMARK  1 active torsions:
REMARK  status: ('A' for Active; 'I' for Inactive)
REMARK    1  A    between atoms: C_4  and  C_5
REMARK                            x       y       z     vdW  Elec       q    Type
REMARK                         _______ _______ _______ _____ _____    ______ ____
ROOT
ATOM      1  C   UNL     1       5.947   4.237  16.072  0.00  0.00    +0.000 C 
ATOM      2  C   UNL     1       7.119   4.493  17.028  0.00  0.00    +0.000 C 
ATOM      3  C   UNL     1       7.430   5.978  17.126  0.00  0.00    +0.000 C 
ATOM      4  C   UNL     1       6.197   6.775  17.546  0.00  0.00    +0.000 C 
ATOM      5  N   UNL     1       4.993   6.546  16.730  0.00  0.00    +0.000 NA
ATOM      6  C   UNL     1       3.834   7.300  17.326  0.00  0.00    +0.000 C 
ATOM      7  C   UNL     1       2.545   6.502  17.686  0.00  0.00    +0.000 C 
ATOM      8  C   UNL     1       2.946   5.192  18.267  0.00  0.00    +0.000 A 
ATOM      9  C   UNL     1       3.949   4.524  17.601  0.00  0.00    +0.000 A 
ATOM     10  N   UNL     1       4.122   3.310  18.190  0.00  0.00    +0.000 N 
ATOM     11  C   UNL     1       3.428   3.280  19.376  0.00  0.00    +0.000 A 
ATOM     12  C   UNL     1       3.464   2.312  20.379  0.00  0.00    +0.000 A 
ATOM     13  C   UNL     1       2.723   2.552  21.533  0.00  0.00    +0.000 A 
ATOM     14  C   UNL     1       1.959   3.710  21.656  0.00  0.00    +0.000 A 
ATOM     15  C   UNL     1       1.910   4.666  20.625  0.00  0.00    +0.000 A 
ATOM     16  C   UNL     1       2.675   4.461  19.456  0.00  0.00    +0.000 A 
ATOM     17  C   UNL     1       4.710   5.105  16.444  0.00  0.00    +0.000 C 
ATOM     18  H   UNL     1       4.745   2.577  17.900  0.00  0.00    +0.000 HD
ENDROOT
BRANCH   1  22
ATOM     19  C   UNL     1       7.225   4.521  11.948  0.00  0.00    +0.000 A 
ATOM     20  C   UNL     1       7.844   5.278  12.939  0.00  0.00    +0.000 A 
ATOM     21  C   UNL     1       7.419   5.171  14.262  0.00  0.00    +0.000 A 
ATOM     22  C   UNL     1       6.375   4.298  14.613  0.00  0.00    +0.000 A 
ATOM     23  C   UNL     1       5.770   3.537  13.608  0.00  0.00    +0.000 A 
ATOM     24  C   UNL     1       6.191   3.649  12.286  0.00  0.00    +0.000 A 
ENDBRANCH   1  22
TORSDOF 1
ENDMDL
MODEL 3
REMARK VINA RESULT:      -8.8      1.102      6.702
REMARK  Name = 
REMARK  1 active torsions:
REMARK  status: ('A' for Active; 'I' for Inactive)
REMARK    1  A    between atoms: C_4  and  C_5
REMARK                            x       y       z     vdW  Elec       q    Type
REMARK                         _______ _______ _______ _____ _____    ______ ____
ROOT
ATOM      1  C   UNL     1       3.332   3.950  17.961  0.00  0.00    +0.000 C 
ATOM      2  C   UNL     1       2.456   5.043  17.337  0.00  0.00    +0.000 C 
ATOM      3  C   UNL     1       2.684   6.383  18.020  0.00  0.00    +0.000 C 
ATOM      4  C   UNL     1       4.159   6.777  17.986  0.00  0.00    +0.000 C 
ATOM      5  N   UNL     1       5.092   5.762  18.501  0.00  0.00    +0.000 NA
ATOM      6  C   UNL     1       6.507   6.234  18.298  0.00  0.00    +0.000 C 
ATOM      7  C   UNL     1       7.484   5.313  17.509  0.00  0.00    +0.000 C 
ATOM      8  C   UNL     1       6.744   4.702  16.372  0.00  0.00    +0.000 A 
ATOM      9  C   UNL     1       5.494   4.207  16.668  0.00  0.00    +0.000 A 
ATOM     10  N   UNL     1       5.000   3.594  15.559  0.00  0.00    +0.000 N 
ATOM     11  C   UNL     1       5.795   3.901  14.481  0.00  0.00    +0.000 A 
ATOM     12  C   UNL     1       5.567   3.637  13.132  0.00  0.00    +0.000 A 
ATOM     13  C   UNL     1       6.492   4.125  12.214  0.00  0.00    +0.000 A 
ATOM     14  C   UNL     1       7.614   4.830  12.645  0.00  0.00    +0.000 A 
ATOM     15  C   UNL     1       7.846   5.066  14.013  0.00  0.00    +0.000 A 
ATOM     16  C   UNL     1       6.908   4.607  14.962  0.00  0.00    +0.000 A 
ATOM     17  C   UNL     1       4.828   4.376  18.004  0.00  0.00    +0.000 C 
ATOM     18  H   UNL     1       4.132   3.094  15.477  0.00  0.00    +0.000 HD
ENDROOT
BRANCH   1  22
ATOM     19  C   UNL     1       1.592   2.557  21.670  0.00  0.00    +0.000 A 
ATOM     20  C   UNL     1       0.791   3.087  20.662  0.00  0.00    +0.000 A 
ATOM     21  C   UNL     1       1.371   3.528  19.474  0.00  0.00    +0.000 A 
ATOM     22  C   UNL     1       2.759   3.437  19.274  0.00  0.00    +0.000 A 
ATOM     23  C   UNL     1       3.549   2.894  20.291  0.00  0.00    +0.000 A 
ATOM     24  C   UNL     1       2.969   2.459  21.480  0.00  0.00    +0.000 A 
ENDBRANCH   1  22
TORSDOF 1
ENDMDL
MODEL 4
REMARK VINA RESULT:      -8.7      1.061      6.726
REMARK  Name = 
REMARK  1 active torsions:
REMARK  status: ('A' for Active; 'I' for Inactive)
REMARK    1  A    between atoms: C_4  and  C_5
REMARK                            x       y       z     vdW  Elec       q    Type
REMARK                         _______ _______ _______ _____ _____    ______ ____
ROOT
ATOM      1  C   UNL     1       3.311   3.965  17.951  0.00  0.00    +0.000 C 
ATOM      2  C   UNL     1       2.408   5.013  17.290  0.00  0.00    +0.000 C 
ATOM      3  C   UNL     1       2.588   6.377  17.936  0.00  0.00    +0.000 C 
ATOM      4  C   UNL     1       4.051   6.816  17.901  0.00  0.00    +0.000 C 
ATOM      5  N   UNL     1       5.011   5.845  18.452  0.00  0.00    +0.000 NA
ATOM      6  C   UNL     1       6.413   6.354  18.246  0.00  0.00    +0.000 C 
ATOM      7  C   UNL     1       7.424   5.442  17.491  0.00  0.00    +0.000 C 
ATOM      8  C   UNL     1       6.712   4.775  16.366  0.00  0.00    +0.000 A 
ATOM      9  C   UNL     1       5.475   4.251  16.668  0.00  0.00    +0.000 A 
ATOM     10  N   UNL     1       5.009   3.592  15.573  0.00  0.00    +0.000 N 
ATOM     11  C   UNL     1       5.803   3.892  14.492  0.00  0.00    +0.000 A 
ATOM     12  C   UNL     1       5.594   3.582  13.150  0.00  0.00    +0.000 A 
ATOM     13  C   UNL     1       6.512   4.072  12.225  0.00  0.00    +0.000 A 
ATOM     14  C   UNL     1       7.607   4.823  12.644  0.00  0.00    +0.000 A 
ATOM     15  C   UNL     1       7.821   5.106  14.006  0.00  0.00    +0.000 A 
ATOM     16  C   UNL     1       6.890   4.645  14.961  0.00  0.00    +0.000 A 
ATOM     17  C   UNL     1       4.794   4.438  17.993  0.00  0.00    +0.000 C 
ATOM     18  H   UNL     1       4.157   3.064  15.499  0.00  0.00    +0.000 HD
ENDROOT
BRANCH   1  22
ATOM     19  C   UNL     1       1.805   2.493  21.731  0.00  0.00    +0.000 A 
ATOM     20  C   UNL     1       3.154   2.379  21.409  0.00  0.00    +0.000 A 
ATOM     21  C   UNL     1       3.620   2.862  20.188  0.00  0.00    +0.000 A 
ATOM     22  C   UNL     1       2.743   3.473  19.275  0.00  0.00    +0.000 A 
ATOM     23  C   UNL     1       1.392   3.589  19.616  0.00  0.00    +0.000 A 
ATOM     24  C   UNL     1       0.927   3.101  20.835  0.00  0.00    +0.000 A 
ENDBRANCH   1  22
TORSDOF 1
ENDMDL
MODEL 5
REMARK VINA RESULT:      -7.2      8.989     12.390
REMARK  Name = 
REMARK  1 active torsions:
REMARK  status: ('A' for Active; 'I' for Inactive)
REMARK    1  A    between atoms: C_4  and  C_5
REMARK                            x       y       z     vdW  Elec       q    Type
REMARK                         _______ _______ _______ _____ _____    ______ ____
ROOT
ATOM      1  C   UNL     1       7.488  12.125  24.138  0.00  0.00    +0.000 C 
ATOM      2  C   UNL     1       6.134  12.189  23.422  0.00  0.00    +0.000 C 
ATOM      3  C   UNL     1       5.608  13.614  23.372  0.00  0.00    +0.000 C 
ATOM      4  C   UNL     1       6.618  14.554  22.716  0.00  0.00    +0.000 C 
ATOM      5  N   UNL     1       7.974  14.516  23.289  0.00  0.00    +0.000 NA
ATOM      6  C   UNL     1       8.885  15.396  22.476  0.00  0.00    +0.000 C 
ATOM      7  C   UNL     1      10.181  14.766  21.884  0.00  0.00    +0.000 C 
ATOM      8  C   UNL     1       9.863  13.395  21.402  0.00  0.00    +0.000 A 
ATOM      9  C   UNL     1       9.104  12.622  22.252  0.00  0.00    +0.000 A 
ATOM     10  N   UNL     1       8.993  11.377  21.718  0.00  0.00    +0.000 N 
ATOM     11  C   UNL     1       9.448  11.398  20.422  0.00  0.00    +0.000 A 
ATOM     12  C   UNL     1       9.358  10.400  19.453  0.00  0.00    +0.000 A 
ATOM     13  C   UNL     1       9.828  10.696  18.177  0.00  0.00    +0.000 A 
ATOM     14  C   UNL     1      10.389  11.940  17.899  0.00  0.00    +0.000 A 
ATOM     15  C   UNL     1      10.498  12.930  18.894  0.00  0.00    +0.000 A 
ATOM     16  C   UNL     1      10.003  12.665  20.189  0.00  0.00    +0.000 A 
ATOM     17  C   UNL     1       8.502  13.137  23.529  0.00  0.00    +0.000 C 
ATOM     18  H   UNL     1       8.542  10.578  22.129  0.00  0.00    +0.000 HD
ENDROOT
BRANCH   1  22
ATOM     19  C   UNL     1       6.960  12.198  28.432  0.00  0.00    +0.000 A 
ATOM     20  C   UNL     1       6.344  11.220  27.655  0.00  0.00    +0.000 A 
ATOM     21  C   UNL     1       6.530  11.213  26.274  0.00  0.00    +0.000 A 
ATOM     22  C   UNL     1       7.339  12.179  25.651  0.00  0.00    +0.000 A 
ATOM     23  C   UNL     1       7.957  13.149  26.445  0.00  0.00    +0.000 A 
ATOM     24  C   UNL     1       7.767  13.159  27.825  0.00  0.00    +0.000 A 
ENDBRANCH   1  22
TORSDOF 1
ENDMDL
MODEL 6
REMARK VINA RESULT:      -7.1      9.011     12.441
REMARK  Name = 
REMARK  1 active torsions:
REMARK  status: ('A' for Active; 'I' for Inactive)
REMARK    1  A    between atoms: C_4  and  C_5
REMARK                            x       y       z     vdW  Elec       q    Type
REMARK                         _______ _______ _______ _____ _____    ______ ____
ROOT
ATOM      1  C   UNL     1       7.496  12.103  24.148  0.00  0.00    +0.000 C 
ATOM      2  C   UNL     1       6.141  12.149  23.433  0.00  0.00    +0.000 C 
ATOM      3  C   UNL     1       5.597  13.568  23.381  0.00  0.00    +0.000 C 
ATOM      4  C   UNL     1       6.595  14.518  22.723  0.00  0.00    +0.000 C 
ATOM      5  N   UNL     1       7.952  14.498  23.295  0.00  0.00    +0.000 NA
ATOM      6  C   UNL     1       8.853  15.387  22.479  0.00  0.00    +0.000 C 
ATOM      7  C   UNL     1      10.155  14.772  21.887  0.00  0.00    +0.000 C 
ATOM      8  C   UNL     1       9.853  13.396  21.408  0.00  0.00    +0.000 A 
ATOM      9  C   UNL     1       9.104  12.616  22.260  0.00  0.00    +0.000 A 
ATOM     10  N   UNL     1       9.007  11.368  21.728  0.00  0.00    +0.000 N 
ATOM     11  C   UNL     1       9.462  11.392  20.431  0.00  0.00    +0.000 A 
ATOM     12  C   UNL     1       9.383  10.392  19.465  0.00  0.00    +0.000 A 
ATOM     13  C   UNL     1       9.848  10.691  18.187  0.00  0.00    +0.000 A 
ATOM     14  C   UNL     1      10.393  11.942  17.907  0.00  0.00    +0.000 A 
ATOM     15  C   UNL     1      10.492  12.934  18.900  0.00  0.00    +0.000 A 
ATOM     16  C   UNL     1      10.001  12.666  20.195  0.00  0.00    +0.000 A 
ATOM     17  C   UNL     1       8.497  13.126  23.536  0.00  0.00    +0.000 C 
ATOM     18  H   UNL     1       8.566  10.564  22.140  0.00  0.00    +0.000 HD
ENDROOT
BRANCH   1  22
ATOM     19  C   UNL     1       7.175  12.339  28.456  0.00  0.00    +0.000 A 
ATOM     20  C   UNL     1       7.915  13.279  27.745  0.00  0.00    +0.000 A 
ATOM     21  C   UNL     1       8.004  13.187  26.357  0.00  0.00    +0.000 A 
ATOM     22  C   UNL     1       7.347  12.157  25.661  0.00  0.00    +0.000 A 
ATOM     23  C   UNL     1       6.600  11.226  26.389  0.00  0.00    +0.000 A 
ATOM     24  C   UNL     1       6.517  11.315  27.776  0.00  0.00    +0.000 A 
ENDBRANCH   1  22
TORSDOF 1
ENDMDL
MODEL 7
REMARK VINA RESULT:      -6.9      9.018     11.333
REMARK  Name = 
REMARK  1 active torsions:
REMARK  status: ('A' for Active; 'I' for Inactive)
REMARK    1  A    between atoms: C_4  and  C_5
REMARK                            x       y       z     vdW  Elec       q    Type
REMARK                         _______ _______ _______ _____ _____    ______ ____
ROOT
ATOM      1  C   UNL     1      -0.560  12.518  19.088  0.00  0.00    +0.000 C 
ATOM      2  C   UNL     1      -0.311  11.013  19.239  0.00  0.00    +0.000 C 
ATOM      3  C   UNL     1       0.142  10.673  20.650  0.00  0.00    +0.000 C 
ATOM      4  C   UNL     1      -0.863  11.168  21.688  0.00  0.00    +0.000 C 
ATOM      5  N   UNL     1      -1.222  12.592  21.583  0.00  0.00    +0.000 NA
ATOM      6  C   UNL     1      -2.301  12.911  22.585  0.00  0.00    +0.000 C 
ATOM      7  C   UNL     1      -3.622  13.551  22.065  0.00  0.00    +0.000 C 
ATOM      8  C   UNL     1      -3.986  12.903  20.775  0.00  0.00    +0.000 A 
ATOM      9  C   UNL     1      -2.956  12.738  19.877  0.00  0.00    +0.000 A 
ATOM     10  N   UNL     1      -3.469  12.235  18.722  0.00  0.00    +0.000 N 
ATOM     11  C   UNL     1      -4.766  11.835  18.939  0.00  0.00    +0.000 A 
ATOM     12  C   UNL     1      -5.605  11.112  18.093  0.00  0.00    +0.000 A 
ATOM     13  C   UNL     1      -6.860  10.757  18.579  0.00  0.00    +0.000 A 
ATOM     14  C   UNL     1      -7.258  11.139  19.858  0.00  0.00    +0.000 A 
ATOM     15  C   UNL     1      -6.412  11.892  20.692  0.00  0.00    +0.000 A 
ATOM     16  C   UNL     1      -5.123  12.241  20.234  0.00  0.00    +0.000 A 
ATOM     17  C   UNL     1      -1.521  13.050  20.191  0.00  0.00    +0.000 C 
ATOM     18  H   UNL     1      -2.975  12.054  17.866  0.00  0.00    +0.000 HD
ENDROOT
BRANCH   1  22
ATOM     19  C   UNL     1       3.056  14.848  18.617  0.00  0.00    +0.000 A 
ATOM     20  C   UNL     1       1.914  15.412  19.177  0.00  0.00    +0.000 A 
ATOM     21  C   UNL     1       0.760  14.644  19.323  0.00  0.00    +0.000 A 
ATOM     22  C   UNL     1       0.735  13.298  18.916  0.00  0.00    +0.000 A 
ATOM     23  C   UNL     1       1.893  12.743  18.364  0.00  0.00    +0.000 A 
ATOM     24  C   UNL     1       3.044  13.513  18.214  0.00  0.00    +0.000 A 
ENDBRANCH   1  22
TORSDOF 1
ENDMDL
MODEL 8
REMARK VINA RESULT:      -6.8      9.104     11.393
REMARK  Name = 
REMARK  1 active torsions:
REMARK  status: ('A' for Active; 'I' for Inactive)
REMARK    1  A    between atoms: C_4  and  C_5
REMARK                            x       y       z     vdW  Elec       q    Type
REMARK                         _______ _______ _______ _____ _____    ______ ____
ROOT
ATOM      1  C   UNL     1      -0.556  12.570  19.308  0.00  0.00    +0.000 C 
ATOM      2  C   UNL     1      -0.307  11.065  19.459  0.00  0.00    +0.000 C 
ATOM      3  C   UNL     1       0.094  10.717  20.884  0.00  0.00    +0.000 C 
ATOM      4  C   UNL     1      -0.951  11.203  21.887  0.00  0.00    +0.000 C 
ATOM      5  N   UNL     1      -1.312  12.626  21.778  0.00  0.00    +0.000 NA
ATOM      6  C   UNL     1      -2.428  12.935  22.740  0.00  0.00    +0.000 C 
ATOM      7  C   UNL     1      -3.731  13.573  22.174  0.00  0.00    +0.000 C 
ATOM      8  C   UNL     1      -4.044  12.933  20.868  0.00  0.00    +0.000 A 
ATOM      9  C   UNL     1      -2.981  12.777  20.008  0.00  0.00    +0.000 A 
ATOM     10  N   UNL     1      -3.448  12.280  18.831  0.00  0.00    +0.000 N 
ATOM     11  C   UNL     1      -4.751  11.874  18.997  0.00  0.00    +0.000 A 
ATOM     12  C   UNL     1      -5.555  11.154  18.116  0.00  0.00    +0.000 A 
ATOM     13  C   UNL     1      -6.826  10.791  18.552  0.00  0.00    +0.000 A 
ATOM     14  C   UNL     1      -7.273  11.164  19.817  0.00  0.00    +0.000 A 
ATOM     15  C   UNL     1      -6.461  11.914  20.687  0.00  0.00    +0.000 A 
ATOM     16  C   UNL     1      -5.157  12.270  20.280  0.00  0.00    +0.000 A 
ATOM     17  C   UNL     1      -1.559  13.092  20.378  0.00  0.00    +0.000 C 
ATOM     18  H   UNL     1      -2.921  12.106  17.993  0.00  0.00    +0.000 HD
ENDROOT
BRANCH   1  22
ATOM     19  C   UNL     1       3.195  14.695  18.930  0.00  0.00    +0.000 A 
ATOM     20  C   UNL     1       3.002  13.473  18.294  0.00  0.00    +0.000 A 
ATOM     21  C   UNL     1       1.785  12.805  18.426  0.00  0.00    +0.000 A 
ATOM     22  C   UNL     1       0.742  13.356  19.190  0.00  0.00    +0.000 A 
ATOM     23  C   UNL     1       0.948  14.589  19.816  0.00  0.00    +0.000 A 
ATOM     24  C   UNL     1       2.166  15.252  19.688  0.00  0.00    +0.000 A 
ENDBRANCH   1  22
TORSDOF 1
ENDMDL
MODEL 9
REMARK VINA RESULT:      -6.7      8.910     11.412
REMARK  Name = 
REMARK  1 active torsions:
REMARK  status: ('A' for Active; 'I' for Inactive)
REMARK    1  A    between atoms: C_4  and  C_5
REMARK                            x       y       z     vdW  Elec       q    Type
REMARK                         _______ _______ _______ _____ _____    ______ ____
ROOT
ATOM      1  C   UNL     1       1.102  14.995  19.379  0.00  0.00    +0.000 C 
ATOM      2  C   UNL     1       2.540  14.891  19.898  0.00  0.00    +0.000 C 
ATOM      3  C   UNL     1       2.764  15.819  21.081  0.00  0.00    +0.000 C 
ATOM      4  C   UNL     1       1.758  15.545  22.197  0.00  0.00    +0.000 C 
ATOM      5  N   UNL     1       0.345  15.554  21.785  0.00  0.00    +0.000 NA
ATOM      6  C   UNL     1      -0.519  15.154  22.951  0.00  0.00    +0.000 C 
ATOM      7  C   UNL     1      -1.493  13.952  22.768  0.00  0.00    +0.000 C 
ATOM      8  C   UNL     1      -0.803  12.902  21.972  0.00  0.00    +0.000 A 
ATOM      9  C   UNL     1      -0.115  13.345  20.865  0.00  0.00    +0.000 A 
ATOM     10  N   UNL     1       0.364  12.262  20.194  0.00  0.00    +0.000 N 
ATOM     11  C   UNL     1       0.217  11.143  20.978  0.00  0.00    +0.000 A 
ATOM     12  C   UNL     1       0.723   9.862  20.766  0.00  0.00    +0.000 A 
ATOM     13  C   UNL     1       0.503   8.910  21.757  0.00  0.00    +0.000 A 
ATOM     14  C   UNL     1      -0.221   9.233  22.902  0.00  0.00    +0.000 A 
ATOM     15  C   UNL     1      -0.750  10.523  23.091  0.00  0.00    +0.000 A 
ATOM     16  C   UNL     1      -0.516  11.516  22.115  0.00  0.00    +0.000 A 
ATOM     17  C   UNL     1       0.067  14.796  20.525  0.00  0.00    +0.000 C 
ATOM     18  H   UNL     1       0.863  12.260  19.322  0.00  0.00    +0.000 HD
ENDROOT
BRANCH   1  22
ATOM     19  C   UNL     1       0.379  18.482  16.921  0.00  0.00    +0.000 A 
ATOM     20  C   UNL     1      -0.668  17.850  17.586  0.00  0.00    +0.000 A 
ATOM     21  C   UNL     1      -0.414  16.730  18.375  0.00  0.00    +0.000 A 
ATOM     22  C   UNL     1       0.893  16.231  18.516  0.00  0.00    +0.000 A 
ATOM     23  C   UNL     1       1.935  16.882  17.849  0.00  0.00    +0.000 A 
ATOM     24  C   UNL     1       1.679  17.998  17.057  0.00  0.00    +0.000 A 
ENDBRANCH   1  22
TORSDOF 1
ENDMDL
