MODEL 1
REMARK VINA RESULT:      -6.6      0.000      0.000
REMARK  Name = 
REMARK  2 active torsions:
REMARK  status: ('A' for Active; 'I' for Inactive)
REMARK    1  A    between atoms: C_1  and  N_2
REMARK    2  A    between atoms: C_11  and  O_12
REMARK                            x       y       z     vdW  Elec       q    Type
REMARK                         _______ _______ _______ _____ _____    ______ ____
ROOT
ATOM      1  C   UNL     1       7.053   5.295  15.654  0.00  0.00    +0.000 C 
ATOM      2  N   UNL     1       5.742   5.336  16.297  0.00  0.00    +0.000 NA
ATOM      3  C   UNL     1       5.515   6.615  16.973  0.00  0.00    +0.000 C 
ATOM      4  C   UNL     1       4.055   6.735  17.425  0.00  0.00    +0.000 C 
ATOM      5  C   UNL     1       3.580   5.513  18.166  0.00  0.00    +0.000 A 
ATOM      6  C   UNL     1       2.420   5.595  18.962  0.00  0.00    +0.000 A 
ATOM      7  C   UNL     1       2.021   4.460  19.635  0.00  0.00    +0.000 A 
ATOM      8  C   UNL     1       2.699   3.271  19.517  0.00  0.00    +0.000 A 
ATOM      9  C   UNL     1       3.817   3.145  18.716  0.00  0.00    +0.000 A 
ATOM     10  C   UNL     1       4.274   4.284  18.026  0.00  0.00    +0.000 A 
ATOM     11  C   UNL     1       5.544   4.195  17.194  0.00  0.00    +0.000 C 
ATOM     12  O   UNL     1       2.152   2.287  20.282  0.00  0.00    +0.000 OA
ATOM     13  C   UNL     1       1.156   3.041  21.003  0.00  0.00    +0.000 C 
ATOM     14  O   UNL     1       0.961   4.372  20.482  0.00  0.00    +0.000 OA
ENDROOT
BRANCH  11  15
ATOM     15  O   UNL     1       6.640   4.042  18.084  0.00  0.00    +0.000 OA
ATOM     16  H   UNL     1       7.259   4.755  17.863  0.00  0.00    +0.000 HD
ENDBRANCH  11  15
TORSDOF 1
ENDMDL
MODEL 2
REMARK VINA RESULT:      -6.5      2.151      5.166
REMARK  Name = 
REMARK  2 active torsions:
REMARK  status: ('A' for Active; 'I' for Inactive)
REMARK    1  A    between atoms: C_1  and  N_2
REMARK    2  A    between atoms: C_11  and  O_12
REMARK                            x       y       z     vdW  Elec       q    Type
REMARK                         _______ _______ _______ _____ _____    ______ ____
ROOT
ATOM      1  C   UNL     1       0.903   3.505  19.965  0.00  0.00    +0.000 C 
ATOM      2  N   UNL     1       2.208   4.002  19.537  0.00  0.00    +0.000 NA
ATOM      3  C   UNL     1       2.279   5.462  19.614  0.00  0.00    +0.000 C 
ATOM      4  C   UNL     1       3.719   5.945  19.401  0.00  0.00    +0.000 C 
ATOM      5  C   UNL     1       4.361   5.323  18.189  0.00  0.00    +0.000 A 
ATOM      6  C   UNL     1       5.514   5.916  17.638  0.00  0.00    +0.000 A 
ATOM      7  C   UNL     1       6.068   5.327  16.521  0.00  0.00    +0.000 A 
ATOM      8  C   UNL     1       5.548   4.180  15.973  0.00  0.00    +0.000 A 
ATOM      9  C   UNL     1       4.443   3.551  16.510  0.00  0.00    +0.000 A 
ATOM     10  C   UNL     1       3.830   4.129  17.639  0.00  0.00    +0.000 A 
ATOM     11  C   UNL     1       2.568   3.500  18.209  0.00  0.00    +0.000 C 
ATOM     12  O   UNL     1       6.231   3.782  14.865  0.00  0.00    +0.000 OA
ATOM     13  C   UNL     1       7.134   4.896  14.701  0.00  0.00    +0.000 C 
ATOM     14  O   UNL     1       7.145   5.791  15.833  0.00  0.00    +0.000 OA
ENDROOT
BRANCH  11  15
ATOM     15  O   UNL     1       1.516   3.708  17.277  0.00  0.00    +0.000 OA
ATOM     16  H   UNL     1       1.949   3.844  16.420  0.00  0.00    +0.000 HD
ENDBRANCH  11  15
TORSDOF 1
ENDMDL
MODEL 3
REMARK VINA RESULT:      -6.5      2.086      4.966
REMARK  Name = 
REMARK  2 active torsions:
REMARK  status: ('A' for Active; 'I' for Inactive)
REMARK    1  A    between atoms: C_1  and  N_2
REMARK    2  A    between atoms: C_11  and  O_12
REMARK                            x       y       z     vdW  Elec       q    Type
REMARK                         _______ _______ _______ _____ _____    ______ ____
ROOT
ATOM      1  C   UNL     1       1.621   2.877  21.560  0.00  0.00    +0.000 C 
ATOM      2  N   UNL     1       2.422   3.770  20.728  0.00  0.00    +0.000 NA
ATOM      3  C   UNL     1       1.698   5.000  20.406  0.00  0.00    +0.000 C 
ATOM      4  C   UNL     1       2.633   6.022  19.749  0.00  0.00    +0.000 C 
ATOM      5  C   UNL     1       3.438   5.425  18.624  0.00  0.00    +0.000 A 
ATOM      6  C   UNL     1       4.053   6.279  17.687  0.00  0.00    +0.000 A 
ATOM      7  C   UNL     1       4.771   5.698  16.664  0.00  0.00    +0.000 A 
ATOM      8  C   UNL     1       4.923   4.336  16.567  0.00  0.00    +0.000 A 
ATOM      9  C   UNL     1       4.366   3.472  17.489  0.00  0.00    +0.000 A 
ATOM     10  C   UNL     1       3.605   4.020  18.540  0.00  0.00    +0.000 A 
ATOM     11  C   UNL     1       2.919   3.090  19.529  0.00  0.00    +0.000 C 
ATOM     12  O   UNL     1       5.647   3.974  15.472  0.00  0.00    +0.000 OA
ATOM     13  C   UNL     1       5.793   5.254  14.823  0.00  0.00    +0.000 C 
ATOM     14  O   UNL     1       5.385   6.363  15.649  0.00  0.00    +0.000 OA
ENDROOT
BRANCH  11  15
ATOM     15  O   UNL     1       1.870   2.420  18.844  0.00  0.00    +0.000 OA
ATOM     16  H   UNL     1       1.681   2.961  18.062  0.00  0.00    +0.000 HD
ENDBRANCH  11  15
TORSDOF 1
ENDMDL
MODEL 4
REMARK VINA RESULT:      -6.5      1.318      1.420
REMARK  Name = 
REMARK  2 active torsions:
REMARK  status: ('A' for Active; 'I' for Inactive)
REMARK    1  A    between atoms: C_1  and  N_2
REMARK    2  A    between atoms: C_11  and  O_12
REMARK                            x       y       z     vdW  Elec       q    Type
REMARK                         _______ _______ _______ _____ _____    ______ ____
ROOT
ATOM      1  C   UNL     1       7.029   4.995  14.426  0.00  0.00    +0.000 C 
ATOM      2  N   UNL     1       6.029   5.396  15.412  0.00  0.00    +0.000 NA
ATOM      3  C   UNL     1       6.646   6.040  16.572  0.00  0.00    +0.000 C 
ATOM      4  C   UNL     1       5.577   6.670  17.472  0.00  0.00    +0.000 C 
ATOM      5  C   UNL     1       4.448   5.720  17.777  0.00  0.00    +0.000 A 
ATOM      6  C   UNL     1       3.592   5.990  18.862  0.00  0.00    +0.000 A 
ATOM      7  C   UNL     1       2.577   5.093  19.119  0.00  0.00    +0.000 A 
ATOM      8  C   UNL     1       2.371   3.987  18.331  0.00  0.00    +0.000 A 
ATOM      9  C   UNL     1       3.167   3.712  17.237  0.00  0.00    +0.000 A 
ATOM     10  C   UNL     1       4.230   4.590  16.949  0.00  0.00    +0.000 A 
ATOM     11  C   UNL     1       5.168   4.274  15.794  0.00  0.00    +0.000 C 
ATOM     12  O   UNL     1       1.334   3.224  18.773  0.00  0.00    +0.000 OA
ATOM     13  C   UNL     1       1.022   3.900  20.009  0.00  0.00    +0.000 C 
ATOM     14  O   UNL     1       1.693   5.170  20.149  0.00  0.00    +0.000 OA
ENDROOT
BRANCH  11  15
ATOM     15  O   UNL     1       5.936   3.134  16.154  0.00  0.00    +0.000 OA
ATOM     16  H   UNL     1       6.696   3.129  15.551  0.00  0.00    +0.000 HD
ENDBRANCH  11  15
TORSDOF 1
ENDMDL
MODEL 5
REMARK VINA RESULT:      -6.5      2.548      5.244
REMARK  Name = 
REMARK  2 active torsions:
REMARK  status: ('A' for Active; 'I' for Inactive)
REMARK    1  A    between atoms: C_1  and  N_2
REMARK    2  A    between atoms: C_11  and  O_12
REMARK                            x       y       z     vdW  Elec       q    Type
REMARK                         _______ _______ _______ _____ _____    ______ ____
ROOT
ATOM      1  C   UNL     1       2.651   2.664  21.383  0.00  0.00    +0.000 C 
ATOM      2  N   UNL     1       2.921   3.245  20.071  0.00  0.00    +0.000 NA
ATOM      3  C   UNL     1       2.244   2.504  19.005  0.00  0.00    +0.000 C 
ATOM      4  C   UNL     1       2.333   3.265  17.677  0.00  0.00    +0.000 C 
ATOM      5  C   UNL     1       3.736   3.719  17.367  0.00  0.00    +0.000 A 
ATOM      6  C   UNL     1       4.066   4.091  16.050  0.00  0.00    +0.000 A 
ATOM      7  C   UNL     1       5.362   4.489  15.800  0.00  0.00    +0.000 A 
ATOM      8  C   UNL     1       6.303   4.563  16.798  0.00  0.00    +0.000 A 
ATOM      9  C   UNL     1       6.005   4.242  18.107  0.00  0.00    +0.000 A 
ATOM     10  C   UNL     1       4.698   3.809  18.405  0.00  0.00    +0.000 A 
ATOM     11  C   UNL     1       4.359   3.379  19.824  0.00  0.00    +0.000 C 
ATOM     12  O   UNL     1       7.520   4.955  16.331  0.00  0.00    +0.000 OA
ATOM     13  C   UNL     1       7.264   4.967  14.912  0.00  0.00    +0.000 C 
ATOM     14  O   UNL     1       5.865   4.833  14.584  0.00  0.00    +0.000 OA
ENDROOT
BRANCH  11  15
ATOM     15  O   UNL     1       5.043   2.163  20.089  0.00  0.00    +0.000 OA
ATOM     16  H   UNL     1       5.213   1.764  19.222  0.00  0.00    +0.000 HD
ENDBRANCH  11  15
TORSDOF 1
ENDMDL
MODEL 6
REMARK VINA RESULT:      -6.4      2.205      5.011
REMARK  Name = 
REMARK  2 active torsions:
REMARK  status: ('A' for Active; 'I' for Inactive)
REMARK    1  A    between atoms: C_1  and  N_2
REMARK    2  A    between atoms: C_11  and  O_12
REMARK                            x       y       z     vdW  Elec       q    Type
REMARK                         _______ _______ _______ _____ _____    ______ ____
ROOT
ATOM      1  C   UNL     1       1.359   2.575  20.811  0.00  0.00    +0.000 C 
ATOM      2  N   UNL     1       1.962   3.643  20.019  0.00  0.00    +0.000 NA
ATOM      3  C   UNL     1       1.528   3.587  18.622  0.00  0.00    +0.000 C 
ATOM      4  C   UNL     1       1.968   4.847  17.868  0.00  0.00    +0.000 C 
ATOM      5  C   UNL     1       3.423   5.170  18.087  0.00  0.00    +0.000 A 
ATOM      6  C   UNL     1       4.077   6.048  17.201  0.00  0.00    +0.000 A 
ATOM      7  C   UNL     1       5.412   6.312  17.425  0.00  0.00    +0.000 A 
ATOM      8  C   UNL     1       6.087   5.774  18.492  0.00  0.00    +0.000 A 
ATOM      9  C   UNL     1       5.469   4.940  19.402  0.00  0.00    +0.000 A 
ATOM     10  C   UNL     1       4.111   4.625  19.201  0.00  0.00    +0.000 A 
ATOM     11  C   UNL     1       3.421   3.652  20.145  0.00  0.00    +0.000 C 
ATOM     12  O   UNL     1       7.397   6.143  18.513  0.00  0.00    +0.000 OA
ATOM     13  C   UNL     1       7.490   6.843  17.255  0.00  0.00    +0.000 C 
ATOM     14  O   UNL     1       6.207   7.092  16.645  0.00  0.00    +0.000 OA
ENDROOT
BRANCH  11  15
ATOM     15  O   UNL     1       3.966   2.361  19.916  0.00  0.00    +0.000 OA
ATOM     16  H   UNL     1       4.790   2.507  19.425  0.00  0.00    +0.000 HD
ENDBRANCH  11  15
TORSDOF 1
ENDMDL
MODEL 7
REMARK VINA RESULT:      -6.3      1.513      1.668
REMARK  Name = 
REMARK  2 active torsions:
REMARK  status: ('A' for Active; 'I' for Inactive)
REMARK    1  A    between atoms: C_1  and  N_2
REMARK    2  A    between atoms: C_11  and  O_12
REMARK                            x       y       z     vdW  Elec       q    Type
REMARK                         _______ _______ _______ _____ _____    ______ ____
ROOT
ATOM      1  C   UNL     1       7.394   5.021  15.187  0.00  0.00    +0.000 C 
ATOM      2  N   UNL     1       6.396   5.149  16.245  0.00  0.00    +0.000 NA
ATOM      3  C   UNL     1       7.002   5.042  17.573  0.00  0.00    +0.000 C 
ATOM      4  C   UNL     1       5.991   5.423  18.661  0.00  0.00    +0.000 C 
ATOM      5  C   UNL     1       4.669   4.721  18.489  0.00  0.00    +0.000 A 
ATOM      6  C   UNL     1       3.774   4.660  19.574  0.00  0.00    +0.000 A 
ATOM      7  C   UNL     1       2.578   4.000  19.385  0.00  0.00    +0.000 A 
ATOM      8  C   UNL     1       2.239   3.448  18.174  0.00  0.00    +0.000 A 
ATOM      9  C   UNL     1       3.076   3.522  17.078  0.00  0.00    +0.000 A 
ATOM     10  C   UNL     1       4.318   4.169  17.231  0.00  0.00    +0.000 A 
ATOM     11  C   UNL     1       5.291   4.204  16.063  0.00  0.00    +0.000 C 
ATOM     12  O   UNL     1       1.030   2.825  18.212  0.00  0.00    +0.000 OA
ATOM     13  C   UNL     1       0.730   2.922  19.619  0.00  0.00    +0.000 C 
ATOM     14  O   UNL     1       1.623   3.802  20.333  0.00  0.00    +0.000 OA
ENDROOT
BRANCH  11  15
ATOM     15  O   UNL     1       5.772   2.883  15.855  0.00  0.00    +0.000 OA
ATOM     16  H   UNL     1       5.481   2.636  14.963  0.00  0.00    +0.000 HD
ENDBRANCH  11  15
TORSDOF 1
ENDMDL
MODEL 8
REMARK VINA RESULT:      -6.3      2.344      5.501
REMARK  Name = 
REMARK  2 active torsions:
REMARK  status: ('A' for Active; 'I' for Inactive)
REMARK    1  A    between atoms: C_1  and  N_2
REMARK    2  A    between atoms: C_11  and  O_12
REMARK                            x       y       z     vdW  Elec       q    Type
REMARK                         _______ _______ _______ _____ _____    ______ ____
ROOT
ATOM      1  C   UNL     1       2.512   3.401  20.073  0.00  0.00    +0.000 C 
ATOM      2  N   UNL     1       3.742   3.757  19.372  0.00  0.00    +0.000 NA
ATOM      3  C   UNL     1       4.149   5.133  19.665  0.00  0.00    +0.000 C 
ATOM      4  C   UNL     1       5.557   5.406  19.125  0.00  0.00    +0.000 C 
ATOM      5  C   UNL     1       5.720   4.969  17.692  0.00  0.00    +0.000 A 
ATOM      6  C   UNL     1       6.797   5.470  16.935  0.00  0.00    +0.000 A 
ATOM      7  C   UNL     1       6.907   5.057  15.624  0.00  0.00    +0.000 A 
ATOM      8  C   UNL     1       6.027   4.160  15.070  0.00  0.00    +0.000 A 
ATOM      9  C   UNL     1       4.983   3.619  15.794  0.00  0.00    +0.000 A 
ATOM     10  C   UNL     1       4.818   4.029  17.132  0.00  0.00    +0.000 A 
ATOM     11  C   UNL     1       3.635   3.507  17.932  0.00  0.00    +0.000 C 
ATOM     12  O   UNL     1       6.304   3.908  13.761  0.00  0.00    +0.000 OA
ATOM     13  C   UNL     1       7.357   4.866  13.528  0.00  0.00    +0.000 C 
ATOM     14  O   UNL     1       7.850   5.476  14.739  0.00  0.00    +0.000 OA
ENDROOT
BRANCH  11  15
ATOM     15  O   UNL     1       2.454   4.084  17.395  0.00  0.00    +0.000 OA
ATOM     16  H   UNL     1       2.693   4.390  16.506  0.00  0.00    +0.000 HD
ENDBRANCH  11  15
TORSDOF 1
ENDMDL
MODEL 9
REMARK VINA RESULT:      -6.2      2.129      5.020
REMARK  Name = 
REMARK  2 active torsions:
REMARK  status: ('A' for Active; 'I' for Inactive)
REMARK    1  A    between atoms: C_1  and  N_2
REMARK    2  A    between atoms: C_11  and  O_12
REMARK                            x       y       z     vdW  Elec       q    Type
REMARK                         _______ _______ _______ _____ _____    ______ ____
ROOT
ATOM      1  C   UNL     1       1.574   6.279  20.676  0.00  0.00    +0.000 C 
ATOM      2  N   UNL     1       2.622   6.444  19.672  0.00  0.00    +0.000 NA
ATOM      3  C   UNL     1       2.281   7.488  18.705  0.00  0.00    +0.000 C 
ATOM      4  C   UNL     1       3.486   7.817  17.816  0.00  0.00    +0.000 C 
ATOM      5  C   UNL     1       4.132   6.582  17.243  0.00  0.00    +0.000 A 
ATOM      6  C   UNL     1       4.994   6.704  16.136  0.00  0.00    +0.000 A 
ATOM      7  C   UNL     1       5.558   5.552  15.630  0.00  0.00    +0.000 A 
ATOM      8  C   UNL     1       5.327   4.323  16.198  0.00  0.00    +0.000 A 
ATOM      9  C   UNL     1       4.519   4.171  17.307  0.00  0.00    +0.000 A 
ATOM     10  C   UNL     1       3.904   5.318  17.845  0.00  0.00    +0.000 A 
ATOM     11  C   UNL     1       2.952   5.173  19.021  0.00  0.00    +0.000 C 
ATOM     12  O   UNL     1       5.960   3.320  15.530  0.00  0.00    +0.000 OA
ATOM     13  C   UNL     1       6.480   4.048  14.398  0.00  0.00    +0.000 C 
ATOM     14  O   UNL     1       6.369   5.479  14.541  0.00  0.00    +0.000 OA
ENDROOT
BRANCH  11  15
ATOM     15  O   UNL     1       1.783   4.512  18.559  0.00  0.00    +0.000 OA
ATOM     16  H   UNL     1       2.097   3.765  18.028  0.00  0.00    +0.000 HD
ENDBRANCH  11  15
TORSDOF 1
ENDMDL
