MODEL 1
REMARK VINA RESULT:      -8.1      0.000      0.000
REMARK  Name = 
REMARK  6 active torsions:
REMARK  status: ('A' for Active; 'I' for Inactive)
REMARK    1  A    between atoms: C_4  and  O_5
REMARK    2  A    between atoms: N_9  and  C_10
REMARK    3  A    between atoms: C_10  and  C_11
REMARK    4  A    between atoms: C_14  and  P_15
REMARK    5  A    between atoms: P_15  and  O_17
REMARK    6  A    between atoms: P_15  and  O_18
REMARK                            x       y       z     vdW  Elec       q    Type
REMARK                         _______ _______ _______ _____ _____    ______ ____
ROOT
ATOM      1  N   UNL     1       8.462   5.265  20.361  0.00  0.00    +0.000 N 
ATOM      2  C   UNL     1       7.802   5.665  19.215  0.00  0.00    +0.000 A 
ATOM      3  N   UNL     1       8.139   6.889  18.778  0.00  0.00    +0.000 NA
ATOM      4  C   UNL     1       7.529   7.342  17.677  0.00  0.00    +0.000 A 
ATOM      5  C   UNL     1       6.561   6.574  17.027  0.00  0.00    +0.000 A 
ATOM      6  N   UNL     1       5.789   6.818  15.931  0.00  0.00    +0.000 NA
ATOM      7  C   UNL     1       5.063   5.731  15.793  0.00  0.00    +0.000 A 
ATOM      8  N   UNL     1       5.355   4.780  16.746  0.00  0.00    +0.000 N 
ATOM      9  C   UNL     1       6.311   5.328  17.578  0.00  0.00    +0.000 A 
ATOM     10  N   UNL     1       6.892   4.815  18.684  0.00  0.00    +0.000 NA
ATOM     11  H   UNL     1       8.794   6.078  20.869  0.00  0.00    +0.000 HD
ATOM     12  H   UNL     1       7.924   4.589  20.884  0.00  0.00    +0.000 HD
ENDROOT
BRANCH   4  13
ATOM     13  O   UNL     1       7.900   8.577  17.247  0.00  0.00    +0.000 OA
ATOM     14  H   UNL     1       8.872   8.525  17.330  0.00  0.00    +0.000 HD
ENDBRANCH   4  13
BRANCH   8  15
ATOM     15  C   UNL     1       4.769   3.446  16.807  0.00  0.00    +0.000 C 
BRANCH  15  16
ATOM     16  C   UNL     1       3.713   3.307  17.910  0.00  0.00    +0.000 C 
ATOM     17  C   UNL     1       2.688   2.245  17.583  0.00  0.00    +0.000 C 
ATOM     18  O   UNL     1       2.039   1.963  18.819  0.00  0.00    +0.000 OA
ATOM     19  C   UNL     1       2.951   2.420  19.839  0.00  0.00    +0.000 C 
ATOM     20  O   UNL     1       4.178   2.872  19.199  0.00  0.00    +0.000 OA
BRANCH  19  21
ATOM     21  P   UNL     1       2.098   3.770  20.725  0.00  0.00    +0.000 P 
ATOM     22  O   UNL     1       0.708   4.151  20.317  0.00  0.00    +0.000 OA
BRANCH  21  23
ATOM     23  O   UNL     1       2.146   3.386  22.291  0.00  0.00    +0.000 OA
ATOM     24  H   UNL     1       1.268   3.323  22.706  0.00  0.00    +0.000 HD
ENDBRANCH  21  23
BRANCH  21  25
ATOM     25  O   UNL     1       3.058   5.062  20.746  0.00  0.00    +0.000 OA
ATOM     26  H   UNL     1       3.792   4.955  21.384  0.00  0.00    +0.000 HD
ENDBRANCH  21  25
ENDBRANCH  19  21
ENDBRANCH  15  16
ENDBRANCH   8  15
TORSDOF 6
ENDMDL
MODEL 2
REMARK VINA RESULT:      -8.1      0.894      1.096
REMARK  Name = 
REMARK  6 active torsions:
REMARK  status: ('A' for Active; 'I' for Inactive)
REMARK    1  A    between atoms: C_4  and  O_5
REMARK    2  A    between atoms: N_9  and  C_10
REMARK    3  A    between atoms: C_10  and  C_11
REMARK    4  A    between atoms: C_14  and  P_15
REMARK    5  A    between atoms: P_15  and  O_17
REMARK    6  A    between atoms: P_15  and  O_18
REMARK                            x       y       z     vdW  Elec       q    Type
REMARK                         _______ _______ _______ _____ _____    ______ ____
ROOT
ATOM      1  N   UNL     1       8.388   5.276  20.476  0.00  0.00    +0.000 N 
ATOM      2  C   UNL     1       7.722   5.642  19.322  0.00  0.00    +0.000 A 
ATOM      3  N   UNL     1       8.126   6.809  18.793  0.00  0.00    +0.000 NA
ATOM      4  C   UNL     1       7.515   7.227  17.679  0.00  0.00    +0.000 A 
ATOM      5  C   UNL     1       6.481   6.485  17.108  0.00  0.00    +0.000 A 
ATOM      6  N   UNL     1       5.695   6.707  16.017  0.00  0.00    +0.000 NA
ATOM      7  C   UNL     1       4.894   5.665  15.972  0.00  0.00    +0.000 A 
ATOM      8  N   UNL     1       5.151   4.763  16.982  0.00  0.00    +0.000 N 
ATOM      9  C   UNL     1       6.165   5.298  17.750  0.00  0.00    +0.000 A 
ATOM     10  N   UNL     1       6.743   4.822  18.873  0.00  0.00    +0.000 NA
ATOM     11  H   UNL     1       8.788   6.097  20.919  0.00  0.00    +0.000 HD
ATOM     12  H   UNL     1       7.822   4.675  21.058  0.00  0.00    +0.000 HD
ENDROOT
BRANCH   4  13
ATOM     13  O   UNL     1       7.955   8.403  17.156  0.00  0.00    +0.000 OA
ATOM     14  H   UNL     1       7.164   8.966  17.259  0.00  0.00    +0.000 HD
ENDBRANCH   4  13
BRANCH   8  15
ATOM     15  C   UNL     1       4.479   3.478  17.149  0.00  0.00    +0.000 C 
BRANCH  15  16
ATOM     16  C   UNL     1       3.460   3.481  18.294  0.00  0.00    +0.000 C 
ATOM     17  C   UNL     1       2.172   4.170  17.904  0.00  0.00    +0.000 C 
ATOM     18  O   UNL     1       1.221   3.760  18.883  0.00  0.00    +0.000 OA
ATOM     19  C   UNL     1       1.764   2.552  19.455  0.00  0.00    +0.000 C 
ATOM     20  O   UNL     1       2.981   2.200  18.735  0.00  0.00    +0.000 OA
BRANCH  19  21
ATOM     21  P   UNL     1       2.085   2.915  21.215  0.00  0.00    +0.000 P 
ATOM     22  O   UNL     1       1.118   2.430  22.251  0.00  0.00    +0.000 OA
BRANCH  21  23
ATOM     23  O   UNL     1       3.572   2.373  21.527  0.00  0.00    +0.000 OA
ATOM     24  H   UNL     1       3.871   2.550  22.436  0.00  0.00    +0.000 HD
ENDBRANCH  21  23
BRANCH  21  25
ATOM     25  O   UNL     1       2.347   4.496  21.378  0.00  0.00    +0.000 OA
ATOM     26  H   UNL     1       2.608   4.724  22.292  0.00  0.00    +0.000 HD
ENDBRANCH  21  25
ENDBRANCH  19  21
ENDBRANCH  15  16
ENDBRANCH   8  15
TORSDOF 6
ENDMDL
MODEL 3
REMARK VINA RESULT:      -8.0      0.527      1.100
REMARK  Name = 
REMARK  6 active torsions:
REMARK  status: ('A' for Active; 'I' for Inactive)
REMARK    1  A    between atoms: C_4  and  O_5
REMARK    2  A    between atoms: N_9  and  C_10
REMARK    3  A    between atoms: C_10  and  C_11
REMARK    4  A    between atoms: C_14  and  P_15
REMARK    5  A    between atoms: P_15  and  O_17
REMARK    6  A    between atoms: P_15  and  O_18
REMARK                            x       y       z     vdW  Elec       q    Type
REMARK                         _______ _______ _______ _____ _____    ______ ____
ROOT
ATOM      1  N   UNL     1       8.459   5.260  20.427  0.00  0.00    +0.000 N 
ATOM      2  C   UNL     1       7.813   5.648  19.268  0.00  0.00    +0.000 A 
ATOM      3  N   UNL     1       8.167   6.863  18.816  0.00  0.00    +0.000 NA
ATOM      4  C   UNL     1       7.571   7.304  17.702  0.00  0.00    +0.000 A 
ATOM      5  C   UNL     1       6.603   6.536  17.055  0.00  0.00    +0.000 A 
ATOM      6  N   UNL     1       5.844   6.771  15.947  0.00  0.00    +0.000 NA
ATOM      7  C   UNL     1       5.108   5.689  15.819  0.00  0.00    +0.000 A 
ATOM      8  N   UNL     1       5.382   4.750  16.789  0.00  0.00    +0.000 N 
ATOM      9  C   UNL     1       6.335   5.301  17.622  0.00  0.00    +0.000 A 
ATOM     10  N   UNL     1       6.900   4.799  18.741  0.00  0.00    +0.000 NA
ATOM     11  H   UNL     1       8.794   6.077  20.925  0.00  0.00    +0.000 HD
ATOM     12  H   UNL     1       7.909   4.597  20.954  0.00  0.00    +0.000 HD
ENDROOT
BRANCH   4  13
ATOM     13  O   UNL     1       7.959   8.529  17.257  0.00  0.00    +0.000 OA
ATOM     14  H   UNL     1       8.672   8.745  17.888  0.00  0.00    +0.000 HD
ENDBRANCH   4  13
BRANCH   8  15
ATOM     15  C   UNL     1       4.781   3.423  16.865  0.00  0.00    +0.000 C 
BRANCH  15  16
ATOM     16  C   UNL     1       3.603   3.354  17.843  0.00  0.00    +0.000 C 
ATOM     17  C   UNL     1       2.297   3.070  17.138  0.00  0.00    +0.000 C 
ATOM     18  O   UNL     1       1.402   2.655  18.166  0.00  0.00    +0.000 OA
ATOM     19  C   UNL     1       2.248   2.234  19.256  0.00  0.00    +0.000 C 
ATOM     20  O   UNL     1       3.637   2.304  18.823  0.00  0.00    +0.000 OA
BRANCH  19  21
ATOM     21  P   UNL     1       1.902   3.367  20.645  0.00  0.00    +0.000 P 
ATOM     22  O   UNL     1       2.786   4.557  20.858  0.00  0.00    +0.000 OA
BRANCH  21  23
ATOM     23  O   UNL     1       0.363   3.824  20.485  0.00  0.00    +0.000 OA
ATOM     24  H   UNL     1       0.253   4.774  20.300  0.00  0.00    +0.000 HD
ENDBRANCH  21  23
BRANCH  21  25
ATOM     25  O   UNL     1       1.776   2.503  21.998  0.00  0.00    +0.000 OA
ATOM     26  H   UNL     1       2.520   2.680  22.608  0.00  0.00    +0.000 HD
ENDBRANCH  21  25
ENDBRANCH  19  21
ENDBRANCH  15  16
ENDBRANCH   8  15
TORSDOF 6
ENDMDL
MODEL 4
REMARK VINA RESULT:      -7.5      0.912      1.248
REMARK  Name = 
REMARK  6 active torsions:
REMARK  status: ('A' for Active; 'I' for Inactive)
REMARK    1  A    between atoms: C_4  and  O_5
REMARK    2  A    between atoms: N_9  and  C_10
REMARK    3  A    between atoms: C_10  and  C_11
REMARK    4  A    between atoms: C_14  and  P_15
REMARK    5  A    between atoms: P_15  and  O_17
REMARK    6  A    between atoms: P_15  and  O_18
REMARK                            x       y       z     vdW  Elec       q    Type
REMARK                         _______ _______ _______ _____ _____    ______ ____
ROOT
ATOM      1  N   UNL     1       8.565   5.233  20.348  0.00  0.00    +0.000 N 
ATOM      2  C   UNL     1       7.840   5.608  19.233  0.00  0.00    +0.000 A 
ATOM      3  N   UNL     1       8.133   6.833  18.767  0.00  0.00    +0.000 NA
ATOM      4  C   UNL     1       7.459   7.262  17.693  0.00  0.00    +0.000 A 
ATOM      5  C   UNL     1       6.474   6.470  17.102  0.00  0.00    +0.000 A 
ATOM      6  N   UNL     1       5.643   6.689  16.044  0.00  0.00    +0.000 NA
ATOM      7  C   UNL     1       4.930   5.587  15.955  0.00  0.00    +0.000 A 
ATOM      8  N   UNL     1       5.287   4.653  16.902  0.00  0.00    +0.000 N 
ATOM      9  C   UNL     1       6.274   5.226  17.678  0.00  0.00    +0.000 A 
ATOM     10  N   UNL     1       6.920   4.736  18.758  0.00  0.00    +0.000 NA
ATOM     11  H   UNL     1       8.908   6.057  20.830  0.00  0.00    +0.000 HD
ATOM     12  H   UNL     1       8.068   4.553  20.905  0.00  0.00    +0.000 HD
ENDROOT
BRANCH   4  13
ATOM     13  O   UNL     1       7.786   8.499  17.232  0.00  0.00    +0.000 OA
ATOM     14  H   UNL     1       8.761   8.465  17.266  0.00  0.00    +0.000 HD
ENDBRANCH   4  13
BRANCH   8  15
ATOM     15  C   UNL     1       4.729   3.309  17.007  0.00  0.00    +0.000 C 
BRANCH  15  16
ATOM     16  C   UNL     1       3.820   3.133  18.229  0.00  0.00    +0.000 C 
ATOM     17  C   UNL     1       4.493   2.343  19.327  0.00  0.00    +0.000 C 
ATOM     18  O   UNL     1       3.717   2.594  20.495  0.00  0.00    +0.000 OA
ATOM     19  C   UNL     1       2.999   3.814  20.216  0.00  0.00    +0.000 C 
ATOM     20  O   UNL     1       3.437   4.330  18.927  0.00  0.00    +0.000 OA
BRANCH  19  21
ATOM     21  P   UNL     1       1.225   3.379  20.217  0.00  0.00    +0.000 P 
ATOM     22  O   UNL     1       0.664   2.589  19.075  0.00  0.00    +0.000 OA
BRANCH  21  23
ATOM     23  O   UNL     1       0.942   2.632  21.618  0.00  0.00    +0.000 OA
ATOM     24  H   UNL     1       0.043   2.776  21.964  0.00  0.00    +0.000 HD
ENDBRANCH  21  23
BRANCH  21  25
ATOM     25  O   UNL     1       0.365   4.718  20.459  0.00  0.00    +0.000 OA
ATOM     26  H   UNL     1      -0.533   4.642  20.078  0.00  0.00    +0.000 HD
ENDBRANCH  21  25
ENDBRANCH  19  21
ENDBRANCH  15  16
ENDBRANCH   8  15
TORSDOF 6
ENDMDL
MODEL 5
REMARK VINA RESULT:      -7.4      3.185      5.801
REMARK  Name = 
REMARK  6 active torsions:
REMARK  status: ('A' for Active; 'I' for Inactive)
REMARK    1  A    between atoms: C_4  and  O_5
REMARK    2  A    between atoms: N_9  and  C_10
REMARK    3  A    between atoms: C_10  and  C_11
REMARK    4  A    between atoms: C_14  and  P_15
REMARK    5  A    between atoms: P_15  and  O_17
REMARK    6  A    between atoms: P_15  and  O_18
REMARK                            x       y       z     vdW  Elec       q    Type
REMARK                         _______ _______ _______ _____ _____    ______ ____
ROOT
ATOM      1  N   UNL     1       5.438   1.328  21.054  0.00  0.00    +0.000 N 
ATOM      2  C   UNL     1       4.298   2.003  20.661  0.00  0.00    +0.000 A 
ATOM      3  N   UNL     1       3.343   2.075  21.603  0.00  0.00    +0.000 NA
ATOM      4  C   UNL     1       2.208   2.707  21.284  0.00  0.00    +0.000 A 
ATOM      5  C   UNL     1       2.022   3.248  20.011  0.00  0.00    +0.000 A 
ATOM      6  N   UNL     1       0.967   3.897  19.442  0.00  0.00    +0.000 NA
ATOM      7  C   UNL     1       1.370   4.168  18.220  0.00  0.00    +0.000 A 
ATOM      8  N   UNL     1       2.658   3.739  17.985  0.00  0.00    +0.000 N 
ATOM      9  C   UNL     1       3.087   3.109  19.136  0.00  0.00    +0.000 A 
ATOM     10  N   UNL     1       4.255   2.485  19.396  0.00  0.00    +0.000 NA
ATOM     11  H   UNL     1       5.220   0.701  21.821  0.00  0.00    +0.000 HD
ATOM     12  H   UNL     1       5.926   0.930  20.264  0.00  0.00    +0.000 HD
ENDROOT
BRANCH   4  13
ATOM     13  O   UNL     1       1.264   2.780  22.261  0.00  0.00    +0.000 OA
ATOM     14  H   UNL     1       1.774   3.180  22.991  0.00  0.00    +0.000 HD
ENDBRANCH   4  13
BRANCH   8  15
ATOM     15  C   UNL     1       3.404   3.962  16.751  0.00  0.00    +0.000 C 
BRANCH  15  16
ATOM     16  C   UNL     1       4.790   4.572  16.992  0.00  0.00    +0.000 C 
ATOM     17  C   UNL     1       5.428   5.054  15.710  0.00  0.00    +0.000 C 
ATOM     18  O   UNL     1       6.483   5.918  16.122  0.00  0.00    +0.000 OA
ATOM     19  C   UNL     1       6.147   6.309  17.470  0.00  0.00    +0.000 C 
ATOM     20  O   UNL     1       4.842   5.756  17.805  0.00  0.00    +0.000 OA
BRANCH  19  21
ATOM     21  P   UNL     1       7.470   5.650  18.542  0.00  0.00    +0.000 P 
ATOM     22  O   UNL     1       8.303   4.504  18.056  0.00  0.00    +0.000 OA
BRANCH  21  23
ATOM     23  O   UNL     1       8.403   6.905  18.934  0.00  0.00    +0.000 OA
ATOM     24  H   UNL     1       8.524   7.545  18.211  0.00  0.00    +0.000 HD
ENDBRANCH  21  23
BRANCH  21  25
ATOM     25  O   UNL     1       6.848   5.326  19.991  0.00  0.00    +0.000 OA
ATOM     26  H   UNL     1       6.888   6.105  20.581  0.00  0.00    +0.000 HD
ENDBRANCH  21  25
ENDBRANCH  19  21
ENDBRANCH  15  16
ENDBRANCH   8  15
TORSDOF 6
ENDMDL
MODEL 6
REMARK VINA RESULT:      -7.3      3.241      5.768
REMARK  Name = 
REMARK  6 active torsions:
REMARK  status: ('A' for Active; 'I' for Inactive)
REMARK    1  A    between atoms: C_4  and  O_5
REMARK    2  A    between atoms: N_9  and  C_10
REMARK    3  A    between atoms: C_10  and  C_11
REMARK    4  A    between atoms: C_14  and  P_15
REMARK    5  A    between atoms: P_15  and  O_17
REMARK    6  A    between atoms: P_15  and  O_18
REMARK                            x       y       z     vdW  Elec       q    Type
REMARK                         _______ _______ _______ _____ _____    ______ ____
ROOT
ATOM      1  N   UNL     1       5.464   1.343  21.116  0.00  0.00    +0.000 N 
ATOM      2  C   UNL     1       4.291   1.952  20.712  0.00  0.00    +0.000 A 
ATOM      3  N   UNL     1       3.361   2.060  21.675  0.00  0.00    +0.000 NA
ATOM      4  C   UNL     1       2.197   2.633  21.348  0.00  0.00    +0.000 A 
ATOM      5  C   UNL     1       1.958   3.076  20.047  0.00  0.00    +0.000 A 
ATOM      6  N   UNL     1       0.867   3.651  19.466  0.00  0.00    +0.000 NA
ATOM      7  C   UNL     1       1.226   3.847  18.216  0.00  0.00    +0.000 A 
ATOM      8  N   UNL     1       2.520   3.443  17.973  0.00  0.00    +0.000 N 
ATOM      9  C   UNL     1       3.002   2.910  19.152  0.00  0.00    +0.000 A 
ATOM     10  N   UNL     1       4.197   2.342  19.419  0.00  0.00    +0.000 NA
ATOM     11  H   UNL     1       5.289   0.765  21.932  0.00  0.00    +0.000 HD
ATOM     12  H   UNL     1       5.942   0.905  20.342  0.00  0.00    +0.000 HD
ENDROOT
BRANCH   4  13
ATOM     13  O   UNL     1       1.279   2.745  22.345  0.00  0.00    +0.000 OA
ATOM     14  H   UNL     1       0.862   3.600  22.126  0.00  0.00    +0.000 HD
ENDBRANCH   4  13
BRANCH   8  15
ATOM     15  C   UNL     1       3.223   3.601  16.705  0.00  0.00    +0.000 C 
BRANCH  15  16
ATOM     16  C   UNL     1       4.642   4.158  16.873  0.00  0.00    +0.000 C 
ATOM     17  C   UNL     1       5.361   4.288  15.550  0.00  0.00    +0.000 C 
ATOM     18  O   UNL     1       6.463   5.152  15.809  0.00  0.00    +0.000 OA
ATOM     19  C   UNL     1       6.109   5.865  17.013  0.00  0.00    +0.000 C 
ATOM     20  O   UNL     1       4.754   5.492  17.396  0.00  0.00    +0.000 OA
BRANCH  19  21
ATOM     21  P   UNL     1       7.339   5.386  18.275  0.00  0.00    +0.000 P 
ATOM     22  O   UNL     1       8.232   6.435  18.862  0.00  0.00    +0.000 OA
BRANCH  21  23
ATOM     23  O   UNL     1       6.523   4.619  19.435  0.00  0.00    +0.000 OA
ATOM     24  H   UNL     1       7.090   4.114  20.045  0.00  0.00    +0.000 HD
ENDBRANCH  21  23
BRANCH  21  25
ATOM     25  O   UNL     1       8.207   4.153  17.709  0.00  0.00    +0.000 OA
ATOM     26  H   UNL     1       9.084   4.105  18.138  0.00  0.00    +0.000 HD
ENDBRANCH  21  25
ENDBRANCH  19  21
ENDBRANCH  15  16
ENDBRANCH   8  15
TORSDOF 6
ENDMDL
MODEL 7
REMARK VINA RESULT:      -7.2      3.572      6.401
REMARK  Name = 
REMARK  6 active torsions:
REMARK  status: ('A' for Active; 'I' for Inactive)
REMARK    1  A    between atoms: C_4  and  O_5
REMARK    2  A    between atoms: N_9  and  C_10
REMARK    3  A    between atoms: C_10  and  C_11
REMARK    4  A    between atoms: C_14  and  P_15
REMARK    5  A    between atoms: P_15  and  O_17
REMARK    6  A    between atoms: P_15  and  O_18
REMARK                            x       y       z     vdW  Elec       q    Type
REMARK                         _______ _______ _______ _____ _____    ______ ____
ROOT
ATOM      1  N   UNL     1       3.905   0.587  18.310  0.00  0.00    +0.000 N 
ATOM      2  C   UNL     1       3.406   1.798  18.749  0.00  0.00    +0.000 A 
ATOM      3  N   UNL     1       2.095   1.786  19.040  0.00  0.00    +0.000 NA
ATOM      4  C   UNL     1       1.545   2.931  19.462  0.00  0.00    +0.000 A 
ATOM      5  C   UNL     1       2.307   4.095  19.568  0.00  0.00    +0.000 A 
ATOM      6  N   UNL     1       1.981   5.367  19.934  0.00  0.00    +0.000 NA
ATOM      7  C   UNL     1       3.110   6.034  19.842  0.00  0.00    +0.000 A 
ATOM      8  N   UNL     1       4.162   5.233  19.454  0.00  0.00    +0.000 N 
ATOM      9  C   UNL     1       3.647   3.970  19.242  0.00  0.00    +0.000 A 
ATOM     10  N   UNL     1       4.261   2.847  18.812  0.00  0.00    +0.000 NA
ATOM     11  H   UNL     1       3.153   0.018  17.937  0.00  0.00    +0.000 HD
ATOM     12  H   UNL     1       4.718   0.710  17.723  0.00  0.00    +0.000 HD
ENDROOT
BRANCH   4  13
ATOM     13  O   UNL     1       0.220   2.886  19.765  0.00  0.00    +0.000 OA
ATOM     14  H   UNL     1      -0.091   3.731  19.387  0.00  0.00    +0.000 HD
ENDBRANCH   4  13
BRANCH   8  15
ATOM     15  C   UNL     1       5.549   5.669  19.336  0.00  0.00    +0.000 C 
BRANCH  15  16
ATOM     16  C   UNL     1       6.051   5.683  17.888  0.00  0.00    +0.000 C 
ATOM     17  C   UNL     1       7.049   6.791  17.644  0.00  0.00    +0.000 C 
ATOM     18  O   UNL     1       7.698   6.445  16.424  0.00  0.00    +0.000 OA
ATOM     19  C   UNL     1       7.476   5.028  16.266  0.00  0.00    +0.000 C 
ATOM     20  O   UNL     1       6.787   4.529  17.449  0.00  0.00    +0.000 OA
BRANCH  19  21
ATOM     21  P   UNL     1       6.476   4.829  14.751  0.00  0.00    +0.000 P 
ATOM     22  O   UNL     1       5.126   5.474  14.675  0.00  0.00    +0.000 OA
BRANCH  21  23
ATOM     23  O   UNL     1       7.407   5.312  13.526  0.00  0.00    +0.000 OA
ATOM     24  H   UNL     1       7.028   5.127  12.649  0.00  0.00    +0.000 HD
ENDBRANCH  21  23
BRANCH  21  25
ATOM     25  O   UNL     1       6.377   3.261  14.399  0.00  0.00    +0.000 OA
ATOM     26  H   UNL     1       5.692   2.815  14.936  0.00  0.00    +0.000 HD
ENDBRANCH  21  25
ENDBRANCH  19  21
ENDBRANCH  15  16
ENDBRANCH   8  15
TORSDOF 6
ENDMDL
MODEL 8
REMARK VINA RESULT:      -7.1      3.449      6.136
REMARK  Name = 
REMARK  6 active torsions:
REMARK  status: ('A' for Active; 'I' for Inactive)
REMARK    1  A    between atoms: C_4  and  O_5
REMARK    2  A    between atoms: N_9  and  C_10
REMARK    3  A    between atoms: C_10  and  C_11
REMARK    4  A    between atoms: C_14  and  P_15
REMARK    5  A    between atoms: P_15  and  O_17
REMARK    6  A    between atoms: P_15  and  O_18
REMARK                            x       y       z     vdW  Elec       q    Type
REMARK                         _______ _______ _______ _____ _____    ______ ____
ROOT
ATOM      1  N   UNL     1       3.654   1.335  18.078  0.00  0.00    +0.000 N 
ATOM      2  C   UNL     1       3.188   2.369  18.867  0.00  0.00    +0.000 A 
ATOM      3  N   UNL     1       2.760   1.991  20.083  0.00  0.00    +0.000 NA
ATOM      4  C   UNL     1       2.287   2.943  20.895  0.00  0.00    +0.000 A 
ATOM      5  C   UNL     1       2.221   4.273  20.478  0.00  0.00    +0.000 A 
ATOM      6  N   UNL     1       1.761   5.399  21.093  0.00  0.00    +0.000 NA
ATOM      7  C   UNL     1       1.953   6.355  20.211  0.00  0.00    +0.000 A 
ATOM      8  N   UNL     1       2.545   5.893  19.056  0.00  0.00    +0.000 N 
ATOM      9  C   UNL     1       2.699   4.529  19.203  0.00  0.00    +0.000 A 
ATOM     10  N   UNL     1       3.189   3.616  18.338  0.00  0.00    +0.000 NA
ATOM     11  H   UNL     1       3.259   0.456  18.393  0.00  0.00    +0.000 HD
ATOM     12  H   UNL     1       3.565   1.549  17.094  0.00  0.00    +0.000 HD
ENDROOT
BRANCH   4  13
ATOM     13  O   UNL     1       1.876   2.535  22.126  0.00  0.00    +0.000 OA
ATOM     14  H   UNL     1       1.063   3.064  22.241  0.00  0.00    +0.000 HD
ENDBRANCH   4  13
BRANCH   8  15
ATOM     15  C   UNL     1       2.950   6.727  17.930  0.00  0.00    +0.000 C 
BRANCH  15  16
ATOM     16  C   UNL     1       4.330   6.354  17.376  0.00  0.00    +0.000 C 
ATOM     17  C   UNL     1       4.931   7.471  16.553  0.00  0.00    +0.000 C 
ATOM     18  O   UNL     1       6.315   7.151  16.447  0.00  0.00    +0.000 OA
ATOM     19  C   UNL     1       6.577   6.241  17.535  0.00  0.00    +0.000 C 
ATOM     20  O   UNL     1       5.369   6.114  18.339  0.00  0.00    +0.000 OA
BRANCH  19  21
ATOM     21  P   UNL     1       7.069   4.656  16.775  0.00  0.00    +0.000 P 
ATOM     22  O   UNL     1       7.475   4.630  15.333  0.00  0.00    +0.000 OA
BRANCH  21  23
ATOM     23  O   UNL     1       8.237   4.049  17.706  0.00  0.00    +0.000 OA
ATOM     24  H   UNL     1       7.917   3.423  18.379  0.00  0.00    +0.000 HD
ENDBRANCH  21  23
BRANCH  21  25
ATOM     25  O   UNL     1       5.918   3.567  17.060  0.00  0.00    +0.000 OA
ATOM     26  H   UNL     1       5.926   2.852  16.392  0.00  0.00    +0.000 HD
ENDBRANCH  21  25
ENDBRANCH  19  21
ENDBRANCH  15  16
ENDBRANCH   8  15
TORSDOF 6
ENDMDL
MODEL 9
REMARK VINA RESULT:      -7.1      3.392      5.981
REMARK  Name = 
REMARK  6 active torsions:
REMARK  status: ('A' for Active; 'I' for Inactive)
REMARK    1  A    between atoms: C_4  and  O_5
REMARK    2  A    between atoms: N_9  and  C_10
REMARK    3  A    between atoms: C_10  and  C_11
REMARK    4  A    between atoms: C_14  and  P_15
REMARK    5  A    between atoms: P_15  and  O_17
REMARK    6  A    between atoms: P_15  and  O_18
REMARK                            x       y       z     vdW  Elec       q    Type
REMARK                         _______ _______ _______ _____ _____    ______ ____
ROOT
ATOM      1  N   UNL     1       2.155   7.020  20.482  0.00  0.00    +0.000 N 
ATOM      2  C   UNL     1       2.106   5.707  20.055  0.00  0.00    +0.000 A 
ATOM      3  N   UNL     1       1.380   4.894  20.840  0.00  0.00    +0.000 NA
ATOM      4  C   UNL     1       1.299   3.606  20.488  0.00  0.00    +0.000 A 
ATOM      5  C   UNL     1       1.968   3.128  19.360  0.00  0.00    +0.000 A 
ATOM      6  N   UNL     1       2.067   1.880  18.821  0.00  0.00    +0.000 NA
ATOM      7  C   UNL     1       2.830   2.041  17.762  0.00  0.00    +0.000 A 
ATOM      8  N   UNL     1       3.208   3.354  17.582  0.00  0.00    +0.000 N 
ATOM      9  C   UNL     1       2.677   4.072  18.635  0.00  0.00    +0.000 A 
ATOM     10  N   UNL     1       2.796   5.382  18.936  0.00  0.00    +0.000 NA
ATOM     11  H   UNL     1       1.958   7.067  21.476  0.00  0.00    +0.000 HD
ATOM     12  H   UNL     1       2.992   7.485  20.160  0.00  0.00    +0.000 HD
ENDROOT
BRANCH   4  13
ATOM     13  O   UNL     1       0.545   2.808  21.291  0.00  0.00    +0.000 OA
ATOM     14  H   UNL     1       0.006   3.470  21.765  0.00  0.00    +0.000 HD
ENDBRANCH   4  13
BRANCH   8  15
ATOM     15  C   UNL     1       3.990   3.855  16.458  0.00  0.00    +0.000 C 
BRANCH  15  16
ATOM     16  C   UNL     1       5.381   4.350  16.871  0.00  0.00    +0.000 C 
ATOM     17  C   UNL     1       6.384   4.228  15.746  0.00  0.00    +0.000 C 
ATOM     18  O   UNL     1       7.475   5.059  16.130  0.00  0.00    +0.000 OA
ATOM     19  C   UNL     1       6.931   5.972  17.105  0.00  0.00    +0.000 C 
ATOM     20  O   UNL     1       5.497   5.741  17.212  0.00  0.00    +0.000 OA
BRANCH  19  21
ATOM     21  P   UNL     1       7.802   5.629  18.673  0.00  0.00    +0.000 P 
ATOM     22  O   UNL     1       8.763   4.482  18.742  0.00  0.00    +0.000 OA
BRANCH  21  23
ATOM     23  O   UNL     1       8.528   7.005  19.099  0.00  0.00    +0.000 OA
ATOM     24  H   UNL     1       8.571   7.144  20.062  0.00  0.00    +0.000 HD
ENDBRANCH  21  23
BRANCH  21  25
ATOM     25  O   UNL     1       6.716   5.532  19.858  0.00  0.00    +0.000 OA
ATOM     26  H   UNL     1       5.808   5.676  19.525  0.00  0.00    +0.000 HD
ENDBRANCH  21  25
ENDBRANCH  19  21
ENDBRANCH  15  16
ENDBRANCH   8  15
TORSDOF 6
ENDMDL
