MODEL 1
REMARK VINA RESULT:      -6.3      0.000      0.000
REMARK  Name = 
REMARK  5 active torsions:
REMARK  status: ('A' for Active; 'I' for Inactive)
REMARK    1  A    between atoms: C_2  and  C_3
REMARK    2  A    between atoms: C_6  and  C_7
REMARK    3  A    between atoms: C_7  and  C_8
REMARK    4  A    between atoms: C_8  and  C_9
REMARK    5  A    between atoms: C_12  and  C_13
REMARK                            x       y       z     vdW  Elec       q    Type
REMARK                         _______ _______ _______ _____ _____    ______ ____
ROOT
ATOM      1  C   UNL     1       3.746   2.815  17.656  0.00  0.00    +0.000 C 
ENDROOT
BRANCH   1   5
ATOM      2  C   UNL     1       6.486   6.166  17.494  0.00  0.00    +0.000 A 
ATOM      3  C   UNL     1       5.827   5.735  16.342  0.00  0.00    +0.000 A 
ATOM      4  C   UNL     1       4.959   4.638  16.395  0.00  0.00    +0.000 A 
ATOM      5  C   UNL     1       4.733   3.962  17.602  0.00  0.00    +0.000 A 
ATOM      6  C   UNL     1       5.416   4.386  18.751  0.00  0.00    +0.000 A 
ATOM      7  C   UNL     1       6.285   5.483  18.698  0.00  0.00    +0.000 A 
BRANCH   2   9
ATOM      8  N   UNL     1       8.053   8.235  17.415  0.00  0.00    +0.000 NA
ATOM      9  C   UNL     1       7.352   7.311  17.447  0.00  0.00    +0.000 C 
ENDBRANCH   2   9
ENDBRANCH   1   5
BRANCH   1  10
ATOM     10  C   UNL     1       2.283   3.274  17.697  0.00  0.00    +0.000 C 
BRANCH  10  11
ATOM     11  C   UNL     1       2.081   4.498  18.568  0.00  0.00    +0.000 A 
ATOM     12  C   UNL     1       2.143   5.792  18.028  0.00  0.00    +0.000 A 
ATOM     13  C   UNL     1       1.963   6.914  18.846  0.00  0.00    +0.000 A 
ATOM     14  C   UNL     1       1.722   6.758  20.215  0.00  0.00    +0.000 A 
ATOM     15  C   UNL     1       1.651   5.471  20.757  0.00  0.00    +0.000 A 
ATOM     16  C   UNL     1       1.832   4.351  19.940  0.00  0.00    +0.000 A 
BRANCH  14  17
ATOM     17  C   UNL     1       1.556   7.907  21.058  0.00  0.00    +0.000 C 
ATOM     18  N   UNL     1       1.416   8.832  21.746  0.00  0.00    +0.000 NA
ENDBRANCH  14  17
ENDBRANCH  10  11
ENDBRANCH   1  10
TORSDOF 5
ENDMDL
MODEL 2
REMARK VINA RESULT:      -6.3      2.967      6.444
REMARK  Name = 
REMARK  5 active torsions:
REMARK  status: ('A' for Active; 'I' for Inactive)
REMARK    1  A    between atoms: C_2  and  C_3
REMARK    2  A    between atoms: C_6  and  C_7
REMARK    3  A    between atoms: C_7  and  C_8
REMARK    4  A    between atoms: C_8  and  C_9
REMARK    5  A    between atoms: C_12  and  C_13
REMARK                            x       y       z     vdW  Elec       q    Type
REMARK                         _______ _______ _______ _____ _____    ______ ____
ROOT
ATOM      1  C   UNL     1       6.261   5.541  19.374  0.00  0.00    +0.000 C 
ENDROOT
BRANCH   1   5
ATOM      2  C   UNL     1       2.468   3.496  18.933  0.00  0.00    +0.000 A 
ATOM      3  C   UNL     1       2.513   4.886  19.046  0.00  0.00    +0.000 A 
ATOM      4  C   UNL     1       3.739   5.540  19.209  0.00  0.00    +0.000 A 
ATOM      5  C   UNL     1       4.937   4.815  19.256  0.00  0.00    +0.000 A 
ATOM      6  C   UNL     1       4.883   3.416  19.166  0.00  0.00    +0.000 A 
ATOM      7  C   UNL     1       3.656   2.761  19.002  0.00  0.00    +0.000 A 
BRANCH   2   9
ATOM      8  N   UNL     1       0.202   2.282  18.567  0.00  0.00    +0.000 NA
ATOM      9  C   UNL     1       1.213   2.826  18.733  0.00  0.00    +0.000 C 
ENDBRANCH   2   9
ENDBRANCH   1   5
BRANCH   1  10
ATOM     10  C   UNL     1       6.560   6.455  18.179  0.00  0.00    +0.000 C 
BRANCH  10  11
ATOM     11  C   UNL     1       6.384   5.751  16.848  0.00  0.00    +0.000 A 
ATOM     12  C   UNL     1       5.420   6.177  15.922  0.00  0.00    +0.000 A 
ATOM     13  C   UNL     1       5.263   5.512  14.700  0.00  0.00    +0.000 A 
ATOM     14  C   UNL     1       6.064   4.408  14.390  0.00  0.00    +0.000 A 
ATOM     15  C   UNL     1       7.030   3.982  15.305  0.00  0.00    +0.000 A 
ATOM     16  C   UNL     1       7.186   4.647  16.525  0.00  0.00    +0.000 A 
BRANCH  14  17
ATOM     17  C   UNL     1       5.891   3.713  13.146  0.00  0.00    +0.000 C 
ATOM     18  N   UNL     1       5.747   3.145  12.143  0.00  0.00    +0.000 NA
ENDBRANCH  14  17
ENDBRANCH  10  11
ENDBRANCH   1  10
TORSDOF 5
ENDMDL
MODEL 3
REMARK VINA RESULT:      -6.3      2.970      6.492
REMARK  Name = 
REMARK  5 active torsions:
REMARK  status: ('A' for Active; 'I' for Inactive)
REMARK    1  A    between atoms: C_2  and  C_3
REMARK    2  A    between atoms: C_6  and  C_7
REMARK    3  A    between atoms: C_7  and  C_8
REMARK    4  A    between atoms: C_8  and  C_9
REMARK    5  A    between atoms: C_12  and  C_13
REMARK                            x       y       z     vdW  Elec       q    Type
REMARK                         _______ _______ _______ _____ _____    ______ ____
ROOT
ATOM      1  C   UNL     1       6.278   5.536  19.374  0.00  0.00    +0.000 C 
ENDROOT
BRANCH   1   5
ATOM      2  C   UNL     1       2.480   3.497  18.946  0.00  0.00    +0.000 A 
ATOM      3  C   UNL     1       2.529   4.889  19.037  0.00  0.00    +0.000 A 
ATOM      4  C   UNL     1       3.757   5.541  19.197  0.00  0.00    +0.000 A 
ATOM      5  C   UNL     1       4.953   4.812  19.261  0.00  0.00    +0.000 A 
ATOM      6  C   UNL     1       4.894   3.413  19.191  0.00  0.00    +0.000 A 
ATOM      7  C   UNL     1       3.665   2.759  19.031  0.00  0.00    +0.000 A 
BRANCH   2   9
ATOM      8  N   UNL     1       0.208   2.293  18.586  0.00  0.00    +0.000 NA
ATOM      9  C   UNL     1       1.224   2.829  18.749  0.00  0.00    +0.000 C 
ENDBRANCH   2   9
ENDBRANCH   1   5
BRANCH   1  10
ATOM     10  C   UNL     1       6.593   6.421  18.161  0.00  0.00    +0.000 C 
BRANCH  10  11
ATOM     11  C   UNL     1       6.400   5.694  16.844  0.00  0.00    +0.000 A 
ATOM     12  C   UNL     1       7.166   4.565  16.519  0.00  0.00    +0.000 A 
ATOM     13  C   UNL     1       6.983   3.909  15.295  0.00  0.00    +0.000 A 
ATOM     14  C   UNL     1       6.034   4.376  14.379  0.00  0.00    +0.000 A 
ATOM     15  C   UNL     1       5.263   5.497  14.701  0.00  0.00    +0.000 A 
ATOM     16  C   UNL     1       5.447   6.151  15.923  0.00  0.00    +0.000 A 
BRANCH  14  17
ATOM     17  C   UNL     1       5.858   3.717  13.118  0.00  0.00    +0.000 C 
ATOM     18  N   UNL     1       5.713   3.175  12.100  0.00  0.00    +0.000 NA
ENDBRANCH  14  17
ENDBRANCH  10  11
ENDBRANCH   1  10
TORSDOF 5
ENDMDL
MODEL 4
REMARK VINA RESULT:      -6.3      0.345      1.186
REMARK  Name = 
REMARK  5 active torsions:
REMARK  status: ('A' for Active; 'I' for Inactive)
REMARK    1  A    between atoms: C_2  and  C_3
REMARK    2  A    between atoms: C_6  and  C_7
REMARK    3  A    between atoms: C_7  and  C_8
REMARK    4  A    between atoms: C_8  and  C_9
REMARK    5  A    between atoms: C_12  and  C_13
REMARK                            x       y       z     vdW  Elec       q    Type
REMARK                         _______ _______ _______ _____ _____    ______ ____
ROOT
ATOM      1  C   UNL     1       3.760   3.197  17.477  0.00  0.00    +0.000 C 
ENDROOT
BRANCH   1   5
ATOM      2  C   UNL     1       6.644   6.427  17.602  0.00  0.00    +0.000 A 
ATOM      3  C   UNL     1       5.957   6.138  16.422  0.00  0.00    +0.000 A 
ATOM      4  C   UNL     1       5.043   5.080  16.381  0.00  0.00    +0.000 A 
ATOM      5  C   UNL     1       4.797   4.301  17.520  0.00  0.00    +0.000 A 
ATOM      6  C   UNL     1       5.507   4.583  18.696  0.00  0.00    +0.000 A 
ATOM      7  C   UNL     1       6.423   5.642  18.738  0.00  0.00    +0.000 A 
BRANCH   2   9
ATOM      8  N   UNL     1       8.294   8.431  17.693  0.00  0.00    +0.000 NA
ATOM      9  C   UNL     1       7.559   7.534  17.653  0.00  0.00    +0.000 C 
ENDBRANCH   2   9
ENDBRANCH   1   5
BRANCH   1  10
ATOM     10  C   UNL     1       2.317   3.718  17.492  0.00  0.00    +0.000 C 
BRANCH  10  11
ATOM     11  C   UNL     1       2.118   4.852  18.479  0.00  0.00    +0.000 A 
ATOM     12  C   UNL     1       1.791   4.600  19.819  0.00  0.00    +0.000 A 
ATOM     13  C   UNL     1       1.600   5.657  20.717  0.00  0.00    +0.000 A 
ATOM     14  C   UNL     1       1.731   6.981  20.286  0.00  0.00    +0.000 A 
ATOM     15  C   UNL     1       2.064   7.239  18.953  0.00  0.00    +0.000 A 
ATOM     16  C   UNL     1       2.253   6.182  18.057  0.00  0.00    +0.000 A 
BRANCH  14  17
ATOM     17  C   UNL     1       1.519   8.066  21.200  0.00  0.00    +0.000 C 
ATOM     18  N   UNL     1       1.341   8.939  21.945  0.00  0.00    +0.000 NA
ENDBRANCH  14  17
ENDBRANCH  10  11
ENDBRANCH   1  10
TORSDOF 5
ENDMDL
MODEL 5
REMARK VINA RESULT:      -6.3      2.968      4.326
REMARK  Name = 
REMARK  5 active torsions:
REMARK  status: ('A' for Active; 'I' for Inactive)
REMARK    1  A    between atoms: C_2  and  C_3
REMARK    2  A    between atoms: C_6  and  C_7
REMARK    3  A    between atoms: C_7  and  C_8
REMARK    4  A    between atoms: C_8  and  C_9
REMARK    5  A    between atoms: C_12  and  C_13
REMARK                            x       y       z     vdW  Elec       q    Type
REMARK                         _______ _______ _______ _____ _____    ______ ____
ROOT
ATOM      1  C   UNL     1       6.591   6.417  18.221  0.00  0.00    +0.000 C 
ENDROOT
BRANCH   1   5
ATOM      2  C   UNL     1       6.051   4.450  14.400  0.00  0.00    +0.000 A 
ATOM      3  C   UNL     1       7.028   4.006  15.292  0.00  0.00    +0.000 A 
ATOM      4  C   UNL     1       7.213   4.658  16.516  0.00  0.00    +0.000 A 
ATOM      5  C   UNL     1       6.419   5.759  16.868  0.00  0.00    +0.000 A 
ATOM      6  C   UNL     1       5.455   6.214  15.957  0.00  0.00    +0.000 A 
ATOM      7  C   UNL     1       5.270   5.561  14.731  0.00  0.00    +0.000 A 
BRANCH   2   9
ATOM      8  N   UNL     1       5.670   3.208  12.151  0.00  0.00    +0.000 NA
ATOM      9  C   UNL     1       5.839   3.760  13.157  0.00  0.00    +0.000 C 
ENDBRANCH   2   9
ENDBRANCH   1   5
BRANCH   1  10
ATOM     10  C   UNL     1       6.243   5.493  19.394  0.00  0.00    +0.000 C 
BRANCH  10  11
ATOM     11  C   UNL     1       4.910   4.794  19.210  0.00  0.00    +0.000 A 
ATOM     12  C   UNL     1       3.710   5.519  19.163  0.00  0.00    +0.000 A 
ATOM     13  C   UNL     1       2.485   4.859  19.001  0.00  0.00    +0.000 A 
ATOM     14  C   UNL     1       2.445   3.466  18.887  0.00  0.00    +0.000 A 
ATOM     15  C   UNL     1       3.638   2.739  18.926  0.00  0.00    +0.000 A 
ATOM     16  C   UNL     1       4.860   3.398  19.089  0.00  0.00    +0.000 A 
BRANCH  14  17
ATOM     17  C   UNL     1       1.190   2.787  18.739  0.00  0.00    +0.000 C 
ATOM     18  N   UNL     1       0.177   2.230  18.618  0.00  0.00    +0.000 NA
ENDBRANCH  14  17
ENDBRANCH  10  11
ENDBRANCH   1  10
TORSDOF 5
ENDMDL
MODEL 6
REMARK VINA RESULT:      -6.3      4.639      8.345
REMARK  Name = 
REMARK  5 active torsions:
REMARK  status: ('A' for Active; 'I' for Inactive)
REMARK    1  A    between atoms: C_2  and  C_3
REMARK    2  A    between atoms: C_6  and  C_7
REMARK    3  A    between atoms: C_7  and  C_8
REMARK    4  A    between atoms: C_8  and  C_9
REMARK    5  A    between atoms: C_12  and  C_13
REMARK                            x       y       z     vdW  Elec       q    Type
REMARK                         _______ _______ _______ _____ _____    ______ ____
ROOT
ATOM      1  C   UNL     1       8.313   8.754  17.451  0.00  0.00    +0.000 C 
ENDROOT
BRANCH   1   5
ATOM      2  C   UNL     1       6.005   5.265  18.576  0.00  0.00    +0.000 A 
ATOM      3  C   UNL     1       7.253   5.503  19.154  0.00  0.00    +0.000 A 
ATOM      4  C   UNL     1       8.004   6.620  18.771  0.00  0.00    +0.000 A 
ATOM      5  C   UNL     1       7.515   7.517  17.811  0.00  0.00    +0.000 A 
ATOM      6  C   UNL     1       6.271   7.259  17.218  0.00  0.00    +0.000 A 
ATOM      7  C   UNL     1       5.519   6.141  17.601  0.00  0.00    +0.000 A 
BRANCH   2   9
ATOM      8  N   UNL     1       4.590   3.222  19.330  0.00  0.00    +0.000 NA
ATOM      9  C   UNL     1       5.219   4.136  18.992  0.00  0.00    +0.000 C 
ENDBRANCH   2   9
ENDBRANCH   1   5
BRANCH   1  10
ATOM     10  C   UNL     1       8.760   9.565  18.674  0.00  0.00    +0.000 C 
BRANCH  10  11
ATOM     11  C   UNL     1       9.355  10.907  18.296  0.00  0.00    +0.000 A 
ATOM     12  C   UNL     1       8.542  11.969  17.872  0.00  0.00    +0.000 A 
ATOM     13  C   UNL     1       9.106  13.201  17.519  0.00  0.00    +0.000 A 
ATOM     14  C   UNL     1      10.491  13.386  17.580  0.00  0.00    +0.000 A 
ATOM     15  C   UNL     1      11.306  12.335  18.008  0.00  0.00    +0.000 A 
ATOM     16  C   UNL     1      10.742  11.105  18.361  0.00  0.00    +0.000 A 
BRANCH  14  17
ATOM     17  C   UNL     1      11.072  14.642  17.201  0.00  0.00    +0.000 C 
ATOM     18  N   UNL     1      11.537  15.659  16.887  0.00  0.00    +0.000 NA
ENDBRANCH  14  17
ENDBRANCH  10  11
ENDBRANCH   1  10
TORSDOF 5
ENDMDL
MODEL 7
REMARK VINA RESULT:      -6.2      2.956      6.451
REMARK  Name = 
REMARK  5 active torsions:
REMARK  status: ('A' for Active; 'I' for Inactive)
REMARK    1  A    between atoms: C_2  and  C_3
REMARK    2  A    between atoms: C_6  and  C_7
REMARK    3  A    between atoms: C_7  and  C_8
REMARK    4  A    between atoms: C_8  and  C_9
REMARK    5  A    between atoms: C_12  and  C_13
REMARK                            x       y       z     vdW  Elec       q    Type
REMARK                         _______ _______ _______ _____ _____    ______ ____
ROOT
ATOM      1  C   UNL     1       6.245   5.536  19.392  0.00  0.00    +0.000 C 
ENDROOT
BRANCH   1   5
ATOM      2  C   UNL     1       2.458   3.505  18.843  0.00  0.00    +0.000 A 
ATOM      3  C   UNL     1       3.653   2.783  18.856  0.00  0.00    +0.000 A 
ATOM      4  C   UNL     1       4.874   3.447  19.011  0.00  0.00    +0.000 A 
ATOM      5  C   UNL     1       4.919   4.839  19.164  0.00  0.00    +0.000 A 
ATOM      6  C   UNL     1       3.717   5.560  19.128  0.00  0.00    +0.000 A 
ATOM      7  C   UNL     1       2.493   4.897  18.972  0.00  0.00    +0.000 A 
BRANCH   2   9
ATOM      8  N   UNL     1       0.188   2.265  18.617  0.00  0.00    +0.000 NA
ATOM      9  C   UNL     1       1.201   2.821  18.716  0.00  0.00    +0.000 C 
ENDBRANCH   2   9
ENDBRANCH   1   5
BRANCH   1  10
ATOM     10  C   UNL     1       6.686   6.404  18.207  0.00  0.00    +0.000 C 
BRANCH  10  11
ATOM     11  C   UNL     1       6.462   5.724  16.871  0.00  0.00    +0.000 A 
ATOM     12  C   UNL     1       5.490   6.189  15.972  0.00  0.00    +0.000 A 
ATOM     13  C   UNL     1       5.288   5.545  14.745  0.00  0.00    +0.000 A 
ATOM     14  C   UNL     1       6.052   4.424  14.403  0.00  0.00    +0.000 A 
ATOM     15  C   UNL     1       7.027   3.960  15.291  0.00  0.00    +0.000 A 
ATOM     16  C   UNL     1       7.227   4.603  16.516  0.00  0.00    +0.000 A 
BRANCH  14  17
ATOM     17  C   UNL     1       5.834   3.752  13.154  0.00  0.00    +0.000 C 
ATOM     18  N   UNL     1       5.656   3.201  12.147  0.00  0.00    +0.000 NA
ENDBRANCH  14  17
ENDBRANCH  10  11
ENDBRANCH   1  10
TORSDOF 5
ENDMDL
MODEL 8
REMARK VINA RESULT:      -6.2      2.301      3.215
REMARK  Name = 
REMARK  5 active torsions:
REMARK  status: ('A' for Active; 'I' for Inactive)
REMARK    1  A    between atoms: C_2  and  C_3
REMARK    2  A    between atoms: C_6  and  C_7
REMARK    3  A    between atoms: C_7  and  C_8
REMARK    4  A    between atoms: C_8  and  C_9
REMARK    5  A    between atoms: C_12  and  C_13
REMARK                            x       y       z     vdW  Elec       q    Type
REMARK                         _______ _______ _______ _____ _____    ______ ____
ROOT
ATOM      1  C   UNL     1       6.013   3.964  16.488  0.00  0.00    +0.000 C 
ENDROOT
BRANCH   1   5
ATOM      2  C   UNL     1       7.936   7.499  18.090  0.00  0.00    +0.000 A 
ATOM      3  C   UNL     1       7.279   7.548  16.860  0.00  0.00    +0.000 A 
ATOM      4  C   UNL     1       6.678   6.398  16.337  0.00  0.00    +0.000 A 
ATOM      5  C   UNL     1       6.719   5.185  17.039  0.00  0.00    +0.000 A 
ATOM      6  C   UNL     1       7.401   5.138  18.263  0.00  0.00    +0.000 A 
ATOM      7  C   UNL     1       8.003   6.289  18.788  0.00  0.00    +0.000 A 
BRANCH   2   9
ATOM      8  N   UNL     1       8.997   9.649  19.088  0.00  0.00    +0.000 NA
ATOM      9  C   UNL     1       8.526   8.688  18.643  0.00  0.00    +0.000 C 
ENDBRANCH   2   9
ENDBRANCH   1   5
BRANCH   1  10
ATOM     10  C   UNL     1       4.489   4.126  16.413  0.00  0.00    +0.000 C 
BRANCH  10  11
ATOM     11  C   UNL     1       3.800   3.758  17.712  0.00  0.00    +0.000 A 
ATOM     12  C   UNL     1       3.601   2.418  18.075  0.00  0.00    +0.000 A 
ATOM     13  C   UNL     1       2.955   2.093  19.274  0.00  0.00    +0.000 A 
ATOM     14  C   UNL     1       2.495   3.105  20.124  0.00  0.00    +0.000 A 
ATOM     15  C   UNL     1       2.696   4.442  19.771  0.00  0.00    +0.000 A 
ATOM     16  C   UNL     1       3.341   4.765  18.573  0.00  0.00    +0.000 A 
BRANCH  14  17
ATOM     17  C   UNL     1       1.816   2.774  21.344  0.00  0.00    +0.000 C 
ATOM     18  N   UNL     1       1.274   2.501  22.334  0.00  0.00    +0.000 NA
ENDBRANCH  14  17
ENDBRANCH  10  11
ENDBRANCH   1  10
TORSDOF 5
ENDMDL
MODEL 9
REMARK VINA RESULT:      -6.2      2.951      4.325
REMARK  Name = 
REMARK  5 active torsions:
REMARK  status: ('A' for Active; 'I' for Inactive)
REMARK    1  A    between atoms: C_2  and  C_3
REMARK    2  A    between atoms: C_6  and  C_7
REMARK    3  A    between atoms: C_7  and  C_8
REMARK    4  A    between atoms: C_8  and  C_9
REMARK    5  A    between atoms: C_12  and  C_13
REMARK                            x       y       z     vdW  Elec       q    Type
REMARK                         _______ _______ _______ _____ _____    ______ ____
ROOT
ATOM      1  C   UNL     1       6.650   6.414  18.142  0.00  0.00    +0.000 C 
ENDROOT
BRANCH   1   5
ATOM      2  C   UNL     1       6.026   4.369  14.375  0.00  0.00    +0.000 A 
ATOM      3  C   UNL     1       5.247   5.476  14.716  0.00  0.00    +0.000 A 
ATOM      4  C   UNL     1       5.439   6.120  15.943  0.00  0.00    +0.000 A 
ATOM      5  C   UNL     1       6.415   5.670  16.844  0.00  0.00    +0.000 A 
ATOM      6  C   UNL     1       7.177   4.544  16.504  0.00  0.00    +0.000 A 
ATOM      7  C   UNL     1       6.986   3.899  15.275  0.00  0.00    +0.000 A 
BRANCH   2   9
ATOM      8  N   UNL     1       5.710   3.214  12.070  0.00  0.00    +0.000 NA
ATOM      9  C   UNL     1       5.852   3.727  13.101  0.00  0.00    +0.000 C 
ENDBRANCH   2   9
ENDBRANCH   1   5
BRANCH   1  10
ATOM     10  C   UNL     1       6.280   5.596  19.386  0.00  0.00    +0.000 C 
BRANCH  10  11
ATOM     11  C   UNL     1       4.959   4.867  19.232  0.00  0.00    +0.000 A 
ATOM     12  C   UNL     1       4.909   3.470  19.117  0.00  0.00    +0.000 A 
ATOM     13  C   UNL     1       3.683   2.811  18.967  0.00  0.00    +0.000 A 
ATOM     14  C   UNL     1       2.491   3.541  18.925  0.00  0.00    +0.000 A 
ATOM     15  C   UNL     1       2.533   4.933  19.046  0.00  0.00    +0.000 A 
ATOM     16  C   UNL     1       3.758   5.590  19.195  0.00  0.00    +0.000 A 
BRANCH  14  17
ATOM     17  C   UNL     1       1.235   2.869  18.753  0.00  0.00    +0.000 C 
ATOM     18  N   UNL     1       0.214   2.332  18.615  0.00  0.00    +0.000 NA
ENDBRANCH  14  17
ENDBRANCH  10  11
ENDBRANCH   1  10
TORSDOF 5
ENDMDL
