MODEL 1
REMARK VINA RESULT:      -8.7      0.000      0.000
REMARK  Name = 
REMARK  7 active torsions:
REMARK  status: ('A' for Active; 'I' for Inactive)
REMARK    1  A    between atoms: C_2  and  O_3
REMARK    2  A    between atoms: O_3  and  C_4
REMARK    3  A    between atoms: C_4  and  C_5
REMARK    4  A    between atoms: C_4  and  C_11
REMARK    5  A    between atoms: C_5  and  N_6
REMARK    6  A    between atoms: N_21  and  C_22
REMARK    7  A    between atoms: C_25  and  N_26
REMARK                            x       y       z     vdW  Elec       q    Type
REMARK                         _______ _______ _______ _____ _____    ______ ____
ROOT
ATOM      1  O   UNL     1       2.907   8.421  16.966  0.00  0.00    +0.000 OA
ATOM      2  C   UNL     1       2.564   8.126  18.099  0.00  0.00    +0.000 C 
ATOM      3  N   UNL     1       1.779   8.923  18.914  0.00  0.00    +0.000 N 
ATOM      4  C   UNL     1       1.387   8.497  20.267  0.00  0.00    +0.000 C 
ATOM      5  C   UNL     1       1.138   9.685  21.214  0.00  0.00    +0.000 C 
ATOM      6  N   UNL     1       0.154  10.565  20.581  0.00  0.00    +0.000 N 
ATOM      7  C   UNL     1       0.610  11.138  19.302  0.00  0.00    +0.000 C 
ATOM      8  C   UNL     1       0.992  10.007  18.315  0.00  0.00    +0.000 C 
ENDROOT
BRANCH   6   9
ATOM      9  C   UNL     1      -0.824  11.200  21.317  0.00  0.00    +0.000 A 
ATOM     10  C   UNL     1      -1.046  10.942  22.678  0.00  0.00    +0.000 A 
ATOM     11  C   UNL     1      -2.110  11.535  23.370  0.00  0.00    +0.000 A 
ATOM     12  C   UNL     1      -2.983  12.391  22.691  0.00  0.00    +0.000 A 
ATOM     13  C   UNL     1      -2.780  12.675  21.339  0.00  0.00    +0.000 A 
ATOM     14  C   UNL     1      -1.698  12.090  20.671  0.00  0.00    +0.000 A 
BRANCH  12  15
ATOM     15  N   UNL     1      -4.129  12.981  23.393  0.00  0.00    +0.000 N 
ATOM     16  O   UNL     1      -4.515  14.101  23.029  0.00  0.00    +0.000 OA
ATOM     17  O   UNL     1      -4.642  12.326  24.311  0.00  0.00    +0.000 OA
ENDBRANCH  12  15
ENDBRANCH   6   9
BRANCH   2  18
ATOM     18  O   UNL     1       2.966   6.997  18.739  0.00  0.00    +0.000 OA
BRANCH  18  19
ATOM     19  C   UNL     1       2.517   5.732  18.207  0.00  0.00    +0.000 C 
BRANCH  19  20
ATOM     20  C   UNL     1       2.090   4.761  19.304  0.00  0.00    +0.000 A 
ATOM     21  C   UNL     1       2.468   4.948  20.643  0.00  0.00    +0.000 A 
ATOM     22  C   UNL     1       2.143   3.998  21.616  0.00  0.00    +0.000 A 
ATOM     23  C   UNL     1       1.435   2.859  21.259  0.00  0.00    +0.000 A 
ATOM     24  F   UNL     1       1.146   1.937  22.187  0.00  0.00    +0.000 F 
ATOM     25  C   UNL     1       1.025   2.659  19.948  0.00  0.00    +0.000 A 
ATOM     26  C   UNL     1       1.330   3.617  18.978  0.00  0.00    +0.000 A 
ENDBRANCH  19  20
BRANCH  19  27
ATOM     27  C   UNL     1       3.699   5.204  17.351  0.00  0.00    +0.000 C 
BRANCH  27  28
ATOM     28  N   UNL     1       5.019   5.399  17.944  0.00  0.00    +0.000 N 
ATOM     29  C   UNL     1       5.957   6.310  17.533  0.00  0.00    +0.000 A 
ATOM     30  C   UNL     1       6.985   6.200  18.440  0.00  0.00    +0.000 A 
ATOM     31  N   UNL     1       6.734   5.201  19.337  0.00  0.00    +0.000 NA
ATOM     32  C   UNL     1       5.565   4.711  18.989  0.00  0.00    +0.000 A 
ENDBRANCH  27  28
ENDBRANCH  19  27
ENDBRANCH  18  19
ENDBRANCH   2  18
TORSDOF 7
ENDMDL
MODEL 2
REMARK VINA RESULT:      -8.5      0.492      1.350
REMARK  Name = 
REMARK  7 active torsions:
REMARK  status: ('A' for Active; 'I' for Inactive)
REMARK    1  A    between atoms: C_2  and  O_3
REMARK    2  A    between atoms: O_3  and  C_4
REMARK    3  A    between atoms: C_4  and  C_5
REMARK    4  A    between atoms: C_4  and  C_11
REMARK    5  A    between atoms: C_5  and  N_6
REMARK    6  A    between atoms: N_21  and  C_22
REMARK    7  A    between atoms: C_25  and  N_26
REMARK                            x       y       z     vdW  Elec       q    Type
REMARK                         _______ _______ _______ _____ _____    ______ ____
ROOT
ATOM      1  O   UNL     1       3.154   8.255  16.795  0.00  0.00    +0.000 OA
ATOM      2  C   UNL     1       2.811   7.945  17.924  0.00  0.00    +0.000 C 
ATOM      3  N   UNL     1       1.998   8.717  18.736  0.00  0.00    +0.000 N 
ATOM      4  C   UNL     1       1.608   8.275  20.085  0.00  0.00    +0.000 C 
ATOM      5  C   UNL     1       1.320   9.452  21.035  0.00  0.00    +0.000 C 
ATOM      6  N   UNL     1       0.317  10.307  20.397  0.00  0.00    +0.000 N 
ATOM      7  C   UNL     1       0.767  10.898  19.124  0.00  0.00    +0.000 C 
ATOM      8  C   UNL     1       1.187   9.783  18.136  0.00  0.00    +0.000 C 
ENDROOT
BRANCH   6   9
ATOM      9  C   UNL     1      -0.683  10.913  21.129  0.00  0.00    +0.000 A 
ATOM     10  C   UNL     1      -1.569  11.852  20.582  0.00  0.00    +0.000 A 
ATOM     11  C   UNL     1      -2.510  12.520  21.378  0.00  0.00    +0.000 A 
ATOM     12  C   UNL     1      -2.561  12.258  22.751  0.00  0.00    +0.000 A 
ATOM     13  C   UNL     1      -1.699  11.320  23.321  0.00  0.00    +0.000 A 
ATOM     14  C   UNL     1      -0.781  10.649  22.505  0.00  0.00    +0.000 A 
BRANCH  12  15
ATOM     15  N   UNL     1      -3.510  12.985  23.603  0.00  0.00    +0.000 N 
ATOM     16  O   UNL     1      -4.670  12.555  23.671  0.00  0.00    +0.000 OA
ATOM     17  O   UNL     1      -3.097  13.988  24.201  0.00  0.00    +0.000 OA
ENDBRANCH  12  15
ENDBRANCH   6   9
BRANCH   2  18
ATOM     18  O   UNL     1       3.239   6.825  18.563  0.00  0.00    +0.000 OA
BRANCH  18  19
ATOM     19  C   UNL     1       2.818   5.551  18.029  0.00  0.00    +0.000 C 
BRANCH  19  20
ATOM     20  C   UNL     1       2.323   4.603  19.118  0.00  0.00    +0.000 A 
ATOM     21  C   UNL     1       1.410   3.573  18.841  0.00  0.00    +0.000 A 
ATOM     22  C   UNL     1       0.900   2.776  19.870  0.00  0.00    +0.000 A 
ATOM     23  C   UNL     1       1.301   2.999  21.180  0.00  0.00    +0.000 A 
ATOM     24  F   UNL     1       0.791   2.250  22.167  0.00  0.00    +0.000 F 
ATOM     25  C   UNL     1       2.221   3.993  21.481  0.00  0.00    +0.000 A 
ATOM     26  C   UNL     1       2.749   4.777  20.453  0.00  0.00    +0.000 A 
ENDBRANCH  19  20
BRANCH  19  27
ATOM     27  C   UNL     1       4.047   5.004  17.255  0.00  0.00    +0.000 C 
BRANCH  27  28
ATOM     28  N   UNL     1       5.338   5.306  17.865  0.00  0.00    +0.000 N 
ATOM     29  C   UNL     1       6.247   6.223  17.408  0.00  0.00    +0.000 A 
ATOM     30  C   UNL     1       7.251   6.234  18.347  0.00  0.00    +0.000 A 
ATOM     31  N   UNL     1       7.018   5.297  19.315  0.00  0.00    +0.000 NA
ATOM     32  C   UNL     1       5.883   4.728  18.976  0.00  0.00    +0.000 A 
ENDBRANCH  27  28
ENDBRANCH  19  27
ENDBRANCH  18  19
ENDBRANCH   2  18
TORSDOF 7
ENDMDL
MODEL 3
REMARK VINA RESULT:      -8.5      1.177      1.571
REMARK  Name = 
REMARK  7 active torsions:
REMARK  status: ('A' for Active; 'I' for Inactive)
REMARK    1  A    between atoms: C_2  and  O_3
REMARK    2  A    between atoms: O_3  and  C_4
REMARK    3  A    between atoms: C_4  and  C_5
REMARK    4  A    between atoms: C_4  and  C_11
REMARK    5  A    between atoms: C_5  and  N_6
REMARK    6  A    between atoms: N_21  and  C_22
REMARK    7  A    between atoms: C_25  and  N_26
REMARK                            x       y       z     vdW  Elec       q    Type
REMARK                         _______ _______ _______ _____ _____    ______ ____
ROOT
ATOM      1  O   UNL     1       2.647   8.585  17.156  0.00  0.00    +0.000 OA
ATOM      2  C   UNL     1       2.340   8.345  18.311  0.00  0.00    +0.000 C 
ATOM      3  N   UNL     1       1.528   9.151  19.092  0.00  0.00    +0.000 N 
ATOM      4  C   UNL     1       1.183   8.792  20.477  0.00  0.00    +0.000 C 
ATOM      5  C   UNL     1       0.890  10.023  21.353  0.00  0.00    +0.000 C 
ATOM      6  N   UNL     1      -0.150  10.810  20.686  0.00  0.00    +0.000 N 
ATOM      7  C   UNL     1       0.253  11.324  19.365  0.00  0.00    +0.000 C 
ATOM      8  C   UNL     1       0.676  10.154  18.443  0.00  0.00    +0.000 C 
ENDROOT
BRANCH   6   9
ATOM      9  C   UNL     1      -1.146  11.441  21.402  0.00  0.00    +0.000 A 
ATOM     10  C   UNL     1      -1.326  11.263  22.781  0.00  0.00    +0.000 A 
ATOM     11  C   UNL     1      -2.408  11.843  23.458  0.00  0.00    +0.000 A 
ATOM     12  C   UNL     1      -3.339  12.604  22.744  0.00  0.00    +0.000 A 
ATOM     13  C   UNL     1      -3.179  12.807  21.373  0.00  0.00    +0.000 A 
ATOM     14  C   UNL     1      -2.081  12.237  20.720  0.00  0.00    +0.000 A 
BRANCH  12  15
ATOM     15  N   UNL     1      -4.502  13.178  23.433  0.00  0.00    +0.000 N 
ATOM     16  O   UNL     1      -4.552  14.411  23.551  0.00  0.00    +0.000 OA
ATOM     17  O   UNL     1      -5.363  12.396  23.859  0.00  0.00    +0.000 OA
ENDBRANCH  12  15
ENDBRANCH   6   9
BRANCH   2  18
ATOM     18  O   UNL     1       2.811   7.280  19.013  0.00  0.00    +0.000 OA
BRANCH  18  19
ATOM     19  C   UNL     1       3.404   6.198  18.264  0.00  0.00    +0.000 C 
BRANCH  19  20
ATOM     20  C   UNL     1       2.650   4.884  18.451  0.00  0.00    +0.000 A 
ATOM     21  C   UNL     1       2.798   3.814  17.554  0.00  0.00    +0.000 A 
ATOM     22  C   UNL     1       2.029   2.655  17.694  0.00  0.00    +0.000 A 
ATOM     23  C   UNL     1       1.112   2.555  18.732  0.00  0.00    +0.000 A 
ATOM     24  F   UNL     1       0.358   1.454  18.848  0.00  0.00    +0.000 F 
ATOM     25  C   UNL     1       0.963   3.586  19.649  0.00  0.00    +0.000 A 
ATOM     26  C   UNL     1       1.745   4.736  19.525  0.00  0.00    +0.000 A 
ENDBRANCH  19  20
BRANCH  19  27
ATOM     27  C   UNL     1       4.879   6.130  18.739  0.00  0.00    +0.000 C 
BRANCH  27  28
ATOM     28  N   UNL     1       5.817   5.610  17.749  0.00  0.00    +0.000 N 
ATOM     29  C   UNL     1       5.782   5.857  16.402  0.00  0.00    +0.000 A 
ATOM     30  C   UNL     1       6.907   5.251  15.895  0.00  0.00    +0.000 A 
ATOM     31  N   UNL     1       7.579   4.580  16.878  0.00  0.00    +0.000 NA
ATOM     32  C   UNL     1       6.879   4.780  17.971  0.00  0.00    +0.000 A 
ENDBRANCH  27  28
ENDBRANCH  19  27
ENDBRANCH  18  19
ENDBRANCH   2  18
TORSDOF 7
ENDMDL
MODEL 4
REMARK VINA RESULT:      -8.5      1.234      1.631
REMARK  Name = 
REMARK  7 active torsions:
REMARK  status: ('A' for Active; 'I' for Inactive)
REMARK    1  A    between atoms: C_2  and  O_3
REMARK    2  A    between atoms: O_3  and  C_4
REMARK    3  A    between atoms: C_4  and  C_5
REMARK    4  A    between atoms: C_4  and  C_11
REMARK    5  A    between atoms: C_5  and  N_6
REMARK    6  A    between atoms: N_21  and  C_22
REMARK    7  A    between atoms: C_25  and  N_26
REMARK                            x       y       z     vdW  Elec       q    Type
REMARK                         _______ _______ _______ _____ _____    ______ ____
ROOT
ATOM      1  O   UNL     1       2.751   8.679  17.014  0.00  0.00    +0.000 OA
ATOM      2  C   UNL     1       2.397   8.366  18.139  0.00  0.00    +0.000 C 
ATOM      3  N   UNL     1       1.597   9.147  18.955  0.00  0.00    +0.000 N 
ATOM      4  C   UNL     1       1.192   8.701  20.298  0.00  0.00    +0.000 C 
ATOM      5  C   UNL     1       0.924   9.875  21.257  0.00  0.00    +0.000 C 
ATOM      6  N   UNL     1      -0.058  10.756  20.624  0.00  0.00    +0.000 N 
ATOM      7  C   UNL     1       0.408  11.350  19.358  0.00  0.00    +0.000 C 
ATOM      8  C   UNL     1       0.809  10.234  18.362  0.00  0.00    +0.000 C 
ENDROOT
BRANCH   6   9
ATOM      9  C   UNL     1      -1.049  11.376  21.357  0.00  0.00    +0.000 A 
ATOM     10  C   UNL     1      -1.217  11.178  22.736  0.00  0.00    +0.000 A 
ATOM     11  C   UNL     1      -2.293  11.748  23.430  0.00  0.00    +0.000 A 
ATOM     12  C   UNL     1      -3.231  12.518  22.735  0.00  0.00    +0.000 A 
ATOM     13  C   UNL     1      -3.083  12.741  21.365  0.00  0.00    +0.000 A 
ATOM     14  C   UNL     1      -1.990  12.181  20.695  0.00  0.00    +0.000 A 
BRANCH  12  15
ATOM     15  N   UNL     1      -4.388  13.081  23.442  0.00  0.00    +0.000 N 
ATOM     16  O   UNL     1      -4.742  14.231  23.146  0.00  0.00    +0.000 OA
ATOM     17  O   UNL     1      -4.942  12.374  24.296  0.00  0.00    +0.000 OA
ENDBRANCH  12  15
ENDBRANCH   6   9
BRANCH   2  18
ATOM     18  O   UNL     1       2.799   7.232  18.769  0.00  0.00    +0.000 OA
BRANCH  18  19
ATOM     19  C   UNL     1       3.267   6.142  17.947  0.00  0.00    +0.000 C 
BRANCH  19  20
ATOM     20  C   UNL     1       2.585   4.821  18.294  0.00  0.00    +0.000 A 
ATOM     21  C   UNL     1       1.822   4.669  19.463  0.00  0.00    +0.000 A 
ATOM     22  C   UNL     1       1.284   3.425  19.806  0.00  0.00    +0.000 A 
ATOM     23  C   UNL     1       1.499   2.329  18.983  0.00  0.00    +0.000 A 
ATOM     24  F   UNL     1       1.003   1.133  19.327  0.00  0.00    +0.000 F 
ATOM     25  C   UNL     1       2.226   2.454  17.808  0.00  0.00    +0.000 A 
ATOM     26  C   UNL     1       2.748   3.700  17.451  0.00  0.00    +0.000 A 
ENDBRANCH  19  20
BRANCH  19  27
ATOM     27  C   UNL     1       4.805   6.106  18.149  0.00  0.00    +0.000 C 
BRANCH  27  28
ATOM     28  N   UNL     1       5.568   5.706  16.970  0.00  0.00    +0.000 N 
ATOM     29  C   UNL     1       6.642   4.856  16.959  0.00  0.00    +0.000 A 
ATOM     30  C   UNL     1       6.963   4.699  15.631  0.00  0.00    +0.000 A 
ATOM     31  N   UNL     1       6.170   5.488  14.846  0.00  0.00    +0.000 NA
ATOM     32  C   UNL     1       5.370   6.111  15.681  0.00  0.00    +0.000 A 
ENDBRANCH  27  28
ENDBRANCH  19  27
ENDBRANCH  18  19
ENDBRANCH   2  18
TORSDOF 7
ENDMDL
MODEL 5
REMARK VINA RESULT:      -8.3      0.551      1.175
REMARK  Name = 
REMARK  7 active torsions:
REMARK  status: ('A' for Active; 'I' for Inactive)
REMARK    1  A    between atoms: C_2  and  O_3
REMARK    2  A    between atoms: O_3  and  C_4
REMARK    3  A    between atoms: C_4  and  C_5
REMARK    4  A    between atoms: C_4  and  C_11
REMARK    5  A    between atoms: C_5  and  N_6
REMARK    6  A    between atoms: N_21  and  C_22
REMARK    7  A    between atoms: C_25  and  N_26
REMARK                            x       y       z     vdW  Elec       q    Type
REMARK                         _______ _______ _______ _____ _____    ______ ____
ROOT
ATOM      1  O   UNL     1       2.976   8.457  16.928  0.00  0.00    +0.000 OA
ATOM      2  C   UNL     1       2.608   8.154  18.051  0.00  0.00    +0.000 C 
ATOM      3  N   UNL     1       1.783   8.936  18.843  0.00  0.00    +0.000 N 
ATOM      4  C   UNL     1       1.362   8.502  20.185  0.00  0.00    +0.000 C 
ATOM      5  C   UNL     1       1.062   9.685  21.123  0.00  0.00    +0.000 C 
ATOM      6  N   UNL     1       0.078  10.544  20.461  0.00  0.00    +0.000 N 
ATOM      7  C   UNL     1       0.558  11.126  19.195  0.00  0.00    +0.000 C 
ATOM      8  C   UNL     1       0.991  10.003  18.221  0.00  0.00    +0.000 C 
ENDROOT
BRANCH   6   9
ATOM      9  C   UNL     1      -0.933  11.160  21.169  0.00  0.00    +0.000 A 
ATOM     10  C   UNL     1      -1.850  12.043  20.581  0.00  0.00    +0.000 A 
ATOM     11  C   UNL     1      -2.803  12.726  21.349  0.00  0.00    +0.000 A 
ATOM     12  C   UNL     1      -2.835  12.537  22.734  0.00  0.00    +0.000 A 
ATOM     13  C   UNL     1      -1.942  11.655  23.345  0.00  0.00    +0.000 A 
ATOM     14  C   UNL     1      -1.012  10.967  22.558  0.00  0.00    +0.000 A 
BRANCH  12  15
ATOM     15  N   UNL     1      -3.798  13.281  23.555  0.00  0.00    +0.000 N 
ATOM     16  O   UNL     1      -3.383  13.803  24.600  0.00  0.00    +0.000 OA
ATOM     17  O   UNL     1      -4.970  13.341  23.158  0.00  0.00    +0.000 OA
ENDBRANCH  12  15
ENDBRANCH   6   9
BRANCH   2  18
ATOM     18  O   UNL     1       3.015   7.034  18.704  0.00  0.00    +0.000 OA
BRANCH  18  19
ATOM     19  C   UNL     1       2.588   5.762  18.174  0.00  0.00    +0.000 C 
BRANCH  19  20
ATOM     20  C   UNL     1       2.133   4.802  19.270  0.00  0.00    +0.000 A 
ATOM     21  C   UNL     1       2.512   4.979  20.610  0.00  0.00    +0.000 A 
ATOM     22  C   UNL     1       2.160   4.037  21.582  0.00  0.00    +0.000 A 
ATOM     23  C   UNL     1       1.425   2.916  21.223  0.00  0.00    +0.000 A 
ATOM     24  F   UNL     1       1.111   2.002  22.151  0.00  0.00    +0.000 F 
ATOM     25  C   UNL     1       1.014   2.727  19.911  0.00  0.00    +0.000 A 
ATOM     26  C   UNL     1       1.346   3.677  18.942  0.00  0.00    +0.000 A 
ENDBRANCH  19  20
BRANCH  19  27
ATOM     27  C   UNL     1       3.797   5.229  17.359  0.00  0.00    +0.000 C 
BRANCH  27  28
ATOM     28  N   UNL     1       5.104   5.594  17.896  0.00  0.00    +0.000 N 
ATOM     29  C   UNL     1       5.680   5.079  19.027  0.00  0.00    +0.000 A 
ATOM     30  C   UNL     1       6.936   5.637  19.078  0.00  0.00    +0.000 A 
ATOM     31  N   UNL     1       7.108   6.532  18.060  0.00  0.00    +0.000 NA
ATOM     32  C   UNL     1       5.978   6.515  17.391  0.00  0.00    +0.000 A 
ENDBRANCH  27  28
ENDBRANCH  19  27
ENDBRANCH  18  19
ENDBRANCH   2  18
TORSDOF 7
ENDMDL
MODEL 6
REMARK VINA RESULT:      -8.3      1.215      1.740
REMARK  Name = 
REMARK  7 active torsions:
REMARK  status: ('A' for Active; 'I' for Inactive)
REMARK    1  A    between atoms: C_2  and  O_3
REMARK    2  A    between atoms: O_3  and  C_4
REMARK    3  A    between atoms: C_4  and  C_5
REMARK    4  A    between atoms: C_4  and  C_11
REMARK    5  A    between atoms: C_5  and  N_6
REMARK    6  A    between atoms: N_21  and  C_22
REMARK    7  A    between atoms: C_25  and  N_26
REMARK                            x       y       z     vdW  Elec       q    Type
REMARK                         _______ _______ _______ _____ _____    ______ ____
ROOT
ATOM      1  O   UNL     1       2.607   8.518  17.186  0.00  0.00    +0.000 OA
ATOM      2  C   UNL     1       2.304   8.319  18.350  0.00  0.00    +0.000 C 
ATOM      3  N   UNL     1       1.470   9.136  19.095  0.00  0.00    +0.000 N 
ATOM      4  C   UNL     1       1.132   8.828  20.493  0.00  0.00    +0.000 C 
ATOM      5  C   UNL     1       0.804  10.087  21.315  0.00  0.00    +0.000 C 
ATOM      6  N   UNL     1      -0.255  10.817  20.615  0.00  0.00    +0.000 N 
ATOM      7  C   UNL     1       0.137  11.284  19.273  0.00  0.00    +0.000 C 
ATOM      8  C   UNL     1       0.593  10.087  18.403  0.00  0.00    +0.000 C 
ENDROOT
BRANCH   6   9
ATOM      9  C   UNL     1      -1.269  11.451  21.302  0.00  0.00    +0.000 A 
ATOM     10  C   UNL     1      -2.170  12.336  20.692  0.00  0.00    +0.000 A 
ATOM     11  C   UNL     1      -3.126  13.037  21.439  0.00  0.00    +0.000 A 
ATOM     12  C   UNL     1      -3.178  12.865  22.826  0.00  0.00    +0.000 A 
ATOM     13  C   UNL     1      -2.302  11.982  23.459  0.00  0.00    +0.000 A 
ATOM     14  C   UNL     1      -1.368  11.276  22.692  0.00  0.00    +0.000 A 
BRANCH  12  15
ATOM     15  N   UNL     1      -4.144  13.628  23.625  0.00  0.00    +0.000 N 
ATOM     16  O   UNL     1      -3.801  14.748  24.029  0.00  0.00    +0.000 OA
ATOM     17  O   UNL     1      -5.245  13.107  23.852  0.00  0.00    +0.000 OA
ENDBRANCH  12  15
ENDBRANCH   6   9
BRANCH   2  18
ATOM     18  O   UNL     1       2.802   7.299  19.097  0.00  0.00    +0.000 OA
BRANCH  18  19
ATOM     19  C   UNL     1       3.365   6.171  18.394  0.00  0.00    +0.000 C 
BRANCH  19  20
ATOM     20  C   UNL     1       2.507   4.916  18.532  0.00  0.00    +0.000 A 
ATOM     21  C   UNL     1       1.645   4.728  19.624  0.00  0.00    +0.000 A 
ATOM     22  C   UNL     1       0.938   3.532  19.778  0.00  0.00    +0.000 A 
ATOM     23  C   UNL     1       1.083   2.519  18.840  0.00  0.00    +0.000 A 
ATOM     24  F   UNL     1       0.425   1.364  19.002  0.00  0.00    +0.000 F 
ATOM     25  C   UNL     1       1.908   2.686  17.736  0.00  0.00    +0.000 A 
ATOM     26  C   UNL     1       2.599   3.888  17.569  0.00  0.00    +0.000 A 
ENDBRANCH  19  20
BRANCH  19  27
ATOM     27  C   UNL     1       4.795   5.999  18.971  0.00  0.00    +0.000 C 
BRANCH  27  28
ATOM     28  N   UNL     1       5.833   5.756  17.973  0.00  0.00    +0.000 N 
ATOM     29  C   UNL     1       6.242   4.529  17.522  0.00  0.00    +0.000 A 
ATOM     30  C   UNL     1       7.153   4.797  16.528  0.00  0.00    +0.000 A 
ATOM     31  N   UNL     1       7.367   6.142  16.417  0.00  0.00    +0.000 NA
ATOM     32  C   UNL     1       6.591   6.690  17.325  0.00  0.00    +0.000 A 
ENDBRANCH  27  28
ENDBRANCH  19  27
ENDBRANCH  18  19
ENDBRANCH   2  18
TORSDOF 7
ENDMDL
MODEL 7
REMARK VINA RESULT:      -8.3      1.256      1.475
REMARK  Name = 
REMARK  7 active torsions:
REMARK  status: ('A' for Active; 'I' for Inactive)
REMARK    1  A    between atoms: C_2  and  O_3
REMARK    2  A    between atoms: O_3  and  C_4
REMARK    3  A    between atoms: C_4  and  C_5
REMARK    4  A    between atoms: C_4  and  C_11
REMARK    5  A    between atoms: C_5  and  N_6
REMARK    6  A    between atoms: N_21  and  C_22
REMARK    7  A    between atoms: C_25  and  N_26
REMARK                            x       y       z     vdW  Elec       q    Type
REMARK                         _______ _______ _______ _____ _____    ______ ____
ROOT
ATOM      1  O   UNL     1       2.262   9.252  17.095  0.00  0.00    +0.000 OA
ATOM      2  C   UNL     1       2.000   8.949  18.247  0.00  0.00    +0.000 C 
ATOM      3  N   UNL     1       1.166   9.675  19.080  0.00  0.00    +0.000 N 
ATOM      4  C   UNL     1       0.879   9.243  20.457  0.00  0.00    +0.000 C 
ATOM      5  C   UNL     1       0.541  10.420  21.390  0.00  0.00    +0.000 C 
ATOM      6  N   UNL     1      -0.559  11.171  20.782  0.00  0.00    +0.000 N 
ATOM      7  C   UNL     1      -0.222  11.759  19.474  0.00  0.00    +0.000 C 
ATOM      8  C   UNL     1       0.241  10.653  18.494  0.00  0.00    +0.000 C 
ENDROOT
BRANCH   6   9
ATOM      9  C   UNL     1      -1.570  11.715  21.548  0.00  0.00    +0.000 A 
ATOM     10  C   UNL     1      -1.671  11.517  22.932  0.00  0.00    +0.000 A 
ATOM     11  C   UNL     1      -2.764  12.003  23.663  0.00  0.00    +0.000 A 
ATOM     12  C   UNL     1      -3.786  12.688  22.998  0.00  0.00    +0.000 A 
ATOM     13  C   UNL     1      -3.707  12.909  21.622  0.00  0.00    +0.000 A 
ATOM     14  C   UNL     1      -2.597  12.434  20.915  0.00  0.00    +0.000 A 
BRANCH  12  15
ATOM     15  N   UNL     1      -4.959  13.161  23.744  0.00  0.00    +0.000 N 
ATOM     16  O   UNL     1      -5.268  14.357  23.636  0.00  0.00    +0.000 OA
ATOM     17  O   UNL     1      -5.571  12.338  24.440  0.00  0.00    +0.000 OA
ENDBRANCH  12  15
ENDBRANCH   6   9
BRANCH   2  18
ATOM     18  O   UNL     1       2.549   7.886  18.892  0.00  0.00    +0.000 OA
BRANCH  18  19
ATOM     19  C   UNL     1       2.919   6.741  18.095  0.00  0.00    +0.000 C 
BRANCH  19  20
ATOM     20  C   UNL     1       2.371   5.436  18.669  0.00  0.00    +0.000 A 
ATOM     21  C   UNL     1       2.508   5.113  20.028  0.00  0.00    +0.000 A 
ATOM     22  C   UNL     1       2.081   3.873  20.513  0.00  0.00    +0.000 A 
ATOM     23  C   UNL     1       1.510   2.952  19.645  0.00  0.00    +0.000 A 
ATOM     24  F   UNL     1       1.125   1.755  20.107  0.00  0.00    +0.000 F 
ATOM     25  C   UNL     1       1.338   3.254  18.302  0.00  0.00    +0.000 A 
ATOM     26  C   UNL     1       1.744   4.500  17.818  0.00  0.00    +0.000 A 
ENDBRANCH  19  20
BRANCH  19  27
ATOM     27  C   UNL     1       4.468   6.773  18.023  0.00  0.00    +0.000 C 
BRANCH  27  28
ATOM     28  N   UNL     1       5.053   5.872  17.034  0.00  0.00    +0.000 N 
ATOM     29  C   UNL     1       5.121   6.096  15.685  0.00  0.00    +0.000 A 
ATOM     30  C   UNL     1       5.838   5.037  15.179  0.00  0.00    +0.000 A 
ATOM     31  N   UNL     1       6.137   4.141  16.167  0.00  0.00    +0.000 NA
ATOM     32  C   UNL     1       5.618   4.649  17.262  0.00  0.00    +0.000 A 
ENDBRANCH  27  28
ENDBRANCH  19  27
ENDBRANCH  18  19
ENDBRANCH   2  18
TORSDOF 7
ENDMDL
MODEL 8
REMARK VINA RESULT:      -8.2      1.275      2.036
REMARK  Name = 
REMARK  7 active torsions:
REMARK  status: ('A' for Active; 'I' for Inactive)
REMARK    1  A    between atoms: C_2  and  O_3
REMARK    2  A    between atoms: O_3  and  C_4
REMARK    3  A    between atoms: C_4  and  C_5
REMARK    4  A    between atoms: C_4  and  C_11
REMARK    5  A    between atoms: C_5  and  N_6
REMARK    6  A    between atoms: N_21  and  C_22
REMARK    7  A    between atoms: C_25  and  N_26
REMARK                            x       y       z     vdW  Elec       q    Type
REMARK                         _______ _______ _______ _____ _____    ______ ____
ROOT
ATOM      1  O   UNL     1       2.813   8.616  16.984  0.00  0.00    +0.000 OA
ATOM      2  C   UNL     1       2.435   8.315  18.104  0.00  0.00    +0.000 C 
ATOM      3  N   UNL     1       1.618   9.105  18.894  0.00  0.00    +0.000 N 
ATOM      4  C   UNL     1       1.185   8.673  20.233  0.00  0.00    +0.000 C 
ATOM      5  C   UNL     1       0.897   9.857  21.174  0.00  0.00    +0.000 C 
ATOM      6  N   UNL     1      -0.072  10.731  20.510  0.00  0.00    +0.000 N 
ATOM      7  C   UNL     1       0.421  11.311  19.249  0.00  0.00    +0.000 C 
ATOM      8  C   UNL     1       0.843  10.185  18.273  0.00  0.00    +0.000 C 
ENDROOT
BRANCH   6   9
ATOM      9  C   UNL     1      -1.078  11.358  21.216  0.00  0.00    +0.000 A 
ATOM     10  C   UNL     1      -1.988  12.246  20.625  0.00  0.00    +0.000 A 
ATOM     11  C   UNL     1      -2.936  12.940  21.390  0.00  0.00    +0.000 A 
ATOM     12  C   UNL     1      -2.969  12.757  22.776  0.00  0.00    +0.000 A 
ATOM     13  C   UNL     1      -2.083  11.871  23.391  0.00  0.00    +0.000 A 
ATOM     14  C   UNL     1      -1.158  11.172  22.606  0.00  0.00    +0.000 A 
BRANCH  12  15
ATOM     15  N   UNL     1      -3.925  13.513  23.594  0.00  0.00    +0.000 N 
ATOM     16  O   UNL     1      -3.821  13.431  24.827  0.00  0.00    +0.000 OA
ATOM     17  O   UNL     1      -4.782  14.187  23.005  0.00  0.00    +0.000 OA
ENDBRANCH  12  15
ENDBRANCH   6   9
BRANCH   2  18
ATOM     18  O   UNL     1       2.824   7.188  18.755  0.00  0.00    +0.000 OA
BRANCH  18  19
ATOM     19  C   UNL     1       3.308   6.088  17.954  0.00  0.00    +0.000 C 
BRANCH  19  20
ATOM     20  C   UNL     1       2.623   4.770  18.307  0.00  0.00    +0.000 A 
ATOM     21  C   UNL     1       2.794   3.617  17.525  0.00  0.00    +0.000 A 
ATOM     22  C   UNL     1       2.085   2.447  17.814  0.00  0.00    +0.000 A 
ATOM     23  C   UNL     1       1.207   2.420  18.889  0.00  0.00    +0.000 A 
ATOM     24  F   UNL     1       0.510   1.306  19.149  0.00  0.00    +0.000 F 
ATOM     25  C   UNL     1       1.037   3.536  19.695  0.00  0.00    +0.000 A 
ATOM     26  C   UNL     1       1.759   4.700  19.421  0.00  0.00    +0.000 A 
ENDBRANCH  19  20
BRANCH  19  27
ATOM     27  C   UNL     1       4.842   6.059  18.180  0.00  0.00    +0.000 C 
BRANCH  27  28
ATOM     28  N   UNL     1       5.626   5.677  17.009  0.00  0.00    +0.000 N 
ATOM     29  C   UNL     1       6.700   4.826  17.005  0.00  0.00    +0.000 A 
ATOM     30  C   UNL     1       7.045   4.689  15.681  0.00  0.00    +0.000 A 
ATOM     31  N   UNL     1       6.266   5.489  14.893  0.00  0.00    +0.000 NA
ATOM     32  C   UNL     1       5.451   6.100  15.723  0.00  0.00    +0.000 A 
ENDBRANCH  27  28
ENDBRANCH  19  27
ENDBRANCH  18  19
ENDBRANCH   2  18
TORSDOF 7
ENDMDL
MODEL 9
REMARK VINA RESULT:      -8.1      1.151      1.731
REMARK  Name = 
REMARK  7 active torsions:
REMARK  status: ('A' for Active; 'I' for Inactive)
REMARK    1  A    between atoms: C_2  and  O_3
REMARK    2  A    between atoms: O_3  and  C_4
REMARK    3  A    between atoms: C_4  and  C_5
REMARK    4  A    between atoms: C_4  and  C_11
REMARK    5  A    between atoms: C_5  and  N_6
REMARK    6  A    between atoms: N_21  and  C_22
REMARK    7  A    between atoms: C_25  and  N_26
REMARK                            x       y       z     vdW  Elec       q    Type
REMARK                         _______ _______ _______ _____ _____    ______ ____
ROOT
ATOM      1  O   UNL     1       2.474   8.657  17.096  0.00  0.00    +0.000 OA
ATOM      2  C   UNL     1       2.195   8.506  18.274  0.00  0.00    +0.000 C 
ATOM      3  N   UNL     1       1.355   9.339  18.994  0.00  0.00    +0.000 N 
ATOM      4  C   UNL     1       1.047   9.089  20.411  0.00  0.00    +0.000 C 
ATOM      5  C   UNL     1       0.704  10.378  21.180  0.00  0.00    +0.000 C 
ATOM      6  N   UNL     1      -0.381  11.052  20.465  0.00  0.00    +0.000 N 
ATOM      7  C   UNL     1      -0.021  11.465  19.097  0.00  0.00    +0.000 C 
ATOM      8  C   UNL     1       0.446  10.239  18.274  0.00  0.00    +0.000 C 
ENDROOT
BRANCH   6   9
ATOM      9  C   UNL     1      -1.398  11.695  21.140  0.00  0.00    +0.000 A 
ATOM     10  C   UNL     1      -1.538  11.650  22.534  0.00  0.00    +0.000 A 
ATOM     11  C   UNL     1      -2.638  12.235  23.178  0.00  0.00    +0.000 A 
ATOM     12  C   UNL     1      -3.627  12.865  22.416  0.00  0.00    +0.000 A 
ATOM     13  C   UNL     1      -3.508  12.934  21.027  0.00  0.00    +0.000 A 
ATOM     14  C   UNL     1      -2.392  12.363  20.406  0.00  0.00    +0.000 A 
BRANCH  12  15
ATOM     15  N   UNL     1      -4.807  13.439  23.074  0.00  0.00    +0.000 N 
ATOM     16  O   UNL     1      -5.798  13.683  22.371  0.00  0.00    +0.000 OA
ATOM     17  O   UNL     1      -4.742  13.650  24.293  0.00  0.00    +0.000 OA
ENDBRANCH  12  15
ENDBRANCH   6   9
BRANCH   2  18
ATOM     18  O   UNL     1       2.727   7.532  19.058  0.00  0.00    +0.000 OA
BRANCH  18  19
ATOM     19  C   UNL     1       2.980   6.249  18.447  0.00  0.00    +0.000 C 
BRANCH  19  20
ATOM     20  C   UNL     1       2.431   5.094  19.280  0.00  0.00    +0.000 A 
ATOM     21  C   UNL     1       1.579   4.125  18.727  0.00  0.00    +0.000 A 
ATOM     22  C   UNL     1       1.014   3.129  19.530  0.00  0.00    +0.000 A 
ATOM     23  C   UNL     1       1.300   3.092  20.888  0.00  0.00    +0.000 A 
ATOM     24  F   UNL     1       0.738   2.153  21.660  0.00  0.00    +0.000 F 
ATOM     25  C   UNL     1       2.159   4.021  21.458  0.00  0.00    +0.000 A 
ATOM     26  C   UNL     1       2.742   5.004  20.654  0.00  0.00    +0.000 A 
ENDBRANCH  19  20
BRANCH  19  27
ATOM     27  C   UNL     1       4.518   6.183  18.251  0.00  0.00    +0.000 C 
BRANCH  27  28
ATOM     28  N   UNL     1       4.950   5.525  17.022  0.00  0.00    +0.000 N 
ATOM     29  C   UNL     1       5.174   4.182  16.867  0.00  0.00    +0.000 A 
ATOM     30  C   UNL     1       5.462   4.017  15.533  0.00  0.00    +0.000 A 
ATOM     31  N   UNL     1       5.498   5.224  14.893  0.00  0.00    +0.000 NA
ATOM     32  C   UNL     1       5.227   6.114  15.822  0.00  0.00    +0.000 A 
ENDBRANCH  27  28
ENDBRANCH  19  27
ENDBRANCH  18  19
ENDBRANCH   2  18
TORSDOF 7
ENDMDL
