MODEL 1
REMARK VINA RESULT:      -7.9      0.000      0.000
REMARK  Name = 
REMARK  9 active torsions:
REMARK  status: ('A' for Active; 'I' for Inactive)
REMARK    1  A    between atoms: C_1  and  C_2
REMARK    2  A    between atoms: C_7  and  C_8
REMARK    3  A    between atoms: C_8  and  N_9
REMARK    4  A    between atoms: C_10  and  C_12
REMARK    5  A    between atoms: C_12  and  N_13
REMARK    6  A    between atoms: N_13  and  C_14
REMARK    7  A    between atoms: N_13  and  C_21
REMARK    8  A    between atoms: C_14  and  C_15
REMARK    9  A    between atoms: C_21  and  C_22
REMARK                            x       y       z     vdW  Elec       q    Type
REMARK                         _______ _______ _______ _____ _____    ______ ____
ROOT
ATOM      1  N   UNL     1       3.061   6.623  18.064  0.00  0.00    +0.000 NA
ENDROOT
BRANCH   1   2
ATOM      2  C   UNL     1       2.557   7.923  17.526  0.00  0.00    +0.000 C 
BRANCH   2   4
ATOM      3  N   UNL     1       0.895   9.670  17.997  0.00  0.00    +0.000 N 
ATOM      4  C   UNL     1       1.717   8.711  18.545  0.00  0.00    +0.000 C 
ATOM      5  O   UNL     1       1.761   8.471  19.749  0.00  0.00    +0.000 OA
ATOM      6  H   UNL     1       0.845   9.716  16.984  0.00  0.00    +0.000 HD
BRANCH   3   7
ATOM      7  C   UNL     1       0.019  10.493  18.804  0.00  0.00    +0.000 C 
BRANCH   7  14
ATOM      8  C   UNL     1      -2.097  12.412  19.849  0.00  0.00    +0.000 C 
ATOM      9  C   UNL     1      -2.351  11.486  18.690  0.00  0.00    +0.000 A 
ATOM     10  C   UNL     1      -3.596  11.556  18.042  0.00  0.00    +0.000 A 
ATOM     11  C   UNL     1      -3.878  10.759  16.933  0.00  0.00    +0.000 A 
ATOM     12  C   UNL     1      -2.913   9.888  16.449  0.00  0.00    +0.000 A 
ATOM     13  C   UNL     1      -1.669   9.810  17.079  0.00  0.00    +0.000 A 
ATOM     14  C   UNL     1      -1.369  10.594  18.209  0.00  0.00    +0.000 A 
ENDBRANCH   7  14
ENDBRANCH   3   7
ENDBRANCH   2   4
ENDBRANCH   1   2
BRANCH   1  15
ATOM     15  C   UNL     1       1.967   5.607  18.028  0.00  0.00    +0.000 C 
BRANCH  15  16
ATOM     16  C   UNL     1       2.088   4.563  19.128  0.00  0.00    +0.000 A 
ATOM     17  C   UNL     1       1.806   4.902  20.452  0.00  0.00    +0.000 A 
ATOM     18  C   UNL     1       2.107   3.986  21.455  0.00  0.00    +0.000 A 
ATOM     19  C   UNL     1       2.650   2.754  21.112  0.00  0.00    +0.000 A 
ATOM     20  C   UNL     1       2.858   2.480  19.772  0.00  0.00    +0.000 A 
ATOM     21  N   UNL     1       2.598   3.355  18.777  0.00  0.00    +0.000 NA
ENDBRANCH  15  16
ENDBRANCH   1  15
BRANCH   1  22
ATOM     22  C   UNL     1       4.164   6.133  17.182  0.00  0.00    +0.000 C 
BRANCH  22  23
ATOM     23  C   UNL     1       5.555   6.203  17.785  0.00  0.00    +0.000 A 
ATOM     24  C   UNL     1       6.503   7.089  17.275  0.00  0.00    +0.000 A 
ATOM     25  C   UNL     1       7.751   7.160  17.889  0.00  0.00    +0.000 A 
ATOM     26  C   UNL     1       8.026   6.336  18.974  0.00  0.00    +0.000 A 
ATOM     27  C   UNL     1       7.035   5.470  19.404  0.00  0.00    +0.000 A 
ATOM     28  N   UNL     1       5.811   5.388  18.839  0.00  0.00    +0.000 NA
ENDBRANCH  22  23
ENDBRANCH   1  22
TORSDOF 8
ENDMDL
MODEL 2
REMARK VINA RESULT:      -7.8      2.299      4.893
REMARK  Name = 
REMARK  9 active torsions:
REMARK  status: ('A' for Active; 'I' for Inactive)
REMARK    1  A    between atoms: C_1  and  C_2
REMARK    2  A    between atoms: C_7  and  C_8
REMARK    3  A    between atoms: C_8  and  N_9
REMARK    4  A    between atoms: C_10  and  C_12
REMARK    5  A    between atoms: C_12  and  N_13
REMARK    6  A    between atoms: N_13  and  C_14
REMARK    7  A    between atoms: N_13  and  C_21
REMARK    8  A    between atoms: C_14  and  C_15
REMARK    9  A    between atoms: C_21  and  C_22
REMARK                            x       y       z     vdW  Elec       q    Type
REMARK                         _______ _______ _______ _____ _____    ______ ____
ROOT
ATOM      1  N   UNL     1       3.345   5.416  17.509  0.00  0.00    +0.000 NA
ENDROOT
BRANCH   1   2
ATOM      2  C   UNL     1       3.322   6.354  18.673  0.00  0.00    +0.000 C 
BRANCH   2   4
ATOM      3  N   UNL     1       1.890   8.209  19.409  0.00  0.00    +0.000 N 
ATOM      4  C   UNL     1       2.613   7.682  18.362  0.00  0.00    +0.000 C 
ATOM      5  O   UNL     1       2.719   8.236  17.271  0.00  0.00    +0.000 OA
ATOM      6  H   UNL     1       1.956   7.736  20.304  0.00  0.00    +0.000 HD
BRANCH   3   7
ATOM      7  C   UNL     1       1.175   9.464  19.303  0.00  0.00    +0.000 C 
BRANCH   7  14
ATOM      8  C   UNL     1       0.297  12.306  19.941  0.00  0.00    +0.000 C 
ATOM      9  C   UNL     1       0.101  11.166  20.905  0.00  0.00    +0.000 A 
ATOM     10  C   UNL     1      -0.559  11.426  22.117  0.00  0.00    +0.000 A 
ATOM     11  C   UNL     1      -0.814  10.404  23.033  0.00  0.00    +0.000 A 
ATOM     12  C   UNL     1      -0.422   9.107  22.742  0.00  0.00    +0.000 A 
ATOM     13  C   UNL     1       0.230   8.831  21.539  0.00  0.00    +0.000 A 
ATOM     14  C   UNL     1       0.512   9.849  20.608  0.00  0.00    +0.000 A 
ENDBRANCH   7  14
ENDBRANCH   3   7
ENDBRANCH   2   4
ENDBRANCH   1   2
BRANCH   1  15
ATOM     15  C   UNL     1       4.666   4.721  17.451  0.00  0.00    +0.000 C 
BRANCH  15  16
ATOM     16  C   UNL     1       5.821   5.599  17.908  0.00  0.00    +0.000 A 
ATOM     17  C   UNL     1       6.172   6.734  17.177  0.00  0.00    +0.000 A 
ATOM     18  C   UNL     1       7.343   7.407  17.509  0.00  0.00    +0.000 A 
ATOM     19  C   UNL     1       8.113   6.951  18.571  0.00  0.00    +0.000 A 
ATOM     20  C   UNL     1       7.671   5.844  19.273  0.00  0.00    +0.000 A 
ATOM     21  N   UNL     1       6.552   5.155  18.962  0.00  0.00    +0.000 NA
ENDBRANCH  15  16
ENDBRANCH   1  15
BRANCH   1  22
ATOM     22  C   UNL     1       2.292   4.374  17.710  0.00  0.00    +0.000 C 
BRANCH  22  23
ATOM     23  C   UNL     1       2.253   3.752  19.093  0.00  0.00    +0.000 A 
ATOM     24  C   UNL     1       1.117   3.872  19.893  0.00  0.00    +0.000 A 
ATOM     25  C   UNL     1       1.102   3.242  21.135  0.00  0.00    +0.000 A 
ATOM     26  C   UNL     1       2.221   2.532  21.553  0.00  0.00    +0.000 A 
ATOM     27  C   UNL     1       3.315   2.479  20.707  0.00  0.00    +0.000 A 
ATOM     28  N   UNL     1       3.355   3.067  19.492  0.00  0.00    +0.000 NA
ENDBRANCH  22  23
ENDBRANCH   1  22
TORSDOF 8
ENDMDL
MODEL 3
REMARK VINA RESULT:      -7.4      2.980      5.904
REMARK  Name = 
REMARK  9 active torsions:
REMARK  status: ('A' for Active; 'I' for Inactive)
REMARK    1  A    between atoms: C_1  and  C_2
REMARK    2  A    between atoms: C_7  and  C_8
REMARK    3  A    between atoms: C_8  and  N_9
REMARK    4  A    between atoms: C_10  and  C_12
REMARK    5  A    between atoms: C_12  and  N_13
REMARK    6  A    between atoms: N_13  and  C_14
REMARK    7  A    between atoms: N_13  and  C_21
REMARK    8  A    between atoms: C_14  and  C_15
REMARK    9  A    between atoms: C_21  and  C_22
REMARK                            x       y       z     vdW  Elec       q    Type
REMARK                         _______ _______ _______ _____ _____    ______ ____
ROOT
ATOM      1  N   UNL     1       5.231   4.524  16.645  0.00  0.00    +0.000 NA
ENDROOT
BRANCH   1   2
ATOM      2  C   UNL     1       5.247   5.387  17.865  0.00  0.00    +0.000 C 
BRANCH   2   4
ATOM      3  N   UNL     1       3.309   6.892  17.994  0.00  0.00    +0.000 N 
ATOM      4  C   UNL     1       4.631   6.776  17.628  0.00  0.00    +0.000 C 
ATOM      5  O   UNL     1       5.289   7.710  17.177  0.00  0.00    +0.000 OA
ATOM      6  H   UNL     1       2.885   6.097  18.461  0.00  0.00    +0.000 HD
BRANCH   3   7
ATOM      7  C   UNL     1       2.574   8.132  17.860  0.00  0.00    +0.000 C 
BRANCH   7  14
ATOM      8  C   UNL     1       0.986  10.707  18.186  0.00  0.00    +0.000 C 
ATOM      9  C   UNL     1       1.090   9.680  19.282  0.00  0.00    +0.000 A 
ATOM     10  C   UNL     1       0.380   9.905  20.474  0.00  0.00    +0.000 A 
ATOM     11  C   UNL     1       0.396   8.970  21.509  0.00  0.00    +0.000 A 
ATOM     12  C   UNL     1       1.113   7.792  21.362  0.00  0.00    +0.000 A 
ATOM     13  C   UNL     1       1.818   7.551  20.181  0.00  0.00    +0.000 A 
ATOM     14  C   UNL     1       1.829   8.487  19.130  0.00  0.00    +0.000 A 
ENDBRANCH   7  14
ENDBRANCH   3   7
ENDBRANCH   2   4
ENDBRANCH   1   2
BRANCH   1  15
ATOM     15  C   UNL     1       6.629   4.305  16.167  0.00  0.00    +0.000 C 
BRANCH  15  16
ATOM     16  C   UNL     1       6.778   4.479  14.663  0.00  0.00    +0.000 A 
ATOM     17  C   UNL     1       6.083   3.643  13.788  0.00  0.00    +0.000 A 
ATOM     18  C   UNL     1       6.382   3.699  12.431  0.00  0.00    +0.000 A 
ATOM     19  C   UNL     1       7.339   4.600  11.981  0.00  0.00    +0.000 A 
ATOM     20  C   UNL     1       7.950   5.425  12.909  0.00  0.00    +0.000 A 
ATOM     21  N   UNL     1       7.699   5.379  14.236  0.00  0.00    +0.000 NA
ENDBRANCH  15  16
ENDBRANCH   1  15
BRANCH   1  22
ATOM     22  C   UNL     1       4.661   3.190  17.007  0.00  0.00    +0.000 C 
BRANCH  22  23
ATOM     23  C   UNL     1       3.522   3.223  18.009  0.00  0.00    +0.000 A 
ATOM     24  C   UNL     1       2.240   3.601  17.611  0.00  0.00    +0.000 A 
ATOM     25  C   UNL     1       1.211   3.568  18.550  0.00  0.00    +0.000 A 
ATOM     26  C   UNL     1       1.491   3.183  19.855  0.00  0.00    +0.000 A 
ATOM     27  C   UNL     1       2.794   2.844  20.172  0.00  0.00    +0.000 A 
ATOM     28  N   UNL     1       3.810   2.852  19.282  0.00  0.00    +0.000 NA
ENDBRANCH  22  23
ENDBRANCH   1  22
TORSDOF 8
ENDMDL
MODEL 4
REMARK VINA RESULT:      -7.4      1.945      4.849
REMARK  Name = 
REMARK  9 active torsions:
REMARK  status: ('A' for Active; 'I' for Inactive)
REMARK    1  A    between atoms: C_1  and  C_2
REMARK    2  A    between atoms: C_7  and  C_8
REMARK    3  A    between atoms: C_8  and  N_9
REMARK    4  A    between atoms: C_10  and  C_12
REMARK    5  A    between atoms: C_12  and  N_13
REMARK    6  A    between atoms: N_13  and  C_14
REMARK    7  A    between atoms: N_13  and  C_21
REMARK    8  A    between atoms: C_14  and  C_15
REMARK    9  A    between atoms: C_21  and  C_22
REMARK                            x       y       z     vdW  Elec       q    Type
REMARK                         _______ _______ _______ _____ _____    ______ ____
ROOT
ATOM      1  N   UNL     1       3.207   5.856  17.624  0.00  0.00    +0.000 NA
ENDROOT
BRANCH   1   2
ATOM      2  C   UNL     1       3.303   6.926  18.663  0.00  0.00    +0.000 C 
BRANCH   2   4
ATOM      3  N   UNL     1       1.626   8.559  19.410  0.00  0.00    +0.000 N 
ATOM      4  C   UNL     1       2.412   8.143  18.359  0.00  0.00    +0.000 C 
ATOM      5  O   UNL     1       2.435   8.709  17.270  0.00  0.00    +0.000 OA
ATOM      6  H   UNL     1       1.761   8.097  20.303  0.00  0.00    +0.000 HD
BRANCH   3   7
ATOM      7  C   UNL     1       0.740   9.700  19.310  0.00  0.00    +0.000 C 
BRANCH   7  14
ATOM      8  C   UNL     1      -0.789  12.287  19.784  0.00  0.00    +0.000 C 
ATOM      9  C   UNL     1      -0.567  11.271  20.872  0.00  0.00    +0.000 A 
ATOM     10  C   UNL     1      -1.136  11.513  22.134  0.00  0.00    +0.000 A 
ATOM     11  C   UNL     1      -1.008  10.589  23.171  0.00  0.00    +0.000 A 
ATOM     12  C   UNL     1      -0.318   9.405  22.957  0.00  0.00    +0.000 A 
ATOM     13  C   UNL     1       0.249   9.148  21.707  0.00  0.00    +0.000 A 
ATOM     14  C   UNL     1       0.146  10.073  20.651  0.00  0.00    +0.000 A 
ENDBRANCH   7  14
ENDBRANCH   3   7
ENDBRANCH   2   4
ENDBRANCH   1   2
BRANCH   1  15
ATOM     15  C   UNL     1       4.315   4.873  17.814  0.00  0.00    +0.000 C 
BRANCH  15  16
ATOM     16  C   UNL     1       5.681   5.531  17.937  0.00  0.00    +0.000 A 
ATOM     17  C   UNL     1       6.521   5.211  19.004  0.00  0.00    +0.000 A 
ATOM     18  C   UNL     1       7.676   5.963  19.195  0.00  0.00    +0.000 A 
ATOM     19  C   UNL     1       7.975   6.989  18.307  0.00  0.00    +0.000 A 
ATOM     20  C   UNL     1       7.111   7.213  17.249  0.00  0.00    +0.000 A 
ATOM     21  N   UNL     1       5.971   6.516  17.049  0.00  0.00    +0.000 NA
ENDBRANCH  15  16
ENDBRANCH   1  15
BRANCH   1  22
ATOM     22  C   UNL     1       1.916   5.126  17.805  0.00  0.00    +0.000 C 
BRANCH  22  23
ATOM     23  C   UNL     1       1.857   4.201  19.006  0.00  0.00    +0.000 A 
ATOM     24  C   UNL     1       1.832   4.721  20.300  0.00  0.00    +0.000 A 
ATOM     25  C   UNL     1       1.726   3.840  21.373  0.00  0.00    +0.000 A 
ATOM     26  C   UNL     1       1.670   2.473  21.131  0.00  0.00    +0.000 A 
ATOM     27  C   UNL     1       1.722   2.039  19.818  0.00  0.00    +0.000 A 
ATOM     28  N   UNL     1       1.810   2.868  18.755  0.00  0.00    +0.000 NA
ENDBRANCH  22  23
ENDBRANCH   1  22
TORSDOF 8
ENDMDL
MODEL 5
REMARK VINA RESULT:      -7.4      1.409      1.881
REMARK  Name = 
REMARK  9 active torsions:
REMARK  status: ('A' for Active; 'I' for Inactive)
REMARK    1  A    between atoms: C_1  and  C_2
REMARK    2  A    between atoms: C_7  and  C_8
REMARK    3  A    between atoms: C_8  and  N_9
REMARK    4  A    between atoms: C_10  and  C_12
REMARK    5  A    between atoms: C_12  and  N_13
REMARK    6  A    between atoms: N_13  and  C_14
REMARK    7  A    between atoms: N_13  and  C_21
REMARK    8  A    between atoms: C_14  and  C_15
REMARK    9  A    between atoms: C_21  and  C_22
REMARK                            x       y       z     vdW  Elec       q    Type
REMARK                         _______ _______ _______ _____ _____    ______ ____
ROOT
ATOM      1  N   UNL     1       3.725   5.503  17.922  0.00  0.00    +0.000 NA
ENDROOT
BRANCH   1   2
ATOM      2  C   UNL     1       2.657   6.510  17.640  0.00  0.00    +0.000 C 
BRANCH   2   4
ATOM      3  N   UNL     1       1.731   8.559  18.631  0.00  0.00    +0.000 N 
ATOM      4  C   UNL     1       2.230   7.302  18.888  0.00  0.00    +0.000 C 
ATOM      5  O   UNL     1       2.304   6.825  20.017  0.00  0.00    +0.000 OA
ATOM      6  H   UNL     1       1.605   8.819  17.658  0.00  0.00    +0.000 HD
BRANCH   3   7
ATOM      7  C   UNL     1       1.263   9.436  19.683  0.00  0.00    +0.000 C 
BRANCH   7  14
ATOM      8  C   UNL     1      -0.078  11.510  21.459  0.00  0.00    +0.000 C 
ATOM      9  C   UNL     1      -0.634  11.119  20.116  0.00  0.00    +0.000 A 
ATOM     10  C   UNL     1      -1.784  11.780  19.654  0.00  0.00    +0.000 A 
ATOM     11  C   UNL     1      -2.322  11.498  18.398  0.00  0.00    +0.000 A 
ATOM     12  C   UNL     1      -1.710  10.558  17.583  0.00  0.00    +0.000 A 
ATOM     13  C   UNL     1      -0.563   9.897  18.026  0.00  0.00    +0.000 A 
ATOM     14  C   UNL     1      -0.012  10.154  19.295  0.00  0.00    +0.000 A 
ENDBRANCH   7  14
ENDBRANCH   3   7
ENDBRANCH   2   4
ENDBRANCH   1   2
BRANCH   1  15
ATOM     15  C   UNL     1       3.188   4.127  17.702  0.00  0.00    +0.000 C 
BRANCH  15  16
ATOM     16  C   UNL     1       2.547   3.532  18.947  0.00  0.00    +0.000 A 
ATOM     17  C   UNL     1       1.167   3.333  18.999  0.00  0.00    +0.000 A 
ATOM     18  C   UNL     1       0.589   2.968  20.210  0.00  0.00    +0.000 A 
ATOM     19  C   UNL     1       1.400   2.786  21.324  0.00  0.00    +0.000 A 
ATOM     20  C   UNL     1       2.764   2.961  21.177  0.00  0.00    +0.000 A 
ATOM     21  N   UNL     1       3.353   3.336  20.021  0.00  0.00    +0.000 NA
ENDBRANCH  15  16
ENDBRANCH   1  15
BRANCH   1  22
ATOM     22  C   UNL     1       4.849   5.712  16.959  0.00  0.00    +0.000 C 
BRANCH  22  23
ATOM     23  C   UNL     1       6.098   6.342  17.547  0.00  0.00    +0.000 A 
ATOM     24  C   UNL     1       6.845   5.665  18.510  0.00  0.00    +0.000 A 
ATOM     25  C   UNL     1       8.013   6.255  18.987  0.00  0.00    +0.000 A 
ATOM     26  C   UNL     1       8.390   7.505  18.510  0.00  0.00    +0.000 A 
ATOM     27  C   UNL     1       7.581   8.117  17.569  0.00  0.00    +0.000 A 
ATOM     28  N   UNL     1       6.450   7.565  17.077  0.00  0.00    +0.000 NA
ENDBRANCH  22  23
ENDBRANCH   1  22
TORSDOF 8
ENDMDL
MODEL 6
REMARK VINA RESULT:      -7.4      3.294      7.609
REMARK  Name = 
REMARK  9 active torsions:
REMARK  status: ('A' for Active; 'I' for Inactive)
REMARK    1  A    between atoms: C_1  and  C_2
REMARK    2  A    between atoms: C_7  and  C_8
REMARK    3  A    between atoms: C_8  and  N_9
REMARK    4  A    between atoms: C_10  and  C_12
REMARK    5  A    between atoms: C_12  and  N_13
REMARK    6  A    between atoms: N_13  and  C_14
REMARK    7  A    between atoms: N_13  and  C_21
REMARK    8  A    between atoms: C_14  and  C_15
REMARK    9  A    between atoms: C_21  and  C_22
REMARK                            x       y       z     vdW  Elec       q    Type
REMARK                         _______ _______ _______ _____ _____    ______ ____
ROOT
ATOM      1  N   UNL     1       4.476   4.874  18.449  0.00  0.00    +0.000 NA
ENDROOT
BRANCH   1   2
ATOM      2  C   UNL     1       5.880   4.596  18.878  0.00  0.00    +0.000 C 
BRANCH   2   4
ATOM      3  N   UNL     1       6.429   5.449  16.640  0.00  0.00    +0.000 N 
ATOM      4  C   UNL     1       6.903   4.778  17.745  0.00  0.00    +0.000 C 
ATOM      5  O   UNL     1       8.061   4.380  17.845  0.00  0.00    +0.000 OA
ATOM      6  H   UNL     1       5.493   5.837  16.699  0.00  0.00    +0.000 HD
BRANCH   3   7
ATOM      7  C   UNL     1       7.259   5.727  15.487  0.00  0.00    +0.000 C 
BRANCH   7  14
ATOM      8  C   UNL     1       8.725   5.834  12.824  0.00  0.00    +0.000 C 
ATOM      9  C   UNL     1       7.494   4.993  13.033  0.00  0.00    +0.000 A 
ATOM     10  C   UNL     1       7.047   4.192  11.969  0.00  0.00    +0.000 A 
ATOM     11  C   UNL     1       5.941   3.353  12.113  0.00  0.00    +0.000 A 
ATOM     12  C   UNL     1       5.275   3.296  13.328  0.00  0.00    +0.000 A 
ATOM     13  C   UNL     1       5.711   4.082  14.397  0.00  0.00    +0.000 A 
ATOM     14  C   UNL     1       6.814   4.947  14.269  0.00  0.00    +0.000 A 
ENDBRANCH   7  14
ENDBRANCH   3   7
ENDBRANCH   2   4
ENDBRANCH   1   2
BRANCH   1  15
ATOM     15  C   UNL     1       3.766   3.585  18.190  0.00  0.00    +0.000 C 
BRANCH  15  16
ATOM     16  C   UNL     1       2.851   3.170  19.332  0.00  0.00    +0.000 A 
ATOM     17  C   UNL     1       1.485   3.452  19.275  0.00  0.00    +0.000 A 
ATOM     18  C   UNL     1       0.710   3.233  20.408  0.00  0.00    +0.000 A 
ATOM     19  C   UNL     1       1.306   2.715  21.552  0.00  0.00    +0.000 A 
ATOM     20  C   UNL     1       2.657   2.421  21.511  0.00  0.00    +0.000 A 
ATOM     21  N   UNL     1       3.442   2.643  20.434  0.00  0.00    +0.000 NA
ENDBRANCH  15  16
ENDBRANCH   1  15
BRANCH   1  22
ATOM     22  C   UNL     1       3.761   5.570  19.563  0.00  0.00    +0.000 C 
BRANCH  22  23
ATOM     23  C   UNL     1       2.978   6.805  19.159  0.00  0.00    +0.000 A 
ATOM     24  C   UNL     1       2.083   7.398  20.048  0.00  0.00    +0.000 A 
ATOM     25  C   UNL     1       1.423   8.561  19.658  0.00  0.00    +0.000 A 
ATOM     26  C   UNL     1       1.655   9.084  18.392  0.00  0.00    +0.000 A 
ATOM     27  C   UNL     1       2.543   8.422  17.563  0.00  0.00    +0.000 A 
ATOM     28  N   UNL     1       3.209   7.301  17.917  0.00  0.00    +0.000 NA
ENDBRANCH  22  23
ENDBRANCH   1  22
TORSDOF 8
ENDMDL
MODEL 7
REMARK VINA RESULT:      -7.4      1.833      2.828
REMARK  Name = 
REMARK  9 active torsions:
REMARK  status: ('A' for Active; 'I' for Inactive)
REMARK    1  A    between atoms: C_1  and  C_2
REMARK    2  A    between atoms: C_7  and  C_8
REMARK    3  A    between atoms: C_8  and  N_9
REMARK    4  A    between atoms: C_10  and  C_12
REMARK    5  A    between atoms: C_12  and  N_13
REMARK    6  A    between atoms: N_13  and  C_14
REMARK    7  A    between atoms: N_13  and  C_21
REMARK    8  A    between atoms: C_14  and  C_15
REMARK    9  A    between atoms: C_21  and  C_22
REMARK                            x       y       z     vdW  Elec       q    Type
REMARK                         _______ _______ _______ _____ _____    ______ ____
ROOT
ATOM      1  N   UNL     1       3.114   6.322  18.112  0.00  0.00    +0.000 NA
ENDROOT
BRANCH   1   2
ATOM      2  C   UNL     1       2.851   7.684  17.555  0.00  0.00    +0.000 C 
BRANCH   2   4
ATOM      3  N   UNL     1       1.388   9.634  17.864  0.00  0.00    +0.000 N 
ATOM      4  C   UNL     1       1.985   8.556  18.479  0.00  0.00    +0.000 C 
ATOM      5  O   UNL     1       1.820   8.282  19.665  0.00  0.00    +0.000 OA
ATOM      6  H   UNL     1       1.494   9.711  16.858  0.00  0.00    +0.000 HD
BRANCH   3   7
ATOM      7  C   UNL     1       0.522  10.551  18.576  0.00  0.00    +0.000 C 
BRANCH   7  14
ATOM      8  C   UNL     1       0.162  11.777  21.336  0.00  0.00    +0.000 C 
ATOM      9  C   UNL     1       1.101  12.357  20.313  0.00  0.00    +0.000 A 
ATOM     10  C   UNL     1       1.872  13.475  20.676  0.00  0.00    +0.000 A 
ATOM     11  C   UNL     1       2.795  14.032  19.790  0.00  0.00    +0.000 A 
ATOM     12  C   UNL     1       2.967  13.472  18.533  0.00  0.00    +0.000 A 
ATOM     13  C   UNL     1       2.212  12.358  18.160  0.00  0.00    +0.000 A 
ATOM     14  C   UNL     1       1.264  11.789  19.031  0.00  0.00    +0.000 A 
ENDBRANCH   7  14
ENDBRANCH   3   7
ENDBRANCH   2   4
ENDBRANCH   1   2
BRANCH   1  15
ATOM     15  C   UNL     1       1.896   5.472  17.953  0.00  0.00    +0.000 C 
BRANCH  15  16
ATOM     16  C   UNL     1       1.744   4.438  19.059  0.00  0.00    +0.000 A 
ATOM     17  C   UNL     1       1.864   4.818  20.396  0.00  0.00    +0.000 A 
ATOM     18  C   UNL     1       1.909   3.827  21.371  0.00  0.00    +0.000 A 
ATOM     19  C   UNL     1       1.806   2.494  20.992  0.00  0.00    +0.000 A 
ATOM     20  C   UNL     1       1.646   2.205  19.649  0.00  0.00    +0.000 A 
ATOM     21  N   UNL     1       1.620   3.142  18.676  0.00  0.00    +0.000 NA
ENDBRANCH  15  16
ENDBRANCH   1  15
BRANCH   1  22
ATOM     22  C   UNL     1       4.217   5.687  17.329  0.00  0.00    +0.000 C 
BRANCH  22  23
ATOM     23  C   UNL     1       5.621   6.029  17.792  0.00  0.00    +0.000 A 
ATOM     24  C   UNL     1       6.362   7.014  17.140  0.00  0.00    +0.000 A 
ATOM     25  C   UNL     1       7.626   7.334  17.628  0.00  0.00    +0.000 A 
ATOM     26  C   UNL     1       8.123   6.653  18.733  0.00  0.00    +0.000 A 
ATOM     27  C   UNL     1       7.331   5.675  19.309  0.00  0.00    +0.000 A 
ATOM     28  N   UNL     1       6.096   5.352  18.868  0.00  0.00    +0.000 NA
ENDBRANCH  22  23
ENDBRANCH   1  22
TORSDOF 8
ENDMDL
MODEL 8
REMARK VINA RESULT:      -7.4      1.550      2.524
REMARK  Name = 
REMARK  9 active torsions:
REMARK  status: ('A' for Active; 'I' for Inactive)
REMARK    1  A    between atoms: C_1  and  C_2
REMARK    2  A    between atoms: C_7  and  C_8
REMARK    3  A    between atoms: C_8  and  N_9
REMARK    4  A    between atoms: C_10  and  C_12
REMARK    5  A    between atoms: C_12  and  N_13
REMARK    6  A    between atoms: N_13  and  C_14
REMARK    7  A    between atoms: N_13  and  C_21
REMARK    8  A    between atoms: C_14  and  C_15
REMARK    9  A    between atoms: C_21  and  C_22
REMARK                            x       y       z     vdW  Elec       q    Type
REMARK                         _______ _______ _______ _____ _____    ______ ____
ROOT
ATOM      1  N   UNL     1       3.175   6.176  18.166  0.00  0.00    +0.000 NA
ENDROOT
BRANCH   1   2
ATOM      2  C   UNL     1       2.535   7.478  17.807  0.00  0.00    +0.000 C 
BRANCH   2   4
ATOM      3  N   UNL     1       1.227   9.351  18.712  0.00  0.00    +0.000 N 
ATOM      4  C   UNL     1       1.923   8.202  19.018  0.00  0.00    +0.000 C 
ATOM      5  O   UNL     1       2.026   7.762  20.159  0.00  0.00    +0.000 OA
ATOM      6  H   UNL     1       1.103   9.571  17.729  0.00  0.00    +0.000 HD
BRANCH   3   7
ATOM      7  C   UNL     1       0.569  10.150  19.724  0.00  0.00    +0.000 C 
BRANCH   7  14
ATOM      8  C   UNL     1      -1.636  11.503  18.123  0.00  0.00    +0.000 C 
ATOM      9  C   UNL     1      -0.438  12.254  18.640  0.00  0.00    +0.000 A 
ATOM     10  C   UNL     1      -0.373  13.639  18.414  0.00  0.00    +0.000 A 
ATOM     11  C   UNL     1       0.687  14.401  18.907  0.00  0.00    +0.000 A 
ATOM     12  C   UNL     1       1.690  13.789  19.643  0.00  0.00    +0.000 A 
ATOM     13  C   UNL     1       1.636  12.414  19.881  0.00  0.00    +0.000 A 
ATOM     14  C   UNL     1       0.585  11.624  19.379  0.00  0.00    +0.000 A 
ENDBRANCH   7  14
ENDBRANCH   3   7
ENDBRANCH   2   4
ENDBRANCH   1   2
BRANCH   1  15
ATOM     15  C   UNL     1       2.181   5.071  18.016  0.00  0.00    +0.000 C 
BRANCH  15  16
ATOM     16  C   UNL     1       2.198   4.093  19.181  0.00  0.00    +0.000 A 
ATOM     17  C   UNL     1       1.136   4.061  20.086  0.00  0.00    +0.000 A 
ATOM     18  C   UNL     1       1.264   3.296  21.240  0.00  0.00    +0.000 A 
ATOM     19  C   UNL     1       2.428   2.566  21.448  0.00  0.00    +0.000 A 
ATOM     20  C   UNL     1       3.416   2.618  20.481  0.00  0.00    +0.000 A 
ATOM     21  N   UNL     1       3.331   3.368  19.360  0.00  0.00    +0.000 NA
ENDBRANCH  15  16
ENDBRANCH   1  15
BRANCH   1  22
ATOM     22  C   UNL     1       4.295   5.911  17.213  0.00  0.00    +0.000 C 
BRANCH  22  23
ATOM     23  C   UNL     1       5.681   6.248  17.732  0.00  0.00    +0.000 A 
ATOM     24  C   UNL     1       6.245   5.512  18.774  0.00  0.00    +0.000 A 
ATOM     25  C   UNL     1       7.538   5.820  19.187  0.00  0.00    +0.000 A 
ATOM     26  C   UNL     1       8.222   6.860  18.569  0.00  0.00    +0.000 A 
ATOM     27  C   UNL     1       7.582   7.554  17.558  0.00  0.00    +0.000 A 
ATOM     28  N   UNL     1       6.334   7.271  17.125  0.00  0.00    +0.000 NA
ENDBRANCH  22  23
ENDBRANCH   1  22
TORSDOF 8
ENDMDL
MODEL 9
REMARK VINA RESULT:      -7.3      4.685      7.744
REMARK  Name = 
REMARK  9 active torsions:
REMARK  status: ('A' for Active; 'I' for Inactive)
REMARK    1  A    between atoms: C_1  and  C_2
REMARK    2  A    between atoms: C_7  and  C_8
REMARK    3  A    between atoms: C_8  and  N_9
REMARK    4  A    between atoms: C_10  and  C_12
REMARK    5  A    between atoms: C_12  and  N_13
REMARK    6  A    between atoms: N_13  and  C_14
REMARK    7  A    between atoms: N_13  and  C_21
REMARK    8  A    between atoms: C_14  and  C_15
REMARK    9  A    between atoms: C_21  and  C_22
REMARK                            x       y       z     vdW  Elec       q    Type
REMARK                         _______ _______ _______ _____ _____    ______ ____
ROOT
ATOM      1  N   UNL     1       6.351   6.091  17.501  0.00  0.00    +0.000 NA
ENDROOT
BRANCH   1   2
ATOM      2  C   UNL     1       7.063   7.362  17.170  0.00  0.00    +0.000 C 
BRANCH   2   4
ATOM      3  N   UNL     1       8.359   9.138  18.266  0.00  0.00    +0.000 N 
ATOM      4  C   UNL     1       8.061   7.794  18.257  0.00  0.00    +0.000 C 
ATOM      5  O   UNL     1       8.524   6.997  19.069  0.00  0.00    +0.000 OA
ATOM      6  H   UNL     1       7.841   9.733  17.628  0.00  0.00    +0.000 HD
BRANCH   3   7
ATOM      7  C   UNL     1       9.265   9.724  19.232  0.00  0.00    +0.000 C 
BRANCH   7  14
ATOM      8  C   UNL     1       8.936  11.988  21.238  0.00  0.00    +0.000 C 
ATOM      9  C   UNL     1       9.433  12.219  19.836  0.00  0.00    +0.000 A 
ATOM     10  C   UNL     1       9.805  13.524  19.470  0.00  0.00    +0.000 A 
ATOM     11  C   UNL     1      10.317  13.797  18.201  0.00  0.00    +0.000 A 
ATOM     12  C   UNL     1      10.475  12.767  17.286  0.00  0.00    +0.000 A 
ATOM     13  C   UNL     1      10.115  11.465  17.638  0.00  0.00    +0.000 A 
ATOM     14  C   UNL     1       9.581  11.169  18.906  0.00  0.00    +0.000 A 
ENDBRANCH   7  14
ENDBRANCH   3   7
ENDBRANCH   2   4
ENDBRANCH   1   2
BRANCH   1  15
ATOM     15  C   UNL     1       5.010   6.081  16.844  0.00  0.00    +0.000 C 
BRANCH  15  16
ATOM     16  C   UNL     1       3.927   5.457  17.711  0.00  0.00    +0.000 A 
ATOM     17  C   UNL     1       3.147   4.411  17.215  0.00  0.00    +0.000 A 
ATOM     18  C   UNL     1       2.047   3.989  17.954  0.00  0.00    +0.000 A 
ATOM     19  C   UNL     1       1.770   4.598  19.172  0.00  0.00    +0.000 A 
ATOM     20  C   UNL     1       2.619   5.598  19.612  0.00  0.00    +0.000 A 
ATOM     21  N   UNL     1       3.682   6.045  18.909  0.00  0.00    +0.000 NA
ENDBRANCH  15  16
ENDBRANCH   1  15
BRANCH   1  22
ATOM     22  C   UNL     1       7.135   4.943  16.950  0.00  0.00    +0.000 C 
BRANCH  22  23
ATOM     23  C   UNL     1       6.980   4.710  15.458  0.00  0.00    +0.000 A 
ATOM     24  C   UNL     1       6.021   3.819  14.977  0.00  0.00    +0.000 A 
ATOM     25  C   UNL     1       5.876   3.672  13.600  0.00  0.00    +0.000 A 
ATOM     26  C   UNL     1       6.699   4.396  12.746  0.00  0.00    +0.000 A 
ATOM     27  C   UNL     1       7.638   5.243  13.306  0.00  0.00    +0.000 A 
ATOM     28  N   UNL     1       7.794   5.418  14.636  0.00  0.00    +0.000 NA
ENDBRANCH  22  23
ENDBRANCH   1  22
TORSDOF 8
ENDMDL
