MODEL 1
REMARK VINA RESULT:      -8.6      0.000      0.000
REMARK  Name = 
REMARK  4 active torsions:
REMARK  status: ('A' for Active; 'I' for Inactive)
REMARK    1  A    between atoms: C_2  and  O_3
REMARK    2  A    between atoms: C_2  and  C_4
REMARK    3  A    between atoms: N_12  and  S_13
REMARK    4  A    between atoms: S_13  and  C_16
REMARK                            x       y       z     vdW  Elec       q    Type
REMARK                         _______ _______ _______ _____ _____    ______ ____
ROOT
ATOM      1  C   UNL     1       2.384   4.281  20.729  0.00  0.00    +0.000 C 
ATOM      2  C   UNL     1       1.721   5.671  20.776  0.00  0.00    +0.000 C 
ATOM      3  C   UNL     1       2.360   6.365  19.612  0.00  0.00    +0.000 A 
ATOM      4  C   UNL     1       2.218   7.701  19.262  0.00  0.00    +0.000 A 
ATOM      5  C   UNL     1       2.784   8.134  18.063  0.00  0.00    +0.000 A 
ATOM      6  C   UNL     1       3.453   7.229  17.229  0.00  0.00    +0.000 A 
ATOM      7  C   UNL     1       3.578   5.882  17.589  0.00  0.00    +0.000 A 
ATOM      8  C   UNL     1       3.064   5.469  18.804  0.00  0.00    +0.000 A 
ATOM      9  N   UNL     1       2.919   4.142  19.323  0.00  0.00    +0.000 N 
ENDROOT
BRANCH   9  10
ATOM     10  S   UNL     1       4.038   2.900  19.036  0.00  0.00    +0.000 S 
ATOM     11  O   UNL     1       4.767   2.761  20.276  0.00  0.00    +0.000 OA
ATOM     12  O   UNL     1       3.389   1.751  18.448  0.00  0.00    +0.000 OA
BRANCH  10  13
ATOM     13  C   UNL     1       5.168   3.556  17.836  0.00  0.00    +0.000 A 
ATOM     14  C   UNL     1       6.215   4.377  18.266  0.00  0.00    +0.000 A 
ATOM     15  C   UNL     1       7.052   4.980  17.328  0.00  0.00    +0.000 A 
ATOM     16  C   UNL     1       6.855   4.768  15.956  0.00  0.00    +0.000 A 
ATOM     17  C   UNL     1       7.664   5.405  15.002  0.00  0.00    +0.000 A 
ATOM     18  C   UNL     1       7.462   5.185  13.640  0.00  0.00    +0.000 A 
ATOM     19  C   UNL     1       6.459   4.319  13.216  0.00  0.00    +0.000 A 
ATOM     20  C   UNL     1       5.643   3.679  14.152  0.00  0.00    +0.000 A 
ATOM     21  C   UNL     1       5.820   3.900  15.525  0.00  0.00    +0.000 A 
ATOM     22  C   UNL     1       4.984   3.289  16.477  0.00  0.00    +0.000 A 
ENDBRANCH  10  13
ENDBRANCH   9  10
BRANCH   1  24
ATOM     23  O   UNL     1       1.482   2.563  22.150  0.00  0.00    +0.000 OA
ATOM     24  C   UNL     1       1.385   3.223  21.124  0.00  0.00    +0.000 C 
BRANCH  24  25
ATOM     25  O   UNL     1       0.318   3.137  20.299  0.00  0.00    +0.000 OA
ATOM     26  H   UNL     1       0.594   3.128  19.358  0.00  0.00    +0.000 HD
ENDBRANCH  24  25
ENDBRANCH   1  24
TORSDOF 4
ENDMDL
MODEL 2
REMARK VINA RESULT:      -8.5      1.847      6.169
REMARK  Name = 
REMARK  4 active torsions:
REMARK  status: ('A' for Active; 'I' for Inactive)
REMARK    1  A    between atoms: C_2  and  O_3
REMARK    2  A    between atoms: C_2  and  C_4
REMARK    3  A    between atoms: N_12  and  S_13
REMARK    4  A    between atoms: S_13  and  C_16
REMARK                            x       y       z     vdW  Elec       q    Type
REMARK                         _______ _______ _______ _____ _____    ______ ____
ROOT
ATOM      1  C   UNL     1       6.955   4.620  17.823  0.00  0.00    +0.000 C 
ATOM      2  C   UNL     1       7.869   4.881  16.611  0.00  0.00    +0.000 C 
ATOM      3  C   UNL     1       6.992   4.491  15.461  0.00  0.00    +0.000 A 
ATOM      4  C   UNL     1       7.359   4.411  14.126  0.00  0.00    +0.000 A 
ATOM      5  C   UNL     1       6.365   4.160  13.180  0.00  0.00    +0.000 A 
ATOM      6  C   UNL     1       5.029   4.021  13.578  0.00  0.00    +0.000 A 
ATOM      7  C   UNL     1       4.670   4.117  14.927  0.00  0.00    +0.000 A 
ATOM      8  C   UNL     1       5.667   4.310  15.867  0.00  0.00    +0.000 A 
ATOM      9  N   UNL     1       5.550   4.600  17.265  0.00  0.00    +0.000 N 
ENDROOT
BRANCH   9  10
ATOM     10  S   UNL     1       4.330   3.958  18.252  0.00  0.00    +0.000 S 
ATOM     11  O   UNL     1       3.441   3.269  17.345  0.00  0.00    +0.000 OA
ATOM     12  O   UNL     1       4.900   3.253  19.377  0.00  0.00    +0.000 OA
BRANCH  10  13
ATOM     13  C   UNL     1       3.450   5.362  18.884  0.00  0.00    +0.000 A 
ATOM     14  C   UNL     1       2.862   5.281  20.150  0.00  0.00    +0.000 A 
ATOM     15  C   UNL     1       2.083   6.339  20.620  0.00  0.00    +0.000 A 
ATOM     16  C   UNL     1       1.888   7.484  19.835  0.00  0.00    +0.000 A 
ATOM     17  C   UNL     1       1.071   8.535  20.280  0.00  0.00    +0.000 A 
ATOM     18  C   UNL     1       0.885   9.671  19.493  0.00  0.00    +0.000 A 
ATOM     19  C   UNL     1       1.521   9.776  18.260  0.00  0.00    +0.000 A 
ATOM     20  C   UNL     1       2.336   8.739  17.801  0.00  0.00    +0.000 A 
ATOM     21  C   UNL     1       2.522   7.581  18.570  0.00  0.00    +0.000 A 
ATOM     22  C   UNL     1       3.311   6.514  18.105  0.00  0.00    +0.000 A 
ENDBRANCH  10  13
ENDBRANCH   9  10
BRANCH   1  24
ATOM     23  O   UNL     1       7.144   5.430  20.079  0.00  0.00    +0.000 OA
ATOM     24  C   UNL     1       7.191   5.668  18.880  0.00  0.00    +0.000 C 
BRANCH  24  25
ATOM     25  O   UNL     1       7.561   6.872  18.389  0.00  0.00    +0.000 OA
ATOM     26  H   UNL     1       7.607   7.548  19.099  0.00  0.00    +0.000 HD
ENDBRANCH  24  25
ENDBRANCH   1  24
TORSDOF 4
ENDMDL
MODEL 3
REMARK VINA RESULT:      -8.4      1.730      2.824
REMARK  Name = 
REMARK  4 active torsions:
REMARK  status: ('A' for Active; 'I' for Inactive)
REMARK    1  A    between atoms: C_2  and  O_3
REMARK    2  A    between atoms: C_2  and  C_4
REMARK    3  A    between atoms: N_12  and  S_13
REMARK    4  A    between atoms: S_13  and  C_16
REMARK                            x       y       z     vdW  Elec       q    Type
REMARK                         _______ _______ _______ _____ _____    ______ ____
ROOT
ATOM      1  C   UNL     1       4.137   4.542  19.804  0.00  0.00    +0.000 C 
ATOM      2  C   UNL     1       2.751   5.040  20.257  0.00  0.00    +0.000 C 
ATOM      3  C   UNL     1       2.653   6.370  19.576  0.00  0.00    +0.000 A 
ATOM      4  C   UNL     1       1.651   7.316  19.740  0.00  0.00    +0.000 A 
ATOM      5  C   UNL     1       1.661   8.441  18.915  0.00  0.00    +0.000 A 
ATOM      6  C   UNL     1       2.648   8.588  17.932  0.00  0.00    +0.000 A 
ATOM      7  C   UNL     1       3.646   7.620  17.769  0.00  0.00    +0.000 A 
ATOM      8  C   UNL     1       3.665   6.535  18.626  0.00  0.00    +0.000 A 
ATOM      9  N   UNL     1       4.464   5.348  18.568  0.00  0.00    +0.000 N 
ENDROOT
BRANCH   9  10
ATOM     10  S   UNL     1       6.073   5.332  18.034  0.00  0.00    +0.000 S 
ATOM     11  O   UNL     1       6.484   6.717  18.045  0.00  0.00    +0.000 OA
ATOM     12  O   UNL     1       6.844   4.346  18.756  0.00  0.00    +0.000 OA
BRANCH  10  13
ATOM     13  C   UNL     1       5.999   4.821  16.337  0.00  0.00    +0.000 A 
ATOM     14  C   UNL     1       5.065   3.850  15.960  0.00  0.00    +0.000 A 
ATOM     15  C   UNL     1       5.059   3.366  14.652  0.00  0.00    +0.000 A 
ATOM     16  C   UNL     1       5.980   3.846  13.710  0.00  0.00    +0.000 A 
ATOM     17  C   UNL     1       6.012   3.334  12.404  0.00  0.00    +0.000 A 
ATOM     18  C   UNL     1       6.930   3.820  11.474  0.00  0.00    +0.000 A 
ATOM     19  C   UNL     1       7.817   4.830  11.833  0.00  0.00    +0.000 A 
ATOM     20  C   UNL     1       7.801   5.349  13.129  0.00  0.00    +0.000 A 
ATOM     21  C   UNL     1       6.896   4.862  14.084  0.00  0.00    +0.000 A 
ATOM     22  C   UNL     1       6.892   5.351  15.402  0.00  0.00    +0.000 A 
ENDBRANCH  10  13
ENDBRANCH   9  10
BRANCH   1  24
ATOM     23  O   UNL     1       3.199   2.487  18.982  0.00  0.00    +0.000 OA
ATOM     24  C   UNL     1       4.101   3.051  19.586  0.00  0.00    +0.000 C 
BRANCH  24  25
ATOM     25  O   UNL     1       5.203   2.403  20.024  0.00  0.00    +0.000 OA
ATOM     26  H   UNL     1       5.015   1.455  20.197  0.00  0.00    +0.000 HD
ENDBRANCH  24  25
ENDBRANCH   1  24
TORSDOF 4
ENDMDL
MODEL 4
REMARK VINA RESULT:      -8.4      6.005      8.002
REMARK  Name = 
REMARK  4 active torsions:
REMARK  status: ('A' for Active; 'I' for Inactive)
REMARK    1  A    between atoms: C_2  and  O_3
REMARK    2  A    between atoms: C_2  and  C_4
REMARK    3  A    between atoms: N_12  and  S_13
REMARK    4  A    between atoms: S_13  and  C_16
REMARK                            x       y       z     vdW  Elec       q    Type
REMARK                         _______ _______ _______ _____ _____    ______ ____
ROOT
ATOM      1  C   UNL     1      -1.631  12.583  20.651  0.00  0.00    +0.000 C 
ATOM      2  C   UNL     1      -3.090  12.561  20.160  0.00  0.00    +0.000 C 
ATOM      3  C   UNL     1      -2.987  11.762  18.896  0.00  0.00    +0.000 A 
ATOM      4  C   UNL     1      -3.997  11.536  17.972  0.00  0.00    +0.000 A 
ATOM      5  C   UNL     1      -3.748  10.652  16.923  0.00  0.00    +0.000 A 
ATOM      6  C   UNL     1      -2.515   9.994  16.831  0.00  0.00    +0.000 A 
ATOM      7  C   UNL     1      -1.509  10.221  17.777  0.00  0.00    +0.000 A 
ATOM      8  C   UNL     1      -1.741  11.141  18.784  0.00  0.00    +0.000 A 
ATOM      9  N   UNL     1      -0.955  11.430  19.946  0.00  0.00    +0.000 N 
ENDROOT
BRANCH   9  10
ATOM     10  S   UNL     1       0.740  11.396  19.958  0.00  0.00    +0.000 S 
ATOM     11  O   UNL     1       1.134  11.967  18.691  0.00  0.00    +0.000 OA
ATOM     12  O   UNL     1       1.255  11.949  21.190  0.00  0.00    +0.000 OA
BRANCH  10  13
ATOM     13  C   UNL     1       1.175   9.677  19.915  0.00  0.00    +0.000 A 
ATOM     14  C   UNL     1       0.871   8.872  21.018  0.00  0.00    +0.000 A 
ATOM     15  C   UNL     1       1.294   7.542  21.042  0.00  0.00    +0.000 A 
ATOM     16  C   UNL     1       2.019   7.006  19.970  0.00  0.00    +0.000 A 
ATOM     17  C   UNL     1       2.487   5.683  20.003  0.00  0.00    +0.000 A 
ATOM     18  C   UNL     1       3.206   5.157  18.930  0.00  0.00    +0.000 A 
ATOM     19  C   UNL     1       3.454   5.941  17.807  0.00  0.00    +0.000 A 
ATOM     20  C   UNL     1       2.998   7.260  17.758  0.00  0.00    +0.000 A 
ATOM     21  C   UNL     1       2.288   7.813  18.835  0.00  0.00    +0.000 A 
ATOM     22  C   UNL     1       1.853   9.150  18.813  0.00  0.00    +0.000 A 
ENDBRANCH  10  13
ENDBRANCH   9  10
BRANCH   1  24
ATOM     23  O   UNL     1      -2.117  11.594  22.788  0.00  0.00    +0.000 OA
ATOM     24  C   UNL     1      -1.594  12.501  22.156  0.00  0.00    +0.000 C 
BRANCH  24  25
ATOM     25  O   UNL     1      -0.845  13.461  22.743  0.00  0.00    +0.000 OA
ATOM     26  H   UNL     1      -1.344  13.918  23.454  0.00  0.00    +0.000 HD
ENDBRANCH  24  25
ENDBRANCH   1  24
TORSDOF 4
ENDMDL
MODEL 5
REMARK VINA RESULT:      -8.3      6.023      8.168
REMARK  Name = 
REMARK  4 active torsions:
REMARK  status: ('A' for Active; 'I' for Inactive)
REMARK    1  A    between atoms: C_2  and  O_3
REMARK    2  A    between atoms: C_2  and  C_4
REMARK    3  A    between atoms: N_12  and  S_13
REMARK    4  A    between atoms: S_13  and  C_16
REMARK                            x       y       z     vdW  Elec       q    Type
REMARK                         _______ _______ _______ _____ _____    ______ ____
ROOT
ATOM      1  C   UNL     1      -1.548  12.593  20.657  0.00  0.00    +0.000 C 
ATOM      2  C   UNL     1      -3.032  12.442  20.273  0.00  0.00    +0.000 C 
ATOM      3  C   UNL     1      -2.948  11.732  18.956  0.00  0.00    +0.000 A 
ATOM      4  C   UNL     1      -3.999  11.453  18.095  0.00  0.00    +0.000 A 
ATOM      5  C   UNL     1      -3.745  10.661  16.975  0.00  0.00    +0.000 A 
ATOM      6  C   UNL     1      -2.462  10.146  16.751  0.00  0.00    +0.000 A 
ATOM      7  C   UNL     1      -1.413  10.425  17.634  0.00  0.00    +0.000 A 
ATOM      8  C   UNL     1      -1.657  11.256  18.713  0.00  0.00    +0.000 A 
ATOM      9  N   UNL     1      -0.816  11.560  19.831  0.00  0.00    +0.000 N 
ENDROOT
BRANCH   9  10
ATOM     10  S   UNL     1       0.870  11.708  19.718  0.00  0.00    +0.000 S 
ATOM     11  O   UNL     1       1.094  12.532  18.552  0.00  0.00    +0.000 OA
ATOM     12  O   UNL     1       1.438  12.089  20.990  0.00  0.00    +0.000 OA
BRANCH  10  13
ATOM     13  C   UNL     1       1.458  10.081  19.329  0.00  0.00    +0.000 A 
ATOM     14  C   UNL     1       2.000   9.839  18.063  0.00  0.00    +0.000 A 
ATOM     15  C   UNL     1       2.376   8.543  17.706  0.00  0.00    +0.000 A 
ATOM     16  C   UNL     1       2.218   7.482  18.608  0.00  0.00    +0.000 A 
ATOM     17  C   UNL     1       2.551   6.168  18.244  0.00  0.00    +0.000 A 
ATOM     18  C   UNL     1       2.393   5.119  19.149  0.00  0.00    +0.000 A 
ATOM     19  C   UNL     1       1.911   5.371  20.430  0.00  0.00    +0.000 A 
ATOM     20  C   UNL     1       1.572   6.672  20.808  0.00  0.00    +0.000 A 
ATOM     21  C   UNL     1       1.709   7.738  19.906  0.00  0.00    +0.000 A 
ATOM     22  C   UNL     1       1.338   9.047  20.262  0.00  0.00    +0.000 A 
ENDBRANCH  10  13
ENDBRANCH   9  10
BRANCH   1  24
ATOM     23  O   UNL     1      -1.761  11.437  22.755  0.00  0.00    +0.000 OA
ATOM     24  C   UNL     1      -1.384  12.429  22.147  0.00  0.00    +0.000 C 
BRANCH  24  25
ATOM     25  O   UNL     1      -0.691  13.428  22.739  0.00  0.00    +0.000 OA
ATOM     26  H   UNL     1      -1.268  14.200  22.926  0.00  0.00    +0.000 HD
ENDBRANCH  24  25
ENDBRANCH   1  24
TORSDOF 4
ENDMDL
MODEL 6
REMARK VINA RESULT:      -8.3      1.138      1.964
REMARK  Name = 
REMARK  4 active torsions:
REMARK  status: ('A' for Active; 'I' for Inactive)
REMARK    1  A    between atoms: C_2  and  O_3
REMARK    2  A    between atoms: C_2  and  C_4
REMARK    3  A    between atoms: N_12  and  S_13
REMARK    4  A    between atoms: S_13  and  C_16
REMARK                            x       y       z     vdW  Elec       q    Type
REMARK                         _______ _______ _______ _____ _____    ______ ____
ROOT
ATOM      1  C   UNL     1       2.950   4.736  20.647  0.00  0.00    +0.000 C 
ATOM      2  C   UNL     1       1.753   5.701  20.748  0.00  0.00    +0.000 C 
ATOM      3  C   UNL     1       2.124   6.770  19.766  0.00  0.00    +0.000 A 
ATOM      4  C   UNL     1       1.451   7.963  19.544  0.00  0.00    +0.000 A 
ATOM      5  C   UNL     1       1.872   8.774  18.490  0.00  0.00    +0.000 A 
ATOM      6  C   UNL     1       2.931   8.370  17.667  0.00  0.00    +0.000 A 
ATOM      7  C   UNL     1       3.593   7.157  17.894  0.00  0.00    +0.000 A 
ATOM      8  C   UNL     1       3.209   6.384  18.975  0.00  0.00    +0.000 A 
ATOM      9  N   UNL     1       3.606   5.053  19.323  0.00  0.00    +0.000 N 
ENDROOT
BRANCH   9  10
ATOM     10  S   UNL     1       5.169   4.449  19.066  0.00  0.00    +0.000 S 
ATOM     11  O   UNL     1       6.054   5.495  19.523  0.00  0.00    +0.000 OA
ATOM     12  O   UNL     1       5.296   3.112  19.600  0.00  0.00    +0.000 OA
BRANCH  10  13
ATOM     13  C   UNL     1       5.348   4.345  17.304  0.00  0.00    +0.000 A 
ATOM     14  C   UNL     1       4.420   3.598  16.570  0.00  0.00    +0.000 A 
ATOM     15  C   UNL     1       4.602   3.425  15.198  0.00  0.00    +0.000 A 
ATOM     16  C   UNL     1       5.704   3.996  14.547  0.00  0.00    +0.000 A 
ATOM     17  C   UNL     1       5.920   3.791  13.175  0.00  0.00    +0.000 A 
ATOM     18  C   UNL     1       7.019   4.365  12.537  0.00  0.00    +0.000 A 
ATOM     19  C   UNL     1       7.906   5.159  13.256  0.00  0.00    +0.000 A 
ATOM     20  C   UNL     1       7.708   5.371  14.622  0.00  0.00    +0.000 A 
ATOM     21  C   UNL     1       6.619   4.789  15.286  0.00  0.00    +0.000 A 
ATOM     22  C   UNL     1       6.426   4.966  16.668  0.00  0.00    +0.000 A 
ENDBRANCH  10  13
ENDBRANCH   9  10
BRANCH   1  24
ATOM     23  O   UNL     1       2.055   2.656  19.840  0.00  0.00    +0.000 OA
ATOM     24  C   UNL     1       2.474   3.312  20.783  0.00  0.00    +0.000 C 
BRANCH  24  25
ATOM     25  O   UNL     1       2.648   2.788  22.017  0.00  0.00    +0.000 OA
ATOM     26  H   UNL     1       2.308   1.869  22.065  0.00  0.00    +0.000 HD
ENDBRANCH  24  25
ENDBRANCH   1  24
TORSDOF 4
ENDMDL
MODEL 7
REMARK VINA RESULT:      -8.3      1.056      1.341
REMARK  Name = 
REMARK  4 active torsions:
REMARK  status: ('A' for Active; 'I' for Inactive)
REMARK    1  A    between atoms: C_2  and  O_3
REMARK    2  A    between atoms: C_2  and  C_4
REMARK    3  A    between atoms: N_12  and  S_13
REMARK    4  A    between atoms: S_13  and  C_16
REMARK                            x       y       z     vdW  Elec       q    Type
REMARK                         _______ _______ _______ _____ _____    ______ ____
ROOT
ATOM      1  C   UNL     1       2.790   4.480  20.075  0.00  0.00    +0.000 C 
ATOM      2  C   UNL     1       1.653   5.509  19.926  0.00  0.00    +0.000 C 
ATOM      3  C   UNL     1       2.292   6.566  19.078  0.00  0.00    +0.000 A 
ATOM      4  C   UNL     1       1.750   7.798  18.738  0.00  0.00    +0.000 A 
ATOM      5  C   UNL     1       2.441   8.595  17.825  0.00  0.00    +0.000 A 
ATOM      6  C   UNL     1       3.636   8.141  17.253  0.00  0.00    +0.000 A 
ATOM      7  C   UNL     1       4.165   6.891  17.596  0.00  0.00    +0.000 A 
ATOM      8  C   UNL     1       3.507   6.129  18.543  0.00  0.00    +0.000 A 
ATOM      9  N   UNL     1       3.744   4.774  18.941  0.00  0.00    +0.000 N 
ENDROOT
BRANCH   9  10
ATOM     10  S   UNL     1       5.292   4.085  19.029  0.00  0.00    +0.000 S 
ATOM     11  O   UNL     1       6.039   4.958  19.905  0.00  0.00    +0.000 OA
ATOM     12  O   UNL     1       5.208   2.673  19.319  0.00  0.00    +0.000 OA
BRANCH  10  13
ATOM     13  C   UNL     1       5.977   4.263  17.403  0.00  0.00    +0.000 A 
ATOM     14  C   UNL     1       7.130   5.037  17.233  0.00  0.00    +0.000 A 
ATOM     15  C   UNL     1       7.625   5.269  15.950  0.00  0.00    +0.000 A 
ATOM     16  C   UNL     1       6.979   4.730  14.829  0.00  0.00    +0.000 A 
ATOM     17  C   UNL     1       7.444   4.993  13.531  0.00  0.00    +0.000 A 
ATOM     18  C   UNL     1       6.796   4.451  12.422  0.00  0.00    +0.000 A 
ATOM     19  C   UNL     1       5.686   3.630  12.596  0.00  0.00    +0.000 A 
ATOM     20  C   UNL     1       5.208   3.360  13.881  0.00  0.00    +0.000 A 
ATOM     21  C   UNL     1       5.836   3.910  15.008  0.00  0.00    +0.000 A 
ATOM     22  C   UNL     1       5.346   3.674  16.305  0.00  0.00    +0.000 A 
ENDBRANCH  10  13
ENDBRANCH   9  10
BRANCH   1  24
ATOM     23  O   UNL     1       1.734   2.555  21.056  0.00  0.00    +0.000 OA
ATOM     24  C   UNL     1       2.222   3.083  20.067  0.00  0.00    +0.000 C 
BRANCH  24  25
ATOM     25  O   UNL     1       2.204   2.503  18.846  0.00  0.00    +0.000 OA
ATOM     26  H   UNL     1       2.243   3.175  18.131  0.00  0.00    +0.000 HD
ENDBRANCH  24  25
ENDBRANCH   1  24
TORSDOF 4
ENDMDL
MODEL 8
REMARK VINA RESULT:      -8.2      1.752      5.899
REMARK  Name = 
REMARK  4 active torsions:
REMARK  status: ('A' for Active; 'I' for Inactive)
REMARK    1  A    between atoms: C_2  and  O_3
REMARK    2  A    between atoms: C_2  and  C_4
REMARK    3  A    between atoms: N_12  and  S_13
REMARK    4  A    between atoms: S_13  and  C_16
REMARK                            x       y       z     vdW  Elec       q    Type
REMARK                         _______ _______ _______ _____ _____    ______ ____
ROOT
ATOM      1  C   UNL     1       3.215   3.639  17.279  0.00  0.00    +0.000 C 
ATOM      2  C   UNL     1       3.570   3.308  15.817  0.00  0.00    +0.000 C 
ATOM      3  C   UNL     1       4.902   3.976  15.655  0.00  0.00    +0.000 A 
ATOM      4  C   UNL     1       5.630   4.102  14.481  0.00  0.00    +0.000 A 
ATOM      5  C   UNL     1       6.916   4.639  14.555  0.00  0.00    +0.000 A 
ATOM      6  C   UNL     1       7.456   5.013  15.792  0.00  0.00    +0.000 A 
ATOM      7  C   UNL     1       6.714   4.869  16.970  0.00  0.00    +0.000 A 
ATOM      8  C   UNL     1       5.420   4.388  16.885  0.00  0.00    +0.000 A 
ATOM      9  N   UNL     1       4.527   4.000  17.935  0.00  0.00    +0.000 N 
ENDROOT
BRANCH   9  10
ATOM     10  S   UNL     1       4.455   4.786  19.436  0.00  0.00    +0.000 S 
ATOM     11  O   UNL     1       3.758   3.866  20.306  0.00  0.00    +0.000 OA
ATOM     12  O   UNL     1       5.755   5.290  19.814  0.00  0.00    +0.000 OA
BRANCH  10  13
ATOM     13  C   UNL     1       3.387   6.180  19.185  0.00  0.00    +0.000 A 
ATOM     14  C   UNL     1       3.454   6.877  17.974  0.00  0.00    +0.000 A 
ATOM     15  C   UNL     1       2.693   8.033  17.798  0.00  0.00    +0.000 A 
ATOM     16  C   UNL     1       1.861   8.502  18.824  0.00  0.00    +0.000 A 
ATOM     17  C   UNL     1       1.126   9.688  18.674  0.00  0.00    +0.000 A 
ATOM     18  C   UNL     1       0.300  10.145  19.699  0.00  0.00    +0.000 A 
ATOM     19  C   UNL     1       0.188   9.418  20.880  0.00  0.00    +0.000 A 
ATOM     20  C   UNL     1       0.914   8.237  21.047  0.00  0.00    +0.000 A 
ATOM     21  C   UNL     1       1.764   7.769  20.034  0.00  0.00    +0.000 A 
ATOM     22  C   UNL     1       2.527   6.600  20.203  0.00  0.00    +0.000 A 
ENDBRANCH  10  13
ENDBRANCH   9  10
BRANCH   1  24
ATOM     23  O   UNL     1       1.288   2.430  18.056  0.00  0.00    +0.000 OA
ATOM     24  C   UNL     1       2.501   2.471  17.911  0.00  0.00    +0.000 C 
BRANCH  24  25
ATOM     25  O   UNL     1       3.308   1.428  18.208  0.00  0.00    +0.000 OA
ATOM     26  H   UNL     1       3.615   0.971  17.395  0.00  0.00    +0.000 HD
ENDBRANCH  24  25
ENDBRANCH   1  24
TORSDOF 4
ENDMDL
MODEL 9
REMARK VINA RESULT:      -8.2      2.084      6.509
REMARK  Name = 
REMARK  4 active torsions:
REMARK  status: ('A' for Active; 'I' for Inactive)
REMARK    1  A    between atoms: C_2  and  O_3
REMARK    2  A    between atoms: C_2  and  C_4
REMARK    3  A    between atoms: N_12  and  S_13
REMARK    4  A    between atoms: S_13  and  C_16
REMARK                            x       y       z     vdW  Elec       q    Type
REMARK                         _______ _______ _______ _____ _____    ______ ____
ROOT
ATOM      1  C   UNL     1       7.152   4.787  18.109  0.00  0.00    +0.000 C 
ATOM      2  C   UNL     1       7.987   4.778  16.814  0.00  0.00    +0.000 C 
ATOM      3  C   UNL     1       6.958   4.452  15.775  0.00  0.00    +0.000 A 
ATOM      4  C   UNL     1       7.187   4.194  14.431  0.00  0.00    +0.000 A 
ATOM      5  C   UNL     1       6.086   4.043  13.590  0.00  0.00    +0.000 A 
ATOM      6  C   UNL     1       4.786   4.177  14.095  0.00  0.00    +0.000 A 
ATOM      7  C   UNL     1       4.569   4.449  15.451  0.00  0.00    +0.000 A 
ATOM      8  C   UNL     1       5.663   4.543  16.292  0.00  0.00    +0.000 A 
ATOM      9  N   UNL     1       5.721   4.967  17.659  0.00  0.00    +0.000 N 
ENDROOT
BRANCH   9  10
ATOM     10  S   UNL     1       4.502   4.637  18.790  0.00  0.00    +0.000 S 
ATOM     11  O   UNL     1       3.735   3.559  18.209  0.00  0.00    +0.000 OA
ATOM     12  O   UNL     1       5.059   4.493  20.116  0.00  0.00    +0.000 OA
BRANCH  10  13
ATOM     13  C   UNL     1       3.464   6.075  18.795  0.00  0.00    +0.000 A 
ATOM     14  C   UNL     1       3.496   6.939  17.695  0.00  0.00    +0.000 A 
ATOM     15  C   UNL     1       2.761   8.124  17.724  0.00  0.00    +0.000 A 
ATOM     16  C   UNL     1       1.990   8.457  18.846  0.00  0.00    +0.000 A 
ATOM     17  C   UNL     1       1.282   9.668  18.904  0.00  0.00    +0.000 A 
ATOM     18  C   UNL     1       0.516   9.989  20.024  0.00  0.00    +0.000 A 
ATOM     19  C   UNL     1       0.437   9.100  21.092  0.00  0.00    +0.000 A 
ATOM     20  C   UNL     1       1.136   7.892  21.052  0.00  0.00    +0.000 A 
ATOM     21  C   UNL     1       1.926   7.559  19.942  0.00  0.00    +0.000 A 
ATOM     22  C   UNL     1       2.663   6.362  19.903  0.00  0.00    +0.000 A 
ENDBRANCH  10  13
ENDBRANCH   9  10
BRANCH   1  24
ATOM     23  O   UNL     1       7.904   7.002  18.665  0.00  0.00    +0.000 OA
ATOM     24  C   UNL     1       7.655   5.864  19.037  0.00  0.00    +0.000 C 
BRANCH  24  25
ATOM     25  O   UNL     1       7.706   5.493  20.335  0.00  0.00    +0.000 OA
ATOM     26  H   UNL     1       7.060   5.997  20.876  0.00  0.00    +0.000 HD
ENDBRANCH  24  25
ENDBRANCH   1  24
TORSDOF 4
ENDMDL
