MODEL 1
REMARK VINA RESULT:      -8.2      0.000      0.000
REMARK  Name = 
REMARK  5 active torsions:
REMARK  status: ('A' for Active; 'I' for Inactive)
REMARK    1  A    between atoms: S_2  and  C_4
REMARK    2  A    between atoms: S_2  and  N_22
REMARK    3  A    between atoms: C_9  and  S_10
REMARK    4  A    between atoms: S_10  and  C_11
REMARK    5  A    between atoms: C_11  and  C_12
REMARK                            x       y       z     vdW  Elec       q    Type
REMARK                         _______ _______ _______ _____ _____    ______ ____
ROOT
ATOM      1  C   UNL     1       3.181   5.431  18.846  0.00  0.00    +0.000 A 
ATOM      2  C   UNL     1       2.604   4.939  20.026  0.00  0.00    +0.000 A 
ATOM      3  C   UNL     1       1.827   5.767  20.845  0.00  0.00    +0.000 A 
ATOM      4  C   UNL     1       1.653   7.085  20.416  0.00  0.00    +0.000 A 
ATOM      5  N   UNL     1       1.003   8.158  20.974  0.00  0.00    +0.000 N 
ATOM      6  C   UNL     1       1.097   9.203  20.103  0.00  0.00    +0.000 A 
ATOM      7  N   UNL     1       1.795   8.897  19.035  0.00  0.00    +0.000 NA
ATOM      8  C   UNL     1       2.167   7.582  19.220  0.00  0.00    +0.000 A 
ATOM      9  C   UNL     1       2.948   6.744  18.408  0.00  0.00    +0.000 A 
ATOM     10  H   UNL     1       0.532   8.186  21.866  0.00  0.00    +0.000 HD
ENDROOT
BRANCH   1  12
ATOM     11  O   UNL     1       4.949   3.518  18.785  0.00  0.00    +0.000 OA
ATOM     12  S   UNL     1       4.184   4.331  17.862  0.00  0.00    +0.000 S 
ATOM     13  O   UNL     1       3.343   3.724  16.854  0.00  0.00    +0.000 OA
BRANCH  12  14
ATOM     14  N   UNL     1       5.248   5.410  17.089  0.00  0.00    +0.000 NA
ATOM     15  C   UNL     1       5.498   5.191  15.628  0.00  0.00    +0.000 C 
ATOM     16  C   UNL     1       6.639   4.191  15.381  0.00  0.00    +0.000 C 
ATOM     17  O   UNL     1       7.834   4.563  16.081  0.00  0.00    +0.000 OA
ATOM     18  C   UNL     1       7.586   4.629  17.493  0.00  0.00    +0.000 C 
ATOM     19  C   UNL     1       6.535   5.695  17.799  0.00  0.00    +0.000 C 
ENDBRANCH  12  14
ENDBRANCH   1  12
BRANCH   6  20
ATOM     20  S   UNL     1       0.359  10.709  20.502  0.00  0.00    +0.000 S 
BRANCH  20  21
ATOM     21  C   UNL     1      -0.081  11.329  18.850  0.00  0.00    +0.000 C 
BRANCH  21  22
ATOM     22  C   UNL     1      -1.574  11.243  18.602  0.00  0.00    +0.000 A 
ATOM     23  C   UNL     1      -2.458  12.105  19.269  0.00  0.00    +0.000 A 
ATOM     24  C   UNL     1      -3.837  12.023  19.047  0.00  0.00    +0.000 A 
ATOM     25  C   UNL     1      -4.340  11.076  18.160  0.00  0.00    +0.000 A 
ATOM     26 CL   UNL     1      -6.037  10.969  17.892  0.00  0.00    +0.000 Cl
ATOM     27  C   UNL     1      -3.480  10.210  17.492  0.00  0.00    +0.000 A 
ATOM     28  C   UNL     1      -2.101  10.293  17.715  0.00  0.00    +0.000 A 
ENDBRANCH  21  22
ENDBRANCH  20  21
ENDBRANCH   6  20
TORSDOF 5
ENDMDL
MODEL 2
REMARK VINA RESULT:      -8.0      1.956      2.387
REMARK  Name = 
REMARK  5 active torsions:
REMARK  status: ('A' for Active; 'I' for Inactive)
REMARK    1  A    between atoms: S_2  and  C_4
REMARK    2  A    between atoms: S_2  and  N_22
REMARK    3  A    between atoms: C_9  and  S_10
REMARK    4  A    between atoms: S_10  and  C_11
REMARK    5  A    between atoms: C_11  and  C_12
REMARK                            x       y       z     vdW  Elec       q    Type
REMARK                         _______ _______ _______ _____ _____    ______ ____
ROOT
ATOM      1  C   UNL     1       3.181   6.092  18.755  0.00  0.00    +0.000 A 
ATOM      2  C   UNL     1       2.573   5.854  19.996  0.00  0.00    +0.000 A 
ATOM      3  C   UNL     1       1.772   6.829  20.602  0.00  0.00    +0.000 A 
ATOM      4  C   UNL     1       1.607   8.027  19.903  0.00  0.00    +0.000 A 
ATOM      5  N   UNL     1       0.940   9.188  20.207  0.00  0.00    +0.000 N 
ATOM      6  C   UNL     1       1.056  10.028  19.138  0.00  0.00    +0.000 A 
ATOM      7  N   UNL     1       1.783   9.511  18.177  0.00  0.00    +0.000 NA
ATOM      8  C   UNL     1       2.152   8.267  18.643  0.00  0.00    +0.000 A 
ATOM      9  C   UNL     1       2.957   7.283  18.045  0.00  0.00    +0.000 A 
ATOM     10  H   UNL     1       0.445   9.398  21.060  0.00  0.00    +0.000 HD
ENDROOT
BRANCH   1  12
ATOM     11  O   UNL     1       4.832   4.117  19.155  0.00  0.00    +0.000 OA
ATOM     12  S   UNL     1       4.212   4.819  18.049  0.00  0.00    +0.000 S 
ATOM     13  O   UNL     1       3.442   4.107  17.052  0.00  0.00    +0.000 OA
BRANCH  12  14
ATOM     14  N   UNL     1       5.409   5.726  17.250  0.00  0.00    +0.000 NA
ATOM     15  C   UNL     1       5.615   5.448  15.793  0.00  0.00    +0.000 C 
ATOM     16  C   UNL     1       6.606   4.296  15.559  0.00  0.00    +0.000 C 
ATOM     17  O   UNL     1       7.845   4.513  16.247  0.00  0.00    +0.000 OA
ATOM     18  C   UNL     1       7.620   4.638  17.658  0.00  0.00    +0.000 C 
ATOM     19  C   UNL     1       6.728   5.844  17.948  0.00  0.00    +0.000 C 
ENDBRANCH  12  14
ENDBRANCH   1  12
BRANCH   6  20
ATOM     20  S   UNL     1       0.304  11.578  19.193  0.00  0.00    +0.000 S 
BRANCH  20  21
ATOM     21  C   UNL     1       0.287  11.894  20.983  0.00  0.00    +0.000 C 
BRANCH  21  22
ATOM     22  C   UNL     1      -1.118  12.148  21.492  0.00  0.00    +0.000 A 
ATOM     23  C   UNL     1      -2.106  12.655  20.633  0.00  0.00    +0.000 A 
ATOM     24  C   UNL     1      -3.401  12.898  21.100  0.00  0.00    +0.000 A 
ATOM     25  C   UNL     1      -3.716  12.641  22.432  0.00  0.00    +0.000 A 
ATOM     26 CL   UNL     1      -5.308  12.946  23.010  0.00  0.00    +0.000 Cl
ATOM     27  C   UNL     1      -2.749  12.142  23.300  0.00  0.00    +0.000 A 
ATOM     28  C   UNL     1      -1.454  11.899  22.831  0.00  0.00    +0.000 A 
ENDBRANCH  21  22
ENDBRANCH  20  21
ENDBRANCH   6  20
TORSDOF 5
ENDMDL
MODEL 3
REMARK VINA RESULT:      -8.0      1.052      1.449
REMARK  Name = 
REMARK  5 active torsions:
REMARK  status: ('A' for Active; 'I' for Inactive)
REMARK    1  A    between atoms: S_2  and  C_4
REMARK    2  A    between atoms: S_2  and  N_22
REMARK    3  A    between atoms: C_9  and  S_10
REMARK    4  A    between atoms: S_10  and  C_11
REMARK    5  A    between atoms: C_11  and  C_12
REMARK                            x       y       z     vdW  Elec       q    Type
REMARK                         _______ _______ _______ _____ _____    ______ ____
ROOT
ATOM      1  C   UNL     1       3.538   5.002  19.048  0.00  0.00    +0.000 A 
ATOM      2  C   UNL     1       2.818   4.256  19.992  0.00  0.00    +0.000 A 
ATOM      3  C   UNL     1       1.884   4.871  20.833  0.00  0.00    +0.000 A 
ATOM      4  C   UNL     1       1.705   6.247  20.670  0.00  0.00    +0.000 A 
ATOM      5  N   UNL     1       0.922   7.161  21.332  0.00  0.00    +0.000 N 
ATOM      6  C   UNL     1       1.090   8.371  20.726  0.00  0.00    +0.000 A 
ATOM      7  N   UNL     1       1.955   8.318  19.742  0.00  0.00    +0.000 NA
ATOM      8  C   UNL     1       2.365   7.002  19.702  0.00  0.00    +0.000 A 
ATOM      9  C   UNL     1       3.303   6.375  18.865  0.00  0.00    +0.000 A 
ATOM     10  H   UNL     1       0.323   6.986  22.123  0.00  0.00    +0.000 HD
ENDROOT
BRANCH   1  12
ATOM     11  O   UNL     1       5.970   4.108  18.779  0.00  0.00    +0.000 OA
ATOM     12  S   UNL     1       4.734   4.162  18.025  0.00  0.00    +0.000 S 
ATOM     13  O   UNL     1       4.125   2.958  17.505  0.00  0.00    +0.000 OA
BRANCH  12  14
ATOM     14  N   UNL     1       4.938   5.256  16.738  0.00  0.00    +0.000 NA
ATOM     15  C   UNL     1       5.321   4.680  15.409  0.00  0.00    +0.000 C 
ATOM     16  C   UNL     1       6.844   4.525  15.265  0.00  0.00    +0.000 C 
ATOM     17  O   UNL     1       7.533   5.753  15.539  0.00  0.00    +0.000 OA
ATOM     18  C   UNL     1       7.246   6.201  16.871  0.00  0.00    +0.000 C 
ATOM     19  C   UNL     1       5.752   6.478  17.029  0.00  0.00    +0.000 C 
ENDBRANCH  12  14
ENDBRANCH   1  12
BRANCH   6  20
ATOM     20  S   UNL     1       0.221   9.740  21.311  0.00  0.00    +0.000 S 
BRANCH  20  21
ATOM     21  C   UNL     1       0.421  10.899  19.925  0.00  0.00    +0.000 C 
BRANCH  21  22
ATOM     22  C   UNL     1      -0.801  10.910  19.027  0.00  0.00    +0.000 A 
ATOM     23  C   UNL     1      -0.842  10.115  17.871  0.00  0.00    +0.000 A 
ATOM     24  C   UNL     1      -1.965  10.129  17.037  0.00  0.00    +0.000 A 
ATOM     25  C   UNL     1      -3.051  10.941  17.351  0.00  0.00    +0.000 A 
ATOM     26 CL   UNL     1      -4.430  10.964  16.321  0.00  0.00    +0.000 Cl
ATOM     27  C   UNL     1      -3.027  11.738  18.491  0.00  0.00    +0.000 A 
ATOM     28  C   UNL     1      -1.904  11.724  19.324  0.00  0.00    +0.000 A 
ENDBRANCH  21  22
ENDBRANCH  20  21
ENDBRANCH   6  20
TORSDOF 5
ENDMDL
MODEL 4
REMARK VINA RESULT:      -7.9      2.297      3.277
REMARK  Name = 
REMARK  5 active torsions:
REMARK  status: ('A' for Active; 'I' for Inactive)
REMARK    1  A    between atoms: S_2  and  C_4
REMARK    2  A    between atoms: S_2  and  N_22
REMARK    3  A    between atoms: C_9  and  S_10
REMARK    4  A    between atoms: S_10  and  C_11
REMARK    5  A    between atoms: C_11  and  C_12
REMARK                            x       y       z     vdW  Elec       q    Type
REMARK                         _______ _______ _______ _____ _____    ______ ____
ROOT
ATOM      1  C   UNL     1       2.283   7.036  19.566  0.00  0.00    +0.000 A 
ATOM      2  C   UNL     1       2.393   7.718  18.345  0.00  0.00    +0.000 A 
ATOM      3  C   UNL     1       1.829   8.988  18.178  0.00  0.00    +0.000 A 
ATOM      4  C   UNL     1       1.174   9.532  19.284  0.00  0.00    +0.000 A 
ATOM      5  N   UNL     1       0.487  10.708  19.464  0.00  0.00    +0.000 N 
ATOM      6  C   UNL     1       0.091  10.765  20.768  0.00  0.00    +0.000 A 
ATOM      7  N   UNL     1       0.437   9.693  21.440  0.00  0.00    +0.000 NA
ATOM      8  C   UNL     1       1.099   8.901  20.525  0.00  0.00    +0.000 A 
ATOM      9  C   UNL     1       1.666   7.626  20.681  0.00  0.00    +0.000 A 
ATOM     10  H   UNL     1       0.302  11.415  18.770  0.00  0.00    +0.000 HD
ENDROOT
BRANCH   1  12
ATOM     11  O   UNL     1       4.431   5.562  19.543  0.00  0.00    +0.000 OA
ATOM     12  S   UNL     1       3.000   5.408  19.705  0.00  0.00    +0.000 S 
ATOM     13  O   UNL     1       2.446   4.764  20.876  0.00  0.00    +0.000 OA
BRANCH  12  14
ATOM     14  N   UNL     1       2.385   4.625  18.325  0.00  0.00    +0.000 NA
ATOM     15  C   UNL     1       1.321   3.594  18.545  0.00  0.00    +0.000 C 
ATOM     16  C   UNL     1       1.914   2.205  18.832  0.00  0.00    +0.000 C 
ATOM     17  O   UNL     1       2.850   1.807  17.821  0.00  0.00    +0.000 OA
ATOM     18  C   UNL     1       3.927   2.751  17.735  0.00  0.00    +0.000 C 
ATOM     19  C   UNL     1       3.396   4.128  17.340  0.00  0.00    +0.000 C 
ENDBRANCH  12  14
ENDBRANCH   1  12
BRANCH   6  20
ATOM     20  S   UNL     1      -0.786  12.140  21.328  0.00  0.00    +0.000 S 
BRANCH  20  21
ATOM     21  C   UNL     1      -1.365  12.847  19.757  0.00  0.00    +0.000 C 
BRANCH  21  22
ATOM     22  C   UNL     1      -2.755  12.358  19.404  0.00  0.00    +0.000 A 
ATOM     23  C   UNL     1      -2.956  11.526  18.291  0.00  0.00    +0.000 A 
ATOM     24  C   UNL     1      -4.239  11.079  17.959  0.00  0.00    +0.000 A 
ATOM     25  C   UNL     1      -5.330  11.465  18.733  0.00  0.00    +0.000 A 
ATOM     26 CL   UNL     1      -6.910  10.922  18.319  0.00  0.00    +0.000 Cl
ATOM     27  C   UNL     1      -5.151  12.293  19.837  0.00  0.00    +0.000 A 
ATOM     28  C   UNL     1      -3.867  12.740  20.169  0.00  0.00    +0.000 A 
ENDBRANCH  21  22
ENDBRANCH  20  21
ENDBRANCH   6  20
TORSDOF 5
ENDMDL
MODEL 5
REMARK VINA RESULT:      -7.9      2.860      3.503
REMARK  Name = 
REMARK  5 active torsions:
REMARK  status: ('A' for Active; 'I' for Inactive)
REMARK    1  A    between atoms: S_2  and  C_4
REMARK    2  A    between atoms: S_2  and  N_22
REMARK    3  A    between atoms: C_9  and  S_10
REMARK    4  A    between atoms: S_10  and  C_11
REMARK    5  A    between atoms: C_11  and  C_12
REMARK                            x       y       z     vdW  Elec       q    Type
REMARK                         _______ _______ _______ _____ _____    ______ ____
ROOT
ATOM      1  C   UNL     1       3.181   6.494  18.520  0.00  0.00    +0.000 A 
ATOM      2  C   UNL     1       3.033   7.604  17.676  0.00  0.00    +0.000 A 
ATOM      3  C   UNL     1       2.254   8.701  18.061  0.00  0.00    +0.000 A 
ATOM      4  C   UNL     1       1.655   8.632  19.321  0.00  0.00    +0.000 A 
ATOM      5  N   UNL     1       0.813   9.486  19.991  0.00  0.00    +0.000 N 
ATOM      6  C   UNL     1       0.571   8.952  21.223  0.00  0.00    +0.000 A 
ATOM      7  N   UNL     1       1.164   7.794  21.387  0.00  0.00    +0.000 NA
ATOM      8  C   UNL     1       1.833   7.567  20.203  0.00  0.00    +0.000 A 
ATOM      9  C   UNL     1       2.613   6.470  19.804  0.00  0.00    +0.000 A 
ATOM     10  H   UNL     1       0.435  10.356  19.651  0.00  0.00    +0.000 HD
ENDROOT
BRANCH   1  12
ATOM     11  O   UNL     1       4.726   4.490  19.136  0.00  0.00    +0.000 OA
ATOM     12  S   UNL     1       4.164   5.116  17.957  0.00  0.00    +0.000 S 
ATOM     13  O   UNL     1       3.381   4.354  17.009  0.00  0.00    +0.000 OA
BRANCH  12  14
ATOM     14  N   UNL     1       5.419   5.892  17.110  0.00  0.00    +0.000 NA
ATOM     15  C   UNL     1       5.644   5.472  15.690  0.00  0.00    +0.000 C 
ATOM     16  C   UNL     1       6.585   4.259  15.589  0.00  0.00    +0.000 C 
ATOM     17  O   UNL     1       7.817   4.483  16.287  0.00  0.00    +0.000 OA
ATOM     18  C   UNL     1       7.567   4.748  17.674  0.00  0.00    +0.000 C 
ATOM     19  C   UNL     1       6.726   6.014  17.830  0.00  0.00    +0.000 C 
ENDBRANCH  12  14
ENDBRANCH   1  12
BRANCH   6  20
ATOM     20  S   UNL     1      -0.445   9.799  22.329  0.00  0.00    +0.000 S 
BRANCH  20  21
ATOM     21  C   UNL     1      -0.236  11.511  21.752  0.00  0.00    +0.000 C 
BRANCH  21  22
ATOM     22  C   UNL     1      -1.112  12.472  22.531  0.00  0.00    +0.000 A 
ATOM     23  C   UNL     1      -0.693  13.793  22.758  0.00  0.00    +0.000 A 
ATOM     24  C   UNL     1      -1.495  14.680  23.482  0.00  0.00    +0.000 A 
ATOM     25  C   UNL     1      -2.720  14.252  23.987  0.00  0.00    +0.000 A 
ATOM     26 CL   UNL     1      -3.705  15.342  24.885  0.00  0.00    +0.000 Cl
ATOM     27  C   UNL     1      -3.151  12.946  23.775  0.00  0.00    +0.000 A 
ATOM     28  C   UNL     1      -2.347  12.059  23.051  0.00  0.00    +0.000 A 
ENDBRANCH  21  22
ENDBRANCH  20  21
ENDBRANCH   6  20
TORSDOF 5
ENDMDL
MODEL 6
REMARK VINA RESULT:      -7.8      2.530      2.883
REMARK  Name = 
REMARK  5 active torsions:
REMARK  status: ('A' for Active; 'I' for Inactive)
REMARK    1  A    between atoms: S_2  and  C_4
REMARK    2  A    between atoms: S_2  and  N_22
REMARK    3  A    between atoms: C_9  and  S_10
REMARK    4  A    between atoms: S_10  and  C_11
REMARK    5  A    between atoms: C_11  and  C_12
REMARK                            x       y       z     vdW  Elec       q    Type
REMARK                         _______ _______ _______ _____ _____    ______ ____
ROOT
ATOM      1  C   UNL     1       3.164   6.108  18.725  0.00  0.00    +0.000 A 
ATOM      2  C   UNL     1       2.539   5.875  19.958  0.00  0.00    +0.000 A 
ATOM      3  C   UNL     1       1.745   6.859  20.559  0.00  0.00    +0.000 A 
ATOM      4  C   UNL     1       1.604   8.061  19.861  0.00  0.00    +0.000 A 
ATOM      5  N   UNL     1       0.949   9.231  20.160  0.00  0.00    +0.000 N 
ATOM      6  C   UNL     1       1.088  10.072  19.095  0.00  0.00    +0.000 A 
ATOM      7  N   UNL     1       1.819   9.547  18.141  0.00  0.00    +0.000 NA
ATOM      8  C   UNL     1       2.167   8.297  18.608  0.00  0.00    +0.000 A 
ATOM      9  C   UNL     1       2.964   7.304  18.016  0.00  0.00    +0.000 A 
ATOM     10  H   UNL     1       0.448   9.446  21.008  0.00  0.00    +0.000 HD
ENDROOT
BRANCH   1  12
ATOM     11  O   UNL     1       4.802   4.125  19.137  0.00  0.00    +0.000 OA
ATOM     12  S   UNL     1       4.186   4.823  18.028  0.00  0.00    +0.000 S 
ATOM     13  O   UNL     1       3.410   4.110  17.036  0.00  0.00    +0.000 OA
BRANCH  12  14
ATOM     14  N   UNL     1       5.388   5.717  17.221  0.00  0.00    +0.000 NA
ATOM     15  C   UNL     1       5.615   5.403  15.774  0.00  0.00    +0.000 C 
ATOM     16  C   UNL     1       6.615   4.251  15.583  0.00  0.00    +0.000 C 
ATOM     17  O   UNL     1       7.844   4.491  16.281  0.00  0.00    +0.000 OA
ATOM     18  C   UNL     1       7.600   4.651  17.686  0.00  0.00    +0.000 C 
ATOM     19  C   UNL     1       6.697   5.859  17.934  0.00  0.00    +0.000 C 
ENDBRANCH  12  14
ENDBRANCH   1  12
BRANCH   6  20
ATOM     20  S   UNL     1       0.357  11.632  19.146  0.00  0.00    +0.000 S 
BRANCH  20  21
ATOM     21  C   UNL     1       0.955  12.245  20.750  0.00  0.00    +0.000 C 
BRANCH  21  22
ATOM     22  C   UNL     1      -0.192  12.545  21.695  0.00  0.00    +0.000 A 
ATOM     23  C   UNL     1      -0.441  13.861  22.116  0.00  0.00    +0.000 A 
ATOM     24  C   UNL     1      -1.494  14.140  22.993  0.00  0.00    +0.000 A 
ATOM     25  C   UNL     1      -2.301  13.106  23.460  0.00  0.00    +0.000 A 
ATOM     26 CL   UNL     1      -3.592  13.449  24.545  0.00  0.00    +0.000 Cl
ATOM     27  C   UNL     1      -2.066  11.795  23.056  0.00  0.00    +0.000 A 
ATOM     28  C   UNL     1      -1.013  11.516  22.178  0.00  0.00    +0.000 A 
ENDBRANCH  21  22
ENDBRANCH  20  21
ENDBRANCH   6  20
TORSDOF 5
ENDMDL
MODEL 7
REMARK VINA RESULT:      -7.8      2.466      3.402
REMARK  Name = 
REMARK  5 active torsions:
REMARK  status: ('A' for Active; 'I' for Inactive)
REMARK    1  A    between atoms: S_2  and  C_4
REMARK    2  A    between atoms: S_2  and  N_22
REMARK    3  A    between atoms: C_9  and  S_10
REMARK    4  A    between atoms: S_10  and  C_11
REMARK    5  A    between atoms: C_11  and  C_12
REMARK                            x       y       z     vdW  Elec       q    Type
REMARK                         _______ _______ _______ _____ _____    ______ ____
ROOT
ATOM      1  C   UNL     1       2.496   7.189  18.891  0.00  0.00    +0.000 A 
ATOM      2  C   UNL     1       2.492   8.078  17.806  0.00  0.00    +0.000 A 
ATOM      3  C   UNL     1       1.822   9.304  17.885  0.00  0.00    +0.000 A 
ATOM      4  C   UNL     1       1.182   9.592  19.092  0.00  0.00    +0.000 A 
ATOM      5  N   UNL     1       0.415  10.656  19.500  0.00  0.00    +0.000 N 
ATOM      6  C   UNL     1       0.081  10.453  20.807  0.00  0.00    +0.000 A 
ATOM      7  N   UNL     1       0.543   9.315  21.267  0.00  0.00    +0.000 NA
ATOM      8  C   UNL     1       1.219   8.753  20.205  0.00  0.00    +0.000 A 
ATOM      9  C   UNL     1       1.890   7.523  20.114  0.00  0.00    +0.000 A 
ATOM     10  H   UNL     1       0.141  11.453  18.948  0.00  0.00    +0.000 HD
ENDROOT
BRANCH   1  12
ATOM     11  O   UNL     1       4.183   5.735  17.541  0.00  0.00    +0.000 OA
ATOM     12  S   UNL     1       3.344   5.629  18.716  0.00  0.00    +0.000 S 
ATOM     13  O   UNL     1       3.902   5.266  20.001  0.00  0.00    +0.000 OA
BRANCH  12  14
ATOM     14  N   UNL     1       2.065   4.561  18.370  0.00  0.00    +0.000 NA
ATOM     15  C   UNL     1       1.350   3.954  19.538  0.00  0.00    +0.000 C 
ATOM     16  C   UNL     1       2.035   2.669  20.030  0.00  0.00    +0.000 C 
ATOM     17  O   UNL     1       2.226   1.727  18.966  0.00  0.00    +0.000 OA
ATOM     18  C   UNL     1       3.032   2.301  17.926  0.00  0.00    +0.000 C 
ATOM     19  C   UNL     1       2.335   3.522  17.327  0.00  0.00    +0.000 C 
ENDBRANCH  12  14
ENDBRANCH   1  12
BRANCH   6  20
ATOM     20  S   UNL     1      -0.872  11.630  21.630  0.00  0.00    +0.000 S 
BRANCH  20  21
ATOM     21  C   UNL     1      -1.344  12.721  20.254  0.00  0.00    +0.000 C 
BRANCH  21  22
ATOM     22  C   UNL     1      -2.720  12.379  19.719  0.00  0.00    +0.000 A 
ATOM     23  C   UNL     1      -3.873  12.760  20.423  0.00  0.00    +0.000 A 
ATOM     24  C   UNL     1      -5.144  12.440  19.935  0.00  0.00    +0.000 A 
ATOM     25  C   UNL     1      -5.271  11.733  18.742  0.00  0.00    +0.000 A 
ATOM     26 CL   UNL     1      -6.835  11.333  18.145  0.00  0.00    +0.000 Cl
ATOM     27  C   UNL     1      -4.139  11.344  18.032  0.00  0.00    +0.000 A 
ATOM     28  C   UNL     1      -2.868  11.665  18.521  0.00  0.00    +0.000 A 
ENDBRANCH  21  22
ENDBRANCH  20  21
ENDBRANCH   6  20
TORSDOF 5
ENDMDL
MODEL 8
REMARK VINA RESULT:      -7.8      1.131      1.334
REMARK  Name = 
REMARK  5 active torsions:
REMARK  status: ('A' for Active; 'I' for Inactive)
REMARK    1  A    between atoms: S_2  and  C_4
REMARK    2  A    between atoms: S_2  and  N_22
REMARK    3  A    between atoms: C_9  and  S_10
REMARK    4  A    between atoms: S_10  and  C_11
REMARK    5  A    between atoms: C_11  and  C_12
REMARK                            x       y       z     vdW  Elec       q    Type
REMARK                         _______ _______ _______ _____ _____    ______ ____
ROOT
ATOM      1  C   UNL     1       2.962   6.583  18.815  0.00  0.00    +0.000 A 
ATOM      2  C   UNL     1       2.343   6.476  20.069  0.00  0.00    +0.000 A 
ATOM      3  C   UNL     1       1.571   7.524  20.582  0.00  0.00    +0.000 A 
ATOM      4  C   UNL     1       1.444   8.659  19.777  0.00  0.00    +0.000 A 
ATOM      5  N   UNL     1       0.811   9.862  19.972  0.00  0.00    +0.000 N 
ATOM      6  C   UNL     1       0.955  10.600  18.834  0.00  0.00    +0.000 A 
ATOM      7  N   UNL     1       1.669   9.977  17.927  0.00  0.00    +0.000 NA
ATOM      8  C   UNL     1       2.000   8.769  18.504  0.00  0.00    +0.000 A 
ATOM      9  C   UNL     1       2.776   7.712  18.001  0.00  0.00    +0.000 A 
ATOM     10  H   UNL     1       0.321  10.163  20.800  0.00  0.00    +0.000 HD
ENDROOT
BRANCH   1  12
ATOM     11  O   UNL     1       4.534   4.590  19.401  0.00  0.00    +0.000 OA
ATOM     12  S   UNL     1       3.956   5.222  18.232  0.00  0.00    +0.000 S 
ATOM     13  O   UNL     1       3.175   4.460  17.282  0.00  0.00    +0.000 OA
BRANCH  12  14
ATOM     14  N   UNL     1       5.196   6.019  17.384  0.00  0.00    +0.000 NA
ATOM     15  C   UNL     1       5.353   5.684  15.932  0.00  0.00    +0.000 C 
ATOM     16  C   UNL     1       6.257   4.459  15.717  0.00  0.00    +0.000 C 
ATOM     17  O   UNL     1       7.522   4.609  16.375  0.00  0.00    +0.000 OA
ATOM     18  C   UNL     1       7.335   4.792  17.786  0.00  0.00    +0.000 C 
ATOM     19  C   UNL     1       6.534   6.065  18.054  0.00  0.00    +0.000 C 
ENDBRANCH  12  14
ENDBRANCH   1  12
BRANCH   6  20
ATOM     20  S   UNL     1       0.251  12.171  18.746  0.00  0.00    +0.000 S 
BRANCH  20  21
ATOM     21  C   UNL     1      -1.016  12.057  20.045  0.00  0.00    +0.000 C 
BRANCH  21  22
ATOM     22  C   UNL     1      -2.414  12.033  19.460  0.00  0.00    +0.000 A 
ATOM     23  C   UNL     1      -3.492  12.591  20.166  0.00  0.00    +0.000 A 
ATOM     24  C   UNL     1      -4.784  12.564  19.632  0.00  0.00    +0.000 A 
ATOM     25  C   UNL     1      -5.009  11.975  18.391  0.00  0.00    +0.000 A 
ATOM     26 CL   UNL     1      -6.600  11.935  17.737  0.00  0.00    +0.000 Cl
ATOM     27  C   UNL     1      -3.954  11.413  17.678  0.00  0.00    +0.000 A 
ATOM     28  C   UNL     1      -2.662  11.441  18.213  0.00  0.00    +0.000 A 
ENDBRANCH  21  22
ENDBRANCH  20  21
ENDBRANCH   6  20
TORSDOF 5
ENDMDL
MODEL 9
REMARK VINA RESULT:      -7.8      3.021      4.190
REMARK  Name = 
REMARK  5 active torsions:
REMARK  status: ('A' for Active; 'I' for Inactive)
REMARK    1  A    between atoms: S_2  and  C_4
REMARK    2  A    between atoms: S_2  and  N_22
REMARK    3  A    between atoms: C_9  and  S_10
REMARK    4  A    between atoms: S_10  and  C_11
REMARK    5  A    between atoms: C_11  and  C_12
REMARK                            x       y       z     vdW  Elec       q    Type
REMARK                         _______ _______ _______ _____ _____    ______ ____
ROOT
ATOM      1  C   UNL     1       2.447   7.133  19.258  0.00  0.00    +0.000 A 
ATOM      2  C   UNL     1       2.634   7.788  18.032  0.00  0.00    +0.000 A 
ATOM      3  C   UNL     1       2.045   9.034  17.786  0.00  0.00    +0.000 A 
ATOM      4  C   UNL     1       1.285   9.583  18.822  0.00  0.00    +0.000 A 
ATOM      5  N   UNL     1       0.549  10.738  18.914  0.00  0.00    +0.000 N 
ATOM      6  C   UNL     1       0.046  10.814  20.180  0.00  0.00    +0.000 A 
ATOM      7  N   UNL     1       0.371   9.770  20.906  0.00  0.00    +0.000 NA
ATOM      8  C   UNL     1       1.130   8.980  20.069  0.00  0.00    +0.000 A 
ATOM      9  C   UNL     1       1.723   7.728  20.304  0.00  0.00    +0.000 A 
ATOM     10  H   UNL     1       0.398  11.422  18.189  0.00  0.00    +0.000 HD
ENDROOT
BRANCH   1  12
ATOM     11  O   UNL     1       4.633   5.748  19.550  0.00  0.00    +0.000 OA
ATOM     12  S   UNL     1       3.201   5.535  19.497  0.00  0.00    +0.000 S 
ATOM     13  O   UNL     1       2.508   4.858  20.572  0.00  0.00    +0.000 OA
BRANCH  12  14
ATOM     14  N   UNL     1       2.829   4.739  18.040  0.00  0.00    +0.000 NA
ATOM     15  C   UNL     1       1.465   4.133  17.924  0.00  0.00    +0.000 C 
ATOM     16  C   UNL     1       1.418   2.705  18.492  0.00  0.00    +0.000 C 
ATOM     17  O   UNL     1       2.429   1.869  17.914  0.00  0.00    +0.000 OA
ATOM     18  C   UNL     1       3.733   2.413  18.165  0.00  0.00    +0.000 C 
ATOM     19  C   UNL     1       3.865   3.792  17.519  0.00  0.00    +0.000 C 
ENDBRANCH  12  14
ENDBRANCH   1  12
BRANCH   6  20
ATOM     20  S   UNL     1      -0.916  12.171  20.631  0.00  0.00    +0.000 S 
BRANCH  20  21
ATOM     21  C   UNL     1      -1.332  11.747  22.349  0.00  0.00    +0.000 C 
BRANCH  21  22
ATOM     22  C   UNL     1      -2.718  12.233  22.724  0.00  0.00    +0.000 A 
ATOM     23  C   UNL     1      -3.562  12.797  21.754  0.00  0.00    +0.000 A 
ATOM     24  C   UNL     1      -4.838  13.253  22.097  0.00  0.00    +0.000 A 
ATOM     25  C   UNL     1      -5.279  13.152  23.414  0.00  0.00    +0.000 A 
ATOM     26 CL   UNL     1      -6.847  13.720  23.839  0.00  0.00    +0.000 Cl
ATOM     27  C   UNL     1      -4.456  12.599  24.390  0.00  0.00    +0.000 A 
ATOM     28  C   UNL     1      -3.179  12.144  24.046  0.00  0.00    +0.000 A 
ENDBRANCH  21  22
ENDBRANCH  20  21
ENDBRANCH   6  20
TORSDOF 5
ENDMDL
