MODEL 1
REMARK VINA RESULT:      -8.0      0.000      0.000
REMARK  Name = 
REMARK  6 active torsions:
REMARK  status: ('A' for Active; 'I' for Inactive)
REMARK    1  A    between atoms: C_2  and  C_3
REMARK    2  A    between atoms: C_2  and  C_18
REMARK    3  A    between atoms: C_3  and  N_4
REMARK    4  A    between atoms: N_6  and  C_7
REMARK    5  A    between atoms: C_7  and  C_8
REMARK    6  A    between atoms: C_8  and  C_9
REMARK                            x       y       z     vdW  Elec       q    Type
REMARK                         _______ _______ _______ _____ _____    ______ ____
ROOT
ATOM      1  N   UNL     1       5.856   4.369  16.037  0.00  0.00    +0.000 N 
ATOM      2  C   UNL     1       6.881   5.173  16.490  0.00  0.00    +0.000 A 
ATOM      3  N   UNL     1       7.014   5.527  17.781  0.00  0.00    +0.000 N 
ATOM      4  N   UNL     1       7.660   5.536  15.495  0.00  0.00    +0.000 NA
ATOM      5  C   UNL     1       7.170   4.908  14.378  0.00  0.00    +0.000 A 
ATOM      6  C   UNL     1       7.644   4.927  13.055  0.00  0.00    +0.000 A 
ATOM      7  C   UNL     1       6.940   4.211  12.079  0.00  0.00    +0.000 A 
ATOM      8  C   UNL     1       5.791   3.497  12.405  0.00  0.00    +0.000 A 
ATOM      9  C   UNL     1       5.313   3.454  13.716  0.00  0.00    +0.000 A 
ATOM     10  C   UNL     1       6.034   4.169  14.682  0.00  0.00    +0.000 A 
ATOM     11  H   UNL     1       6.579   5.036  18.552  0.00  0.00    +0.000 HD
ENDROOT
BRANCH   1  12
ATOM     12  C   UNL     1       4.744   3.820  16.797  0.00  0.00    +0.000 C 
BRANCH  12  14
ATOM     13  O   UNL     1       3.941   6.087  17.080  0.00  0.00    +0.000 OA
ATOM     14  C   UNL     1       3.874   4.904  17.407  0.00  0.00    +0.000 C 
BRANCH  14  15
ATOM     15  C   UNL     1       2.893   4.517  18.461  0.00  0.00    +0.000 A 
ATOM     16  C   UNL     1       1.942   3.535  18.158  0.00  0.00    +0.000 A 
ATOM     17  C   UNL     1       0.976   3.173  19.102  0.00  0.00    +0.000 A 
ATOM     18  C   UNL     1       0.956   3.801  20.346  0.00  0.00    +0.000 A 
ATOM     19  C   UNL     1       1.903   4.777  20.654  0.00  0.00    +0.000 A 
ATOM     20  C   UNL     1       2.876   5.136  19.715  0.00  0.00    +0.000 A 
ENDBRANCH  14  15
ENDBRANCH  12  14
ENDBRANCH   1  12
BRANCH   3  21
ATOM     21  C   UNL     1       7.779   6.712  18.150  0.00  0.00    +0.000 C 
BRANCH  21  22
ATOM     22  C   UNL     1       7.122   7.993  17.628  0.00  0.00    +0.000 C 
BRANCH  22  23
ATOM     23  C   UNL     1       8.043   9.208  17.644  0.00  0.00    +0.000 C 
ATOM     24 CL   UNL     1       9.022   9.286  19.131  0.00  0.00    +0.000 Cl
ENDBRANCH  22  23
ENDBRANCH  21  22
ENDBRANCH   3  21
TORSDOF 6
ENDMDL
MODEL 2
REMARK VINA RESULT:      -8.0      0.371      1.062
REMARK  Name = 
REMARK  6 active torsions:
REMARK  status: ('A' for Active; 'I' for Inactive)
REMARK    1  A    between atoms: C_2  and  C_3
REMARK    2  A    between atoms: C_2  and  C_18
REMARK    3  A    between atoms: C_3  and  N_4
REMARK    4  A    between atoms: N_6  and  C_7
REMARK    5  A    between atoms: C_7  and  C_8
REMARK    6  A    between atoms: C_8  and  C_9
REMARK                            x       y       z     vdW  Elec       q    Type
REMARK                         _______ _______ _______ _____ _____    ______ ____
ROOT
ATOM      1  N   UNL     1       5.853   4.166  15.986  0.00  0.00    +0.000 N 
ATOM      2  C   UNL     1       6.877   4.939  16.493  0.00  0.00    +0.000 A 
ATOM      3  N   UNL     1       7.006   5.209  17.805  0.00  0.00    +0.000 N 
ATOM      4  N   UNL     1       7.659   5.364  15.526  0.00  0.00    +0.000 NA
ATOM      5  C   UNL     1       7.172   4.810  14.369  0.00  0.00    +0.000 A 
ATOM      6  C   UNL     1       7.650   4.913  13.052  0.00  0.00    +0.000 A 
ATOM      7  C   UNL     1       6.949   4.261  12.030  0.00  0.00    +0.000 A 
ATOM      8  C   UNL     1       5.798   3.528  12.306  0.00  0.00    +0.000 A 
ATOM      9  C   UNL     1       5.317   3.402  13.611  0.00  0.00    +0.000 A 
ATOM     10  C   UNL     1       6.035   4.053  14.622  0.00  0.00    +0.000 A 
ATOM     11  H   UNL     1       6.569   4.670  18.541  0.00  0.00    +0.000 HD
ENDROOT
BRANCH   1  12
ATOM     12  C   UNL     1       4.739   3.570  16.706  0.00  0.00    +0.000 C 
BRANCH  12  14
ATOM     13  O   UNL     1       3.956   5.823  17.129  0.00  0.00    +0.000 OA
ATOM     14  C   UNL     1       3.828   4.616  17.324  0.00  0.00    +0.000 C 
BRANCH  14  15
ATOM     15  C   UNL     1       2.727   4.159  18.219  0.00  0.00    +0.000 A 
ATOM     16  C   UNL     1       2.461   4.896  19.380  0.00  0.00    +0.000 A 
ATOM     17  C   UNL     1       1.466   4.479  20.268  0.00  0.00    +0.000 A 
ATOM     18  C   UNL     1       0.742   3.318  20.001  0.00  0.00    +0.000 A 
ATOM     19  C   UNL     1       1.000   2.583  18.845  0.00  0.00    +0.000 A 
ATOM     20  C   UNL     1       1.990   3.001  17.949  0.00  0.00    +0.000 A 
ENDBRANCH  14  15
ENDBRANCH  12  14
ENDBRANCH   1  12
BRANCH   3  21
ATOM     21  C   UNL     1       7.771   6.367  18.251  0.00  0.00    +0.000 C 
BRANCH  21  22
ATOM     22  C   UNL     1       7.083   7.680  17.866  0.00  0.00    +0.000 C 
BRANCH  22  23
ATOM     23  C   UNL     1       8.051   8.813  17.545  0.00  0.00    +0.000 C 
ATOM     24 CL   UNL     1       8.858   9.437  19.007  0.00  0.00    +0.000 Cl
ENDBRANCH  22  23
ENDBRANCH  21  22
ENDBRANCH   3  21
TORSDOF 6
ENDMDL
MODEL 3
REMARK VINA RESULT:      -7.8      2.915      5.695
REMARK  Name = 
REMARK  6 active torsions:
REMARK  status: ('A' for Active; 'I' for Inactive)
REMARK    1  A    between atoms: C_2  and  C_3
REMARK    2  A    between atoms: C_2  and  C_18
REMARK    3  A    between atoms: C_3  and  N_4
REMARK    4  A    between atoms: N_6  and  C_7
REMARK    5  A    between atoms: C_7  and  C_8
REMARK    6  A    between atoms: C_8  and  C_9
REMARK                            x       y       z     vdW  Elec       q    Type
REMARK                         _______ _______ _______ _____ _____    ______ ____
ROOT
ATOM      1  N   UNL     1       2.902   4.898  18.379  0.00  0.00    +0.000 N 
ATOM      2  C   UNL     1       4.099   4.381  17.928  0.00  0.00    +0.000 A 
ATOM      3  N   UNL     1       4.747   4.871  16.856  0.00  0.00    +0.000 N 
ATOM      4  N   UNL     1       4.474   3.365  18.673  0.00  0.00    +0.000 NA
ATOM      5  C   UNL     1       3.535   3.252  19.667  0.00  0.00    +0.000 A 
ATOM      6  C   UNL     1       3.471   2.354  20.745  0.00  0.00    +0.000 A 
ATOM      7  C   UNL     1       2.380   2.431  21.620  0.00  0.00    +0.000 A 
ATOM      8  C   UNL     1       1.374   3.373  21.427  0.00  0.00    +0.000 A 
ATOM      9  C   UNL     1       1.428   4.284  20.370  0.00  0.00    +0.000 A 
ATOM     10  C   UNL     1       2.530   4.199  19.510  0.00  0.00    +0.000 A 
ATOM     11  H   UNL     1       4.590   5.794  16.470  0.00  0.00    +0.000 HD
ENDROOT
BRANCH   1  12
ATOM     12  C   UNL     1       2.112   5.971  17.795  0.00  0.00    +0.000 C 
BRANCH  12  14
ATOM     13  O   UNL     1       3.758   7.744  17.690  0.00  0.00    +0.000 OA
ATOM     14  C   UNL     1       2.678   7.342  18.117  0.00  0.00    +0.000 C 
BRANCH  14  15
ATOM     15  C   UNL     1       1.888   8.246  19.001  0.00  0.00    +0.000 A 
ATOM     16  C   UNL     1       1.745   7.901  20.351  0.00  0.00    +0.000 A 
ATOM     17  C   UNL     1       0.977   8.697  21.206  0.00  0.00    +0.000 A 
ATOM     18  C   UNL     1       0.343   9.834  20.708  0.00  0.00    +0.000 A 
ATOM     19  C   UNL     1       0.485  10.184  19.366  0.00  0.00    +0.000 A 
ATOM     20  C   UNL     1       1.259   9.395  18.509  0.00  0.00    +0.000 A 
ENDBRANCH  14  15
ENDBRANCH  12  14
ENDBRANCH   1  12
BRANCH   3  21
ATOM     21  C   UNL     1       5.712   4.050  16.134  0.00  0.00    +0.000 C 
BRANCH  21  22
ATOM     22  C   UNL     1       7.130   4.616  16.244  0.00  0.00    +0.000 C 
BRANCH  22  23
ATOM     23  C   UNL     1       7.682   4.627  17.665  0.00  0.00    +0.000 C 
ATOM     24 CL   UNL     1       7.702   6.268  18.361  0.00  0.00    +0.000 Cl
ENDBRANCH  22  23
ENDBRANCH  21  22
ENDBRANCH   3  21
TORSDOF 6
ENDMDL
MODEL 4
REMARK VINA RESULT:      -7.8      3.278      5.881
REMARK  Name = 
REMARK  6 active torsions:
REMARK  status: ('A' for Active; 'I' for Inactive)
REMARK    1  A    between atoms: C_2  and  C_3
REMARK    2  A    between atoms: C_2  and  C_18
REMARK    3  A    between atoms: C_3  and  N_4
REMARK    4  A    between atoms: N_6  and  C_7
REMARK    5  A    between atoms: C_7  and  C_8
REMARK    6  A    between atoms: C_8  and  C_9
REMARK                            x       y       z     vdW  Elec       q    Type
REMARK                         _______ _______ _______ _____ _____    ______ ____
ROOT
ATOM      1  N   UNL     1       3.316   4.897  18.530  0.00  0.00    +0.000 N 
ATOM      2  C   UNL     1       4.647   4.544  18.462  0.00  0.00    +0.000 A 
ATOM      3  N   UNL     1       5.511   5.118  17.605  0.00  0.00    +0.000 N 
ATOM      4  N   UNL     1       4.917   3.585  19.320  0.00  0.00    +0.000 NA
ATOM      5  C   UNL     1       3.753   3.347  20.006  0.00  0.00    +0.000 A 
ATOM      6  C   UNL     1       3.493   2.447  21.052  0.00  0.00    +0.000 A 
ATOM      7  C   UNL     1       2.195   2.377  21.573  0.00  0.00    +0.000 A 
ATOM      8  C   UNL     1       1.177   3.178  21.064  0.00  0.00    +0.000 A 
ATOM      9  C   UNL     1       1.418   4.090  20.035  0.00  0.00    +0.000 A 
ATOM     10  C   UNL     1       2.724   4.152  19.532  0.00  0.00    +0.000 A 
ATOM     11  H   UNL     1       5.356   6.012  17.156  0.00  0.00    +0.000 HD
ENDROOT
BRANCH   1  12
ATOM     12  C   UNL     1       2.599   5.857  17.705  0.00  0.00    +0.000 C 
BRANCH  12  14
ATOM     13  O   UNL     1       4.067   7.780  17.603  0.00  0.00    +0.000 OA
ATOM     14  C   UNL     1       3.011   7.288  17.997  0.00  0.00    +0.000 C 
BRANCH  14  15
ATOM     15  C   UNL     1       2.095   8.140  18.807  0.00  0.00    +0.000 A 
ATOM     16  C   UNL     1       1.881   7.799  20.149  0.00  0.00    +0.000 A 
ATOM     17  C   UNL     1       0.996   8.544  20.933  0.00  0.00    +0.000 A 
ATOM     18  C   UNL     1       0.317   9.626  20.373  0.00  0.00    +0.000 A 
ATOM     19  C   UNL     1       0.530   9.971  19.039  0.00  0.00    +0.000 A 
ATOM     20  C   UNL     1       1.421   9.233  18.253  0.00  0.00    +0.000 A 
ENDBRANCH  14  15
ENDBRANCH  12  14
ENDBRANCH   1  12
BRANCH   3  21
ATOM     21  C   UNL     1       6.739   4.433  17.222  0.00  0.00    +0.000 C 
BRANCH  21  22
ATOM     22  C   UNL     1       6.970   4.489  15.709  0.00  0.00    +0.000 C 
BRANCH  22  23
ATOM     23  C   UNL     1       5.698   4.322  14.885  0.00  0.00    +0.000 C 
ATOM     24 CL   UNL     1       6.038   3.704  13.248  0.00  0.00    +0.000 Cl
ENDBRANCH  22  23
ENDBRANCH  21  22
ENDBRANCH   3  21
TORSDOF 6
ENDMDL
MODEL 5
REMARK VINA RESULT:      -7.8      3.911      7.186
REMARK  Name = 
REMARK  6 active torsions:
REMARK  status: ('A' for Active; 'I' for Inactive)
REMARK    1  A    between atoms: C_2  and  C_3
REMARK    2  A    between atoms: C_2  and  C_18
REMARK    3  A    between atoms: C_3  and  N_4
REMARK    4  A    between atoms: N_6  and  C_7
REMARK    5  A    between atoms: C_7  and  C_8
REMARK    6  A    between atoms: C_8  and  C_9
REMARK                            x       y       z     vdW  Elec       q    Type
REMARK                         _______ _______ _______ _____ _____    ______ ____
ROOT
ATOM      1  N   UNL     1       2.710   6.288  18.724  0.00  0.00    +0.000 N 
ATOM      2  C   UNL     1       2.472   5.788  19.988  0.00  0.00    +0.000 A 
ATOM      3  N   UNL     1       2.832   4.546  20.360  0.00  0.00    +0.000 N 
ATOM      4  N   UNL     1       1.846   6.676  20.727  0.00  0.00    +0.000 NA
ATOM      5  C   UNL     1       1.726   7.802  19.953  0.00  0.00    +0.000 A 
ATOM      6  C   UNL     1       1.166   9.052  20.264  0.00  0.00    +0.000 A 
ATOM      7  C   UNL     1       1.143  10.044  19.275  0.00  0.00    +0.000 A 
ATOM      8  C   UNL     1       1.659   9.800  18.006  0.00  0.00    +0.000 A 
ATOM      9  C   UNL     1       2.233   8.569  17.682  0.00  0.00    +0.000 A 
ATOM     10  C   UNL     1       2.255   7.592  18.685  0.00  0.00    +0.000 A 
ATOM     11  H   UNL     1       3.530   3.990  19.883  0.00  0.00    +0.000 HD
ENDROOT
BRANCH   1  12
ATOM     12  C   UNL     1       3.306   5.605  17.587  0.00  0.00    +0.000 C 
BRANCH  12  14
ATOM     13  O   UNL     1       4.704   3.701  18.121  0.00  0.00    +0.000 OA
ATOM     14  C   UNL     1       4.609   4.914  17.950  0.00  0.00    +0.000 C 
BRANCH  14  15
ATOM     15  C   UNL     1       5.833   5.749  18.113  0.00  0.00    +0.000 A 
ATOM     16  C   UNL     1       6.014   6.842  17.257  0.00  0.00    +0.000 A 
ATOM     17  C   UNL     1       7.168   7.625  17.347  0.00  0.00    +0.000 A 
ATOM     18  C   UNL     1       8.147   7.309  18.288  0.00  0.00    +0.000 A 
ATOM     19  C   UNL     1       7.970   6.224  19.145  0.00  0.00    +0.000 A 
ATOM     20  C   UNL     1       6.813   5.442  19.064  0.00  0.00    +0.000 A 
ENDBRANCH  14  15
ENDBRANCH  12  14
ENDBRANCH   1  12
BRANCH   3  21
ATOM     21  C   UNL     1       2.174   3.890  21.483  0.00  0.00    +0.000 C 
BRANCH  21  22
ATOM     22  C   UNL     1       1.277   2.739  21.019  0.00  0.00    +0.000 C 
BRANCH  22  23
ATOM     23  C   UNL     1       0.773   2.889  19.589  0.00  0.00    +0.000 C 
ATOM     24 CL   UNL     1       1.767   1.969  18.430  0.00  0.00    +0.000 Cl
ENDBRANCH  22  23
ENDBRANCH  21  22
ENDBRANCH   3  21
TORSDOF 6
ENDMDL
MODEL 6
REMARK VINA RESULT:      -7.8      3.258      5.864
REMARK  Name = 
REMARK  6 active torsions:
REMARK  status: ('A' for Active; 'I' for Inactive)
REMARK    1  A    between atoms: C_2  and  C_3
REMARK    2  A    between atoms: C_2  and  C_18
REMARK    3  A    between atoms: C_3  and  N_4
REMARK    4  A    between atoms: N_6  and  C_7
REMARK    5  A    between atoms: C_7  and  C_8
REMARK    6  A    between atoms: C_8  and  C_9
REMARK                            x       y       z     vdW  Elec       q    Type
REMARK                         _______ _______ _______ _____ _____    ______ ____
ROOT
ATOM      1  N   UNL     1       3.295   4.933  18.554  0.00  0.00    +0.000 N 
ATOM      2  C   UNL     1       4.637   4.616  18.555  0.00  0.00    +0.000 A 
ATOM      3  N   UNL     1       5.529   5.218  17.746  0.00  0.00    +0.000 N 
ATOM      4  N   UNL     1       4.887   3.659  19.420  0.00  0.00    +0.000 NA
ATOM      5  C   UNL     1       3.695   3.386  20.043  0.00  0.00    +0.000 A 
ATOM      6  C   UNL     1       3.405   2.472  21.070  0.00  0.00    +0.000 A 
ATOM      7  C   UNL     1       2.084   2.365  21.521  0.00  0.00    +0.000 A 
ATOM      8  C   UNL     1       1.073   3.142  20.964  0.00  0.00    +0.000 A 
ATOM      9  C   UNL     1       1.344   4.067  19.953  0.00  0.00    +0.000 A 
ATOM     10  C   UNL     1       2.672   4.167  19.520  0.00  0.00    +0.000 A 
ATOM     11  H   UNL     1       5.374   6.110  17.294  0.00  0.00    +0.000 HD
ENDROOT
BRANCH   1  12
ATOM     12  C   UNL     1       2.597   5.879  17.697  0.00  0.00    +0.000 C 
BRANCH  12  14
ATOM     13  O   UNL     1       3.985   7.861  17.592  0.00  0.00    +0.000 OA
ATOM     14  C   UNL     1       2.964   7.318  18.010  0.00  0.00    +0.000 C 
BRANCH  14  15
ATOM     15  C   UNL     1       2.045   8.114  18.873  0.00  0.00    +0.000 A 
ATOM     16  C   UNL     1       1.406   9.229  18.315  0.00  0.00    +0.000 A 
ATOM     17  C   UNL     1       0.570  10.028  19.100  0.00  0.00    +0.000 A 
ATOM     18  C   UNL     1       0.379   9.717  20.446  0.00  0.00    +0.000 A 
ATOM     19  C   UNL     1       1.010   8.606  21.004  0.00  0.00    +0.000 A 
ATOM     20  C   UNL     1       1.842   7.800  20.221  0.00  0.00    +0.000 A 
ENDBRANCH  14  15
ENDBRANCH  12  14
ENDBRANCH   1  12
BRANCH   3  21
ATOM     21  C   UNL     1       6.794   4.568  17.425  0.00  0.00    +0.000 C 
BRANCH  21  22
ATOM     22  C   UNL     1       7.039   4.523  15.914  0.00  0.00    +0.000 C 
BRANCH  22  23
ATOM     23  C   UNL     1       5.837   4.041  15.109  0.00  0.00    +0.000 C 
ATOM     24 CL   UNL     1       6.232   3.826  13.384  0.00  0.00    +0.000 Cl
ENDBRANCH  22  23
ENDBRANCH  21  22
ENDBRANCH   3  21
TORSDOF 6
ENDMDL
MODEL 7
REMARK VINA RESULT:      -7.7      1.353      1.898
REMARK  Name = 
REMARK  6 active torsions:
REMARK  status: ('A' for Active; 'I' for Inactive)
REMARK    1  A    between atoms: C_2  and  C_3
REMARK    2  A    between atoms: C_2  and  C_18
REMARK    3  A    between atoms: C_3  and  N_4
REMARK    4  A    between atoms: N_6  and  C_7
REMARK    5  A    between atoms: C_7  and  C_8
REMARK    6  A    between atoms: C_8  and  C_9
REMARK                            x       y       z     vdW  Elec       q    Type
REMARK                         _______ _______ _______ _____ _____    ______ ____
ROOT
ATOM      1  N   UNL     1       6.162   5.748  17.636  0.00  0.00    +0.000 N 
ATOM      2  C   UNL     1       7.124   6.696  17.355  0.00  0.00    +0.000 A 
ATOM      3  N   UNL     1       7.519   7.622  18.248  0.00  0.00    +0.000 N 
ATOM      4  N   UNL     1       7.557   6.564  16.121  0.00  0.00    +0.000 NA
ATOM      5  C   UNL     1       6.910   5.471  15.603  0.00  0.00    +0.000 A 
ATOM      6  C   UNL     1       7.026   4.874  14.337  0.00  0.00    +0.000 A 
ATOM      7  C   UNL     1       6.225   3.763  14.042  0.00  0.00    +0.000 A 
ATOM      8  C   UNL     1       5.327   3.260  14.978  0.00  0.00    +0.000 A 
ATOM      9  C   UNL     1       5.208   3.831  16.247  0.00  0.00    +0.000 A 
ATOM     10  C   UNL     1       6.023   4.935  16.528  0.00  0.00    +0.000 A 
ATOM     11  H   UNL     1       7.378   7.543  19.247  0.00  0.00    +0.000 HD
ENDROOT
BRANCH   1  12
ATOM     12  C   UNL     1       5.382   5.596  18.854  0.00  0.00    +0.000 C 
BRANCH  12  14
ATOM     13  O   UNL     1       3.556   7.012  18.129  0.00  0.00    +0.000 OA
ATOM     14  C   UNL     1       3.922   5.961  18.651  0.00  0.00    +0.000 C 
BRANCH  14  15
ATOM     15  C   UNL     1       2.880   5.002  19.114  0.00  0.00    +0.000 A 
ATOM     16  C   UNL     1       2.210   4.232  18.154  0.00  0.00    +0.000 A 
ATOM     17  C   UNL     1       1.195   3.352  18.540  0.00  0.00    +0.000 A 
ATOM     18  C   UNL     1       0.842   3.248  19.884  0.00  0.00    +0.000 A 
ATOM     19  C   UNL     1       1.509   4.009  20.843  0.00  0.00    +0.000 A 
ATOM     20  C   UNL     1       2.530   4.886  20.463  0.00  0.00    +0.000 A 
ENDBRANCH  14  15
ENDBRANCH  12  14
ENDBRANCH   1  12
BRANCH   3  21
ATOM     21  C   UNL     1       8.149   8.859  17.803  0.00  0.00    +0.000 C 
BRANCH  21  22
ATOM     22  C   UNL     1       8.966   9.511  18.921  0.00  0.00    +0.000 C 
BRANCH  22  23
ATOM     23  C   UNL     1       9.172  11.011  18.741  0.00  0.00    +0.000 C 
ATOM     24 CL   UNL     1      10.712  11.380  17.924  0.00  0.00    +0.000 Cl
ENDBRANCH  22  23
ENDBRANCH  21  22
ENDBRANCH   3  21
TORSDOF 6
ENDMDL
MODEL 8
REMARK VINA RESULT:      -7.7      1.187      5.964
REMARK  Name = 
REMARK  6 active torsions:
REMARK  status: ('A' for Active; 'I' for Inactive)
REMARK    1  A    between atoms: C_2  and  C_3
REMARK    2  A    between atoms: C_2  and  C_18
REMARK    3  A    between atoms: C_3  and  N_4
REMARK    4  A    between atoms: N_6  and  C_7
REMARK    5  A    between atoms: C_7  and  C_8
REMARK    6  A    between atoms: C_8  and  C_9
REMARK                            x       y       z     vdW  Elec       q    Type
REMARK                         _______ _______ _______ _____ _____    ______ ____
ROOT
ATOM      1  N   UNL     1       4.469   4.324  17.757  0.00  0.00    +0.000 N 
ATOM      2  C   UNL     1       5.373   4.979  18.567  0.00  0.00    +0.000 A 
ATOM      3  N   UNL     1       6.614   5.304  18.160  0.00  0.00    +0.000 N 
ATOM      4  N   UNL     1       4.854   5.205  19.753  0.00  0.00    +0.000 NA
ATOM      5  C   UNL     1       3.563   4.744  19.699  0.00  0.00    +0.000 A 
ATOM      6  C   UNL     1       2.559   4.767  20.681  0.00  0.00    +0.000 A 
ATOM      7  C   UNL     1       1.313   4.201  20.382  0.00  0.00    +0.000 A 
ATOM      8  C   UNL     1       1.071   3.621  19.140  0.00  0.00    +0.000 A 
ATOM      9  C   UNL     1       2.052   3.602  18.146  0.00  0.00    +0.000 A 
ATOM     10  C   UNL     1       3.289   4.180  18.460  0.00  0.00    +0.000 A 
ATOM     11  H   UNL     1       6.896   5.364  17.190  0.00  0.00    +0.000 HD
ENDROOT
BRANCH   1  12
ATOM     12  C   UNL     1       4.671   3.827  16.405  0.00  0.00    +0.000 C 
BRANCH  12  14
ATOM     13  O   UNL     1       5.049   6.111  15.690  0.00  0.00    +0.000 OA
ATOM     14  C   UNL     1       5.173   4.909  15.464  0.00  0.00    +0.000 C 
BRANCH  14  15
ATOM     15  C   UNL     1       5.844   4.494  14.200  0.00  0.00    +0.000 A 
ATOM     16  C   UNL     1       7.065   5.093  13.865  0.00  0.00    +0.000 A 
ATOM     17  C   UNL     1       7.707   4.766  12.668  0.00  0.00    +0.000 A 
ATOM     18  C   UNL     1       7.124   3.845  11.799  0.00  0.00    +0.000 A 
ATOM     19  C   UNL     1       5.910   3.243  12.129  0.00  0.00    +0.000 A 
ATOM     20  C   UNL     1       5.268   3.562  13.330  0.00  0.00    +0.000 A 
ENDBRANCH  14  15
ENDBRANCH  12  14
ENDBRANCH   1  12
BRANCH   3  21
ATOM     21  C   UNL     1       7.672   5.547  19.133  0.00  0.00    +0.000 C 
BRANCH  21  22
ATOM     22  C   UNL     1       8.259   6.954  18.991  0.00  0.00    +0.000 C 
BRANCH  22  23
ATOM     23  C   UNL     1       7.762   7.708  17.763  0.00  0.00    +0.000 C 
ATOM     24 CL   UNL     1       8.141   9.447  17.848  0.00  0.00    +0.000 Cl
ENDBRANCH  22  23
ENDBRANCH  21  22
ENDBRANCH   3  21
TORSDOF 6
ENDMDL
MODEL 9
REMARK VINA RESULT:      -7.7      2.918      5.633
REMARK  Name = 
REMARK  6 active torsions:
REMARK  status: ('A' for Active; 'I' for Inactive)
REMARK    1  A    between atoms: C_2  and  C_3
REMARK    2  A    between atoms: C_2  and  C_18
REMARK    3  A    between atoms: C_3  and  N_4
REMARK    4  A    between atoms: N_6  and  C_7
REMARK    5  A    between atoms: C_7  and  C_8
REMARK    6  A    between atoms: C_8  and  C_9
REMARK                            x       y       z     vdW  Elec       q    Type
REMARK                         _______ _______ _______ _____ _____    ______ ____
ROOT
ATOM      1  N   UNL     1       2.949   4.913  18.416  0.00  0.00    +0.000 N 
ATOM      2  C   UNL     1       4.174   4.432  18.002  0.00  0.00    +0.000 A 
ATOM      3  N   UNL     1       4.842   4.944  16.952  0.00  0.00    +0.000 N 
ATOM      4  N   UNL     1       4.554   3.424  18.755  0.00  0.00    +0.000 NA
ATOM      5  C   UNL     1       3.588   3.281  19.719  0.00  0.00    +0.000 A 
ATOM      6  C   UNL     1       3.515   2.378  20.792  0.00  0.00    +0.000 A 
ATOM      7  C   UNL     1       2.395   2.421  21.632  0.00  0.00    +0.000 A 
ATOM      8  C   UNL     1       1.370   3.334  21.410  0.00  0.00    +0.000 A 
ATOM      9  C   UNL     1       1.431   4.250  20.358  0.00  0.00    +0.000 A 
ATOM     10  C   UNL     1       2.562   4.199  19.533  0.00  0.00    +0.000 A 
ATOM     11  H   UNL     1       4.670   5.863  16.564  0.00  0.00    +0.000 HD
ENDROOT
BRANCH   1  12
ATOM     12  C   UNL     1       2.147   5.965  17.810  0.00  0.00    +0.000 C 
BRANCH  12  14
ATOM     13  O   UNL     1       3.720   7.803  17.680  0.00  0.00    +0.000 OA
ATOM     14  C   UNL     1       2.673   7.350  18.140  0.00  0.00    +0.000 C 
BRANCH  14  15
ATOM     15  C   UNL     1       1.885   8.205  19.073  0.00  0.00    +0.000 A 
ATOM     16  C   UNL     1       1.344   9.401  18.586  0.00  0.00    +0.000 A 
ATOM     17  C   UNL     1       0.636  10.254  19.437  0.00  0.00    +0.000 A 
ATOM     18  C   UNL     1       0.476   9.914  20.780  0.00  0.00    +0.000 A 
ATOM     19  C   UNL     1       1.009   8.722  21.269  0.00  0.00    +0.000 A 
ATOM     20  C   UNL     1       1.712   7.862  20.418  0.00  0.00    +0.000 A 
ENDBRANCH  14  15
ENDBRANCH  12  14
ENDBRANCH   1  12
BRANCH   3  21
ATOM     21  C   UNL     1       5.852   4.153  16.260  0.00  0.00    +0.000 C 
BRANCH  21  22
ATOM     22  C   UNL     1       7.235   4.806  16.342  0.00  0.00    +0.000 C 
BRANCH  22  23
ATOM     23  C   UNL     1       7.241   6.150  17.061  0.00  0.00    +0.000 C 
ATOM     24 CL   UNL     1       7.778   5.999  18.754  0.00  0.00    +0.000 Cl
ENDBRANCH  22  23
ENDBRANCH  21  22
ENDBRANCH   3  21
TORSDOF 6
ENDMDL
