MODEL 1
REMARK VINA RESULT:      -8.8      0.000      0.000
REMARK  Name = 
REMARK  4 active torsions:
REMARK  status: ('A' for Active; 'I' for Inactive)
REMARK    1  A    between atoms: C_2  and  C_3
REMARK    2  A    between atoms: C_3  and  C_4
REMARK    3  A    between atoms: C_11  and  C_12
REMARK    4  A    between atoms: C_12  and  C_13
REMARK                            x       y       z     vdW  Elec       q    Type
REMARK                         _______ _______ _______ _____ _____    ______ ____
ROOT
ATOM      1  C   UNL     1       9.330  11.462  18.464  0.00  0.00    +0.000 C 
ATOM      2  C   UNL     1      10.655  11.173  17.704  0.00  0.00    +0.000 C 
ATOM      3  C   UNL     1      11.805  12.036  18.247  0.00  0.00    +0.000 C 
ATOM      4  C   UNL     1      11.996  11.755  19.744  0.00  0.00    +0.000 C 
ATOM      5  C   UNL     1      10.702  12.085  20.503  0.00  0.00    +0.000 C 
ATOM      6  C   UNL     1       9.566  11.191  19.967  0.00  0.00    +0.000 C 
ATOM      7  C   UNL     1      10.349  13.570  20.288  0.00  0.00    +0.000 C 
ATOM      8  C   UNL     1      10.146  13.876  18.778  0.00  0.00    +0.000 C 
ATOM      9  C   UNL     1      11.459  13.519  18.044  0.00  0.00    +0.000 C 
ATOM     10  C   UNL     1       9.002  12.957  18.281  0.00  0.00    +0.000 C 
ENDROOT
BRANCH   1  11
ATOM     11  C   UNL     1       8.211  10.585  17.860  0.00  0.00    +0.000 C 
BRANCH  11  13
ATOM     12  O   UNL     1       8.981   8.710  19.124  0.00  0.00    +0.000 OA
ATOM     13  C   UNL     1       8.320   9.100  18.162  0.00  0.00    +0.000 C 
ATOM     14  N   UNL     1       7.689   8.277  17.238  0.00  0.00    +0.000 N 
ATOM     15  C   UNL     1       7.497   6.923  17.275  0.00  0.00    +0.000 C 
ATOM     16  N   UNL     1       7.199   6.299  16.187  0.00  0.00    +0.000 NA
ATOM     17  C   UNL     1       7.039   4.857  16.476  0.00  0.00    +0.000 C 
ATOM     18  C   UNL     1       7.724   4.495  17.787  0.00  0.00    +0.000 C 
ATOM     19  S   UNL     1       7.606   6.013  18.740  0.00  0.00    +0.000 S 
ATOM     20  H   UNL     1       7.420   8.678  16.357  0.00  0.00    +0.000 HD
ENDBRANCH  11  13
ENDBRANCH   1  11
BRANCH   8  21
ATOM     21  C   UNL     1       9.794  15.374  18.579  0.00  0.00    +0.000 C 
BRANCH  21  22
ATOM     22  C   UNL     1       8.401  15.743  19.058  0.00  0.00    +0.000 C 
ATOM     23  O   UNL     1       8.239  16.218  20.182  0.00  0.00    +0.000 OA
ATOM     24  N   UNL     1       7.376  15.456  18.175  0.00  0.00    +0.000 N 
ATOM     25  C   UNL     1       6.036  15.662  18.379  0.00  0.00    +0.000 C 
ATOM     26  N   UNL     1       5.176  14.984  17.696  0.00  0.00    +0.000 NA
ATOM     27  C   UNL     1       3.813  15.351  18.168  0.00  0.00    +0.000 C 
ATOM     28  C   UNL     1       3.887  15.912  19.580  0.00  0.00    +0.000 C 
ATOM     29  S   UNL     1       5.440  16.800  19.538  0.00  0.00    +0.000 S 
ATOM     30  H   UNL     1       7.572  14.836  17.402  0.00  0.00    +0.000 HD
ENDBRANCH  21  22
ENDBRANCH   8  21
TORSDOF 4
ENDMDL
MODEL 2
REMARK VINA RESULT:      -8.6      1.030      1.117
REMARK  Name = 
REMARK  4 active torsions:
REMARK  status: ('A' for Active; 'I' for Inactive)
REMARK    1  A    between atoms: C_2  and  C_3
REMARK    2  A    between atoms: C_3  and  C_4
REMARK    3  A    between atoms: C_11  and  C_12
REMARK    4  A    between atoms: C_12  and  C_13
REMARK                            x       y       z     vdW  Elec       q    Type
REMARK                         _______ _______ _______ _____ _____    ______ ____
ROOT
ATOM      1  C   UNL     1       9.381  11.490  18.544  0.00  0.00    +0.000 C 
ATOM      2  C   UNL     1      10.667  11.422  17.672  0.00  0.00    +0.000 C 
ATOM      3  C   UNL     1      11.788  12.285  18.273  0.00  0.00    +0.000 C 
ATOM      4  C   UNL     1      12.102  11.803  19.696  0.00  0.00    +0.000 C 
ATOM      5  C   UNL     1      10.844  11.912  20.570  0.00  0.00    +0.000 C 
ATOM      6  C   UNL     1       9.740  11.020  19.972  0.00  0.00    +0.000 C 
ATOM      7  C   UNL     1      10.374  13.381  20.604  0.00  0.00    +0.000 C 
ATOM      8  C   UNL     1      10.046  13.889  19.173  0.00  0.00    +0.000 C 
ATOM      9  C   UNL     1      11.326  13.749  18.319  0.00  0.00    +0.000 C 
ATOM     10  C   UNL     1       8.937  12.964  18.610  0.00  0.00    +0.000 C 
ENDROOT
BRANCH   1  11
ATOM     11  C   UNL     1       8.287  10.624  17.879  0.00  0.00    +0.000 C 
BRANCH  11  13
ATOM     12  O   UNL     1       9.019   8.735  19.144  0.00  0.00    +0.000 OA
ATOM     13  C   UNL     1       8.368   9.137  18.179  0.00  0.00    +0.000 C 
ATOM     14  N   UNL     1       7.725   8.328  17.253  0.00  0.00    +0.000 N 
ATOM     15  C   UNL     1       7.509   6.977  17.287  0.00  0.00    +0.000 C 
ATOM     16  N   UNL     1       7.203   6.360  16.197  0.00  0.00    +0.000 NA
ATOM     17  C   UNL     1       7.016   4.921  16.484  0.00  0.00    +0.000 C 
ATOM     18  C   UNL     1       7.690   4.545  17.797  0.00  0.00    +0.000 C 
ATOM     19  S   UNL     1       7.596   6.063  18.752  0.00  0.00    +0.000 S 
ATOM     20  H   UNL     1       7.466   8.734  16.371  0.00  0.00    +0.000 HD
ENDBRANCH  11  13
ENDBRANCH   1  11
BRANCH   8  21
ATOM     21  C   UNL     1       9.576  15.366  19.226  0.00  0.00    +0.000 C 
BRANCH  21  22
ATOM     22  C   UNL     1       8.120  15.558  18.842  0.00  0.00    +0.000 C 
ATOM     23  O   UNL     1       7.812  15.766  17.668  0.00  0.00    +0.000 OA
ATOM     24  N   UNL     1       7.222  15.534  19.894  0.00  0.00    +0.000 N 
ATOM     25  C   UNL     1       5.865  15.712  19.818  0.00  0.00    +0.000 C 
ATOM     26  N   UNL     1       5.212  16.088  20.866  0.00  0.00    +0.000 NA
ATOM     27  C   UNL     1       3.785  16.273  20.486  0.00  0.00    +0.000 C 
ATOM     28  C   UNL     1       3.676  16.513  18.987  0.00  0.00    +0.000 C 
ATOM     29  S   UNL     1       4.979  15.462  18.354  0.00  0.00    +0.000 S 
ATOM     30  H   UNL     1       7.586  15.622  20.833  0.00  0.00    +0.000 HD
ENDBRANCH  21  22
ENDBRANCH   8  21
TORSDOF 4
ENDMDL
MODEL 3
REMARK VINA RESULT:      -8.3      7.685     10.936
REMARK  Name = 
REMARK  4 active torsions:
REMARK  status: ('A' for Active; 'I' for Inactive)
REMARK    1  A    between atoms: C_2  and  C_3
REMARK    2  A    between atoms: C_3  and  C_4
REMARK    3  A    between atoms: C_11  and  C_12
REMARK    4  A    between atoms: C_12  and  C_13
REMARK                            x       y       z     vdW  Elec       q    Type
REMARK                         _______ _______ _______ _____ _____    ______ ____
ROOT
ATOM      1  C   UNL     1       2.621   6.917  18.359  0.00  0.00    +0.000 C 
ATOM      2  C   UNL     1       1.548   6.073  17.617  0.00  0.00    +0.000 C 
ATOM      3  C   UNL     1       1.628   4.593  18.025  0.00  0.00    +0.000 C 
ATOM      4  C   UNL     1       1.428   4.466  19.542  0.00  0.00    +0.000 C 
ATOM      5  C   UNL     1       2.516   5.263  20.277  0.00  0.00    +0.000 C 
ATOM      6  C   UNL     1       2.404   6.747  19.880  0.00  0.00    +0.000 C 
ATOM      7  C   UNL     1       3.903   4.716  19.882  0.00  0.00    +0.000 C 
ATOM      8  C   UNL     1       4.128   4.839  18.350  0.00  0.00    +0.000 C 
ATOM      9  C   UNL     1       3.009   4.041  17.643  0.00  0.00    +0.000 C 
ATOM     10  C   UNL     1       4.004   6.342  17.995  0.00  0.00    +0.000 C 
ENDROOT
BRANCH   1  11
ATOM     11  C   UNL     1       2.506   8.386  17.892  0.00  0.00    +0.000 C 
BRANCH  11  13
ATOM     12  O   UNL     1       1.370   9.439  19.710  0.00  0.00    +0.000 OA
ATOM     13  C   UNL     1       1.362   9.172  18.508  0.00  0.00    +0.000 C 
ATOM     14  N   UNL     1       0.330   9.471  17.629  0.00  0.00    +0.000 N 
ATOM     15  C   UNL     1      -0.775  10.254  17.826  0.00  0.00    +0.000 C 
ATOM     16  N   UNL     1      -1.778  10.140  17.024  0.00  0.00    +0.000 NA
ATOM     17  C   UNL     1      -2.842  11.084  17.433  0.00  0.00    +0.000 C 
ATOM     18  C   UNL     1      -2.646  11.516  18.880  0.00  0.00    +0.000 C 
ATOM     19  S   UNL     1      -0.866  11.424  19.095  0.00  0.00    +0.000 S 
ATOM     20  H   UNL     1       0.297   8.976  16.756  0.00  0.00    +0.000 HD
ENDBRANCH  11  13
ENDBRANCH   1  11
BRANCH   8  21
ATOM     21  C   UNL     1       5.526   4.283  17.970  0.00  0.00    +0.000 C 
BRANCH  21  22
ATOM     22  C   UNL     1       5.681   3.978  16.490  0.00  0.00    +0.000 C 
ATOM     23  O   UNL     1       5.214   2.941  16.020  0.00  0.00    +0.000 OA
ATOM     24  N   UNL     1       6.410   4.906  15.768  0.00  0.00    +0.000 N 
ATOM     25  C   UNL     1       6.716   4.848  14.433  0.00  0.00    +0.000 C 
ATOM     26  N   UNL     1       7.725   5.515  13.981  0.00  0.00    +0.000 NA
ATOM     27  C   UNL     1       7.871   5.215  12.531  0.00  0.00    +0.000 C 
ATOM     28  C   UNL     1       7.211   3.882  12.209  0.00  0.00    +0.000 C 
ATOM     29  S   UNL     1       5.803   3.897  13.313  0.00  0.00    +0.000 S 
ATOM     30  H   UNL     1       6.968   5.575  16.278  0.00  0.00    +0.000 HD
ENDBRANCH  21  22
ENDBRANCH   8  21
TORSDOF 4
ENDMDL
MODEL 4
REMARK VINA RESULT:      -8.3      1.510      1.770
REMARK  Name = 
REMARK  4 active torsions:
REMARK  status: ('A' for Active; 'I' for Inactive)
REMARK    1  A    between atoms: C_2  and  C_3
REMARK    2  A    between atoms: C_3  and  C_4
REMARK    3  A    between atoms: C_11  and  C_12
REMARK    4  A    between atoms: C_12  and  C_13
REMARK                            x       y       z     vdW  Elec       q    Type
REMARK                         _______ _______ _______ _____ _____    ______ ____
ROOT
ATOM      1  C   UNL     1       9.331  11.495  18.406  0.00  0.00    +0.000 C 
ATOM      2  C   UNL     1      10.658  11.058  17.725  0.00  0.00    +0.000 C 
ATOM      3  C   UNL     1      11.840  11.907  18.220  0.00  0.00    +0.000 C 
ATOM      4  C   UNL     1      11.970  11.768  19.744  0.00  0.00    +0.000 C 
ATOM      5  C   UNL     1      10.676  12.243  20.420  0.00  0.00    +0.000 C 
ATOM      6  C   UNL     1       9.507  11.365  19.936  0.00  0.00    +0.000 C 
ATOM      7  C   UNL     1      10.417  13.717  20.047  0.00  0.00    +0.000 C 
ATOM      8  C   UNL     1      10.277  13.880  18.508  0.00  0.00    +0.000 C 
ATOM      9  C   UNL     1      11.588  13.378  17.860  0.00  0.00    +0.000 C 
ATOM     10  C   UNL     1       9.096  12.980  18.065  0.00  0.00    +0.000 C 
ENDROOT
BRANCH   1  11
ATOM     11  C   UNL     1       8.180  10.625  17.853  0.00  0.00    +0.000 C 
BRANCH  11  13
ATOM     12  O   UNL     1       8.945   8.751  19.122  0.00  0.00    +0.000 OA
ATOM     13  C   UNL     1       8.291   9.140  18.154  0.00  0.00    +0.000 C 
ATOM     14  N   UNL     1       7.671   8.316  17.225  0.00  0.00    +0.000 N 
ATOM     15  C   UNL     1       7.483   6.962  17.258  0.00  0.00    +0.000 C 
ATOM     16  N   UNL     1       7.196   6.338  16.166  0.00  0.00    +0.000 NA
ATOM     17  C   UNL     1       7.038   4.895  16.453  0.00  0.00    +0.000 C 
ATOM     18  C   UNL     1       7.714   4.534  17.769  0.00  0.00    +0.000 C 
ATOM     19  S   UNL     1       7.582   6.049  18.723  0.00  0.00    +0.000 S 
ATOM     20  H   UNL     1       7.408   8.717  16.341  0.00  0.00    +0.000 HD
ENDBRANCH  11  13
ENDBRANCH   1  11
BRANCH   8  21
ATOM     21  C   UNL     1      10.019  15.367  18.150  0.00  0.00    +0.000 C 
BRANCH  21  22
ATOM     22  C   UNL     1       8.656  15.874  18.589  0.00  0.00    +0.000 C 
ATOM     23  O   UNL     1       7.677  15.724  17.859  0.00  0.00    +0.000 OA
ATOM     24  N   UNL     1       8.634  16.536  19.803  0.00  0.00    +0.000 N 
ATOM     25  C   UNL     1       7.544  17.110  20.403  0.00  0.00    +0.000 C 
ATOM     26  N   UNL     1       7.716  18.038  21.283  0.00  0.00    +0.000 NA
ATOM     27  C   UNL     1       6.379  18.530  21.712  0.00  0.00    +0.000 C 
ATOM     28  C   UNL     1       5.346  18.224  20.637  0.00  0.00    +0.000 C 
ATOM     29  S   UNL     1       5.922  16.646  20.017  0.00  0.00    +0.000 S 
ATOM     30  H   UNL     1       9.514  16.837  20.198  0.00  0.00    +0.000 HD
ENDBRANCH  21  22
ENDBRANCH   8  21
TORSDOF 4
ENDMDL
MODEL 5
REMARK VINA RESULT:      -8.2      7.378      9.181
REMARK  Name = 
REMARK  4 active torsions:
REMARK  status: ('A' for Active; 'I' for Inactive)
REMARK    1  A    between atoms: C_2  and  C_3
REMARK    2  A    between atoms: C_3  and  C_4
REMARK    3  A    between atoms: C_11  and  C_12
REMARK    4  A    between atoms: C_12  and  C_13
REMARK                            x       y       z     vdW  Elec       q    Type
REMARK                         _______ _______ _______ _____ _____    ______ ____
ROOT
ATOM      1  C   UNL     1       4.137   4.159  18.568  0.00  0.00    +0.000 C 
ATOM      2  C   UNL     1       4.236   2.878  19.443  0.00  0.00    +0.000 C 
ATOM      3  C   UNL     1       2.872   2.519  20.055  0.00  0.00    +0.000 C 
ATOM      4  C   UNL     1       1.847   2.303  18.933  0.00  0.00    +0.000 C 
ATOM      5  C   UNL     1       1.714   3.583  18.096  0.00  0.00    +0.000 C 
ATOM      6  C   UNL     1       3.082   3.913  17.467  0.00  0.00    +0.000 C 
ATOM      7  C   UNL     1       1.261   4.742  19.006  0.00  0.00    +0.000 C 
ATOM      8  C   UNL     1       2.288   4.983  20.147  0.00  0.00    +0.000 C 
ATOM      9  C   UNL     1       2.408   3.672  20.958  0.00  0.00    +0.000 C 
ATOM     10  C   UNL     1       3.644   5.306  19.472  0.00  0.00    +0.000 C 
ENDROOT
BRANCH   1  11
ATOM     11  C   UNL     1       5.539   4.481  18.002  0.00  0.00    +0.000 C 
BRANCH  11  13
ATOM     12  O   UNL     1       5.386   2.903  16.215  0.00  0.00    +0.000 OA
ATOM     13  C   UNL     1       5.784   4.010  16.579  0.00  0.00    +0.000 C 
ATOM     14  N   UNL     1       6.532   4.886  15.804  0.00  0.00    +0.000 N 
ATOM     15  C   UNL     1       6.828   4.824  14.470  0.00  0.00    +0.000 C 
ATOM     16  N   UNL     1       7.801   5.531  14.006  0.00  0.00    +0.000 NA
ATOM     17  C   UNL     1       7.925   5.301  12.550  0.00  0.00    +0.000 C 
ATOM     18  C   UNL     1       7.236   4.002  12.153  0.00  0.00    +0.000 C 
ATOM     19  S   UNL     1       5.919   3.854  13.364  0.00  0.00    +0.000 S 
ATOM     20  H   UNL     1       7.032   5.620  16.272  0.00  0.00    +0.000 HD
ENDBRANCH  11  13
ENDBRANCH   1  11
BRANCH   8  21
ATOM     21  C   UNL     1       1.816   6.150  21.054  0.00  0.00    +0.000 C 
BRANCH  21  22
ATOM     22  C   UNL     1       1.731   7.485  20.336  0.00  0.00    +0.000 C 
ATOM     23  O   UNL     1       2.224   7.618  19.216  0.00  0.00    +0.000 OA
ATOM     24  N   UNL     1       1.124   8.503  21.050  0.00  0.00    +0.000 N 
ATOM     25  C   UNL     1       0.951   9.800  20.641  0.00  0.00    +0.000 C 
ATOM     26  N   UNL     1       0.773  10.727  21.521  0.00  0.00    +0.000 NA
ATOM     27  C   UNL     1       0.688  12.033  20.813  0.00  0.00    +0.000 C 
ATOM     28  C   UNL     1       1.371  11.933  19.457  0.00  0.00    +0.000 C 
ATOM     29  S   UNL     1       0.972  10.256  18.972  0.00  0.00    +0.000 S 
ATOM     30  H   UNL     1       0.990   8.375  22.042  0.00  0.00    +0.000 HD
ENDBRANCH  21  22
ENDBRANCH   8  21
TORSDOF 4
ENDMDL
MODEL 6
REMARK VINA RESULT:      -8.2      7.508     11.131
REMARK  Name = 
REMARK  4 active torsions:
REMARK  status: ('A' for Active; 'I' for Inactive)
REMARK    1  A    between atoms: C_2  and  C_3
REMARK    2  A    between atoms: C_3  and  C_4
REMARK    3  A    between atoms: C_11  and  C_12
REMARK    4  A    between atoms: C_12  and  C_13
REMARK                            x       y       z     vdW  Elec       q    Type
REMARK                         _______ _______ _______ _____ _____    ______ ____
ROOT
ATOM      1  C   UNL     1       2.327   4.868  20.119  0.00  0.00    +0.000 C 
ATOM      2  C   UNL     1       1.338   4.661  18.937  0.00  0.00    +0.000 C 
ATOM      3  C   UNL     1       1.780   3.492  18.043  0.00  0.00    +0.000 C 
ATOM      4  C   UNL     1       1.862   2.208  18.880  0.00  0.00    +0.000 C 
ATOM      5  C   UNL     1       2.873   2.395  20.020  0.00  0.00    +0.000 C 
ATOM      6  C   UNL     1       2.401   3.550  20.923  0.00  0.00    +0.000 C 
ATOM      7  C   UNL     1       4.257   2.723  19.425  0.00  0.00    +0.000 C 
ATOM      8  C   UNL     1       4.199   4.024  18.577  0.00  0.00    +0.000 C 
ATOM      9  C   UNL     1       3.162   3.806  17.451  0.00  0.00    +0.000 C 
ATOM     10  C   UNL     1       3.718   5.156  19.520  0.00  0.00    +0.000 C 
ENDROOT
BRANCH   1  11
ATOM     11  C   UNL     1       1.843   6.067  20.965  0.00  0.00    +0.000 C 
BRANCH  11  13
ATOM     12  O   UNL     1       2.329   7.508  19.123  0.00  0.00    +0.000 OA
ATOM     13  C   UNL     1       1.829   7.404  20.243  0.00  0.00    +0.000 C 
ATOM     14  N   UNL     1       1.290   8.449  20.980  0.00  0.00    +0.000 N 
ATOM     15  C   UNL     1       1.022   9.734  20.591  0.00  0.00    +0.000 C 
ATOM     16  N   UNL     1       0.845  10.640  21.490  0.00  0.00    +0.000 NA
ATOM     17  C   UNL     1       0.569  11.937  20.833  0.00  0.00    +0.000 C 
ATOM     18  C   UNL     1       1.046  11.915  19.386  0.00  0.00    +0.000 C 
ATOM     19  S   UNL     1       0.878  10.186  18.929  0.00  0.00    +0.000 S 
ATOM     20  H   UNL     1       1.167   8.316  21.968  0.00  0.00    +0.000 HD
ENDBRANCH  11  13
ENDBRANCH   1  11
BRANCH   8  21
ATOM     21  C   UNL     1       5.597   4.339  17.985  0.00  0.00    +0.000 C 
BRANCH  21  22
ATOM     22  C   UNL     1       5.725   4.008  16.508  0.00  0.00    +0.000 C 
ATOM     23  O   UNL     1       5.253   2.961  16.066  0.00  0.00    +0.000 OA
ATOM     24  N   UNL     1       6.436   4.925  15.756  0.00  0.00    +0.000 N 
ATOM     25  C   UNL     1       6.717   4.844  14.417  0.00  0.00    +0.000 C 
ATOM     26  N   UNL     1       7.714   5.506  13.934  0.00  0.00    +0.000 NA
ATOM     27  C   UNL     1       7.834   5.181  12.487  0.00  0.00    +0.000 C 
ATOM     28  C   UNL     1       7.173   3.840  12.201  0.00  0.00    +0.000 C 
ATOM     29  S   UNL     1       5.786   3.870  13.332  0.00  0.00    +0.000 S 
ATOM     30  H   UNL     1       7.002   5.606  16.243  0.00  0.00    +0.000 HD
ENDBRANCH  21  22
ENDBRANCH   8  21
TORSDOF 4
ENDMDL
MODEL 7
REMARK VINA RESULT:      -8.2      0.595      7.434
REMARK  Name = 
REMARK  4 active torsions:
REMARK  status: ('A' for Active; 'I' for Inactive)
REMARK    1  A    between atoms: C_2  and  C_3
REMARK    2  A    between atoms: C_3  and  C_4
REMARK    3  A    between atoms: C_11  and  C_12
REMARK    4  A    between atoms: C_12  and  C_13
REMARK                            x       y       z     vdW  Elec       q    Type
REMARK                         _______ _______ _______ _____ _____    ______ ____
ROOT
ATOM      1  C   UNL     1       9.744  13.790  19.247  0.00  0.00    +0.000 C 
ATOM      2  C   UNL     1       9.862  13.204  20.682  0.00  0.00    +0.000 C 
ATOM      3  C   UNL     1      10.393  11.762  20.649  0.00  0.00    +0.000 C 
ATOM      4  C   UNL     1      11.767  11.735  19.964  0.00  0.00    +0.000 C 
ATOM      5  C   UNL     1      11.642  12.272  18.530  0.00  0.00    +0.000 C 
ATOM      6  C   UNL     1      11.137  13.726  18.583  0.00  0.00    +0.000 C 
ATOM      7  C   UNL     1      10.646  11.396  17.744  0.00  0.00    +0.000 C 
ATOM      8  C   UNL     1       9.246  11.412  18.417  0.00  0.00    +0.000 C 
ATOM      9  C   UNL     1       9.411  10.883  19.860  0.00  0.00    +0.000 C 
ATOM     10  C   UNL     1       8.779  12.889  18.451  0.00  0.00    +0.000 C 
ENDROOT
BRANCH   1  11
ATOM     11  C   UNL     1       9.185  15.228  19.345  0.00  0.00    +0.000 C 
BRANCH  11  13
ATOM     12  O   UNL     1       7.390  15.333  20.918  0.00  0.00    +0.000 OA
ATOM     13  C   UNL     1       7.719  15.327  19.731  0.00  0.00    +0.000 C 
ATOM     14  N   UNL     1       6.840  15.332  18.657  0.00  0.00    +0.000 N 
ATOM     15  C   UNL     1       5.486  15.526  18.648  0.00  0.00    +0.000 C 
ATOM     16  N   UNL     1       4.804  15.163  17.617  0.00  0.00    +0.000 NA
ATOM     17  C   UNL     1       3.374  15.475  17.838  0.00  0.00    +0.000 C 
ATOM     18  C   UNL     1       3.091  15.658  19.324  0.00  0.00    +0.000 C 
ATOM     19  S   UNL     1       4.651  16.279  19.962  0.00  0.00    +0.000 S 
ATOM     20  H   UNL     1       7.191  15.050  17.759  0.00  0.00    +0.000 HD
ENDBRANCH  11  13
ENDBRANCH   1  11
BRANCH   8  21
ATOM     21  C   UNL     1       8.258  10.526  17.615  0.00  0.00    +0.000 C 
BRANCH  21  22
ATOM     22  C   UNL     1       8.261   9.068  18.039  0.00  0.00    +0.000 C 
ATOM     23  O   UNL     1       8.906   8.712  19.025  0.00  0.00    +0.000 OA
ATOM     24  N   UNL     1       7.550   8.211  17.218  0.00  0.00    +0.000 N 
ATOM     25  C   UNL     1       7.423   6.854  17.364  0.00  0.00    +0.000 C 
ATOM     26  N   UNL     1       7.113   6.130  16.341  0.00  0.00    +0.000 NA
ATOM     27  C   UNL     1       7.116   4.702  16.762  0.00  0.00    +0.000 C 
ATOM     28  C   UNL     1       7.984   4.529  18.000  0.00  0.00    +0.000 C 
ATOM     29  S   UNL     1       7.674   6.057  18.879  0.00  0.00    +0.000 S 
ATOM     30  H   UNL     1       7.278   8.543  16.303  0.00  0.00    +0.000 HD
ENDBRANCH  21  22
ENDBRANCH   8  21
TORSDOF 4
ENDMDL
MODEL 8
REMARK VINA RESULT:      -8.1      1.598      1.755
REMARK  Name = 
REMARK  4 active torsions:
REMARK  status: ('A' for Active; 'I' for Inactive)
REMARK    1  A    between atoms: C_2  and  C_3
REMARK    2  A    between atoms: C_3  and  C_4
REMARK    3  A    between atoms: C_11  and  C_12
REMARK    4  A    between atoms: C_12  and  C_13
REMARK                            x       y       z     vdW  Elec       q    Type
REMARK                         _______ _______ _______ _____ _____    ______ ____
ROOT
ATOM      1  C   UNL     1       9.326  11.446  18.463  0.00  0.00    +0.000 C 
ATOM      2  C   UNL     1      10.650  11.171  17.696  0.00  0.00    +0.000 C 
ATOM      3  C   UNL     1      11.798  12.031  18.248  0.00  0.00    +0.000 C 
ATOM      4  C   UNL     1      11.993  11.732  19.741  0.00  0.00    +0.000 C 
ATOM      5  C   UNL     1      10.699  12.048  20.506  0.00  0.00    +0.000 C 
ATOM      6  C   UNL     1       9.566  11.157  19.962  0.00  0.00    +0.000 C 
ATOM      7  C   UNL     1      10.341  13.535  20.310  0.00  0.00    +0.000 C 
ATOM      8  C   UNL     1      10.135  13.859  18.805  0.00  0.00    +0.000 C 
ATOM      9  C   UNL     1      11.447  13.515  18.064  0.00  0.00    +0.000 C 
ATOM     10  C   UNL     1       8.992  12.942  18.299  0.00  0.00    +0.000 C 
ENDROOT
BRANCH   1  11
ATOM     11  C   UNL     1       8.208  10.572  17.850  0.00  0.00    +0.000 C 
BRANCH  11  13
ATOM     12  O   UNL     1       8.939   8.699  19.140  0.00  0.00    +0.000 OA
ATOM     13  C   UNL     1       8.306   9.088  18.158  0.00  0.00    +0.000 C 
ATOM     14  N   UNL     1       7.700   8.265  17.219  0.00  0.00    +0.000 N 
ATOM     15  C   UNL     1       7.505   6.911  17.252  0.00  0.00    +0.000 C 
ATOM     16  N   UNL     1       7.237   6.285  16.158  0.00  0.00    +0.000 NA
ATOM     17  C   UNL     1       7.066   4.844  16.445  0.00  0.00    +0.000 C 
ATOM     18  C   UNL     1       7.714   4.484  17.776  0.00  0.00    +0.000 C 
ATOM     19  S   UNL     1       7.571   6.003  18.722  0.00  0.00    +0.000 S 
ATOM     20  H   UNL     1       7.456   8.664  16.329  0.00  0.00    +0.000 HD
ENDBRANCH  11  13
ENDBRANCH   1  11
BRANCH   8  21
ATOM     21  C   UNL     1       9.777  15.357  18.625  0.00  0.00    +0.000 C 
BRANCH  21  22
ATOM     22  C   UNL     1       9.165  15.992  19.862  0.00  0.00    +0.000 C 
ATOM     23  O   UNL     1       9.872  16.620  20.650  0.00  0.00    +0.000 OA
ATOM     24  N   UNL     1       7.812  15.760  20.038  0.00  0.00    +0.000 N 
ATOM     25  C   UNL     1       7.036  16.193  21.081  0.00  0.00    +0.000 C 
ATOM     26  N   UNL     1       5.935  15.578  21.355  0.00  0.00    +0.000 NA
ATOM     27  C   UNL     1       5.338  16.205  22.565  0.00  0.00    +0.000 C 
ATOM     28  C   UNL     1       6.418  16.916  23.367  0.00  0.00    +0.000 C 
ATOM     29  S   UNL     1       7.480  17.542  22.069  0.00  0.00    +0.000 S 
ATOM     30  H   UNL     1       7.379  15.028  19.494  0.00  0.00    +0.000 HD
ENDBRANCH  21  22
ENDBRANCH   8  21
TORSDOF 4
ENDMDL
MODEL 9
REMARK VINA RESULT:      -8.0      2.098      2.590
REMARK  Name = 
REMARK  4 active torsions:
REMARK  status: ('A' for Active; 'I' for Inactive)
REMARK    1  A    between atoms: C_2  and  C_3
REMARK    2  A    between atoms: C_3  and  C_4
REMARK    3  A    between atoms: C_11  and  C_12
REMARK    4  A    between atoms: C_12  and  C_13
REMARK                            x       y       z     vdW  Elec       q    Type
REMARK                         _______ _______ _______ _____ _____    ______ ____
ROOT
ATOM      1  C   UNL     1       9.261  11.497  18.238  0.00  0.00    +0.000 C 
ATOM      2  C   UNL     1       9.158  12.887  17.548  0.00  0.00    +0.000 C 
ATOM      3  C   UNL     1      10.229  13.851  18.083  0.00  0.00    +0.000 C 
ATOM      4  C   UNL     1      11.623  13.255  17.841  0.00  0.00    +0.000 C 
ATOM      5  C   UNL     1      11.742  11.903  18.560  0.00  0.00    +0.000 C 
ATOM      6  C   UNL     1      10.681  10.940  17.993  0.00  0.00    +0.000 C 
ATOM      7  C   UNL     1      11.513  12.108  20.071  0.00  0.00    +0.000 C 
ATOM      8  C   UNL     1      10.104  12.707  20.340  0.00  0.00    +0.000 C 
ATOM      9  C   UNL     1      10.015  14.055  19.590  0.00  0.00    +0.000 C 
ATOM     10  C   UNL     1       9.072  11.711  19.752  0.00  0.00    +0.000 C 
ENDROOT
BRANCH   1  11
ATOM     11  C   UNL     1       8.147  10.584  17.678  0.00  0.00    +0.000 C 
BRANCH  11  13
ATOM     12  O   UNL     1       8.921   8.778  19.037  0.00  0.00    +0.000 OA
ATOM     13  C   UNL     1       8.268   9.115  18.049  0.00  0.00    +0.000 C 
ATOM     14  N   UNL     1       7.660   8.244  17.156  0.00  0.00    +0.000 N 
ATOM     15  C   UNL     1       7.483   6.891  17.252  0.00  0.00    +0.000 C 
ATOM     16  N   UNL     1       7.207   6.215  16.190  0.00  0.00    +0.000 NA
ATOM     17  C   UNL     1       7.059   4.786  16.542  0.00  0.00    +0.000 C 
ATOM     18  C   UNL     1       7.730   4.492  17.878  0.00  0.00    +0.000 C 
ATOM     19  S   UNL     1       7.581   6.050  18.759  0.00  0.00    +0.000 S 
ATOM     20  H   UNL     1       7.398   8.601  16.254  0.00  0.00    +0.000 HD
ENDBRANCH  11  13
ENDBRANCH   1  11
BRANCH   8  21
ATOM     21  C   UNL     1       9.891  12.908  21.863  0.00  0.00    +0.000 C 
BRANCH  21  22
ATOM     22  C   UNL     1       8.897  14.005  22.201  0.00  0.00    +0.000 C 
ATOM     23  O   UNL     1       9.292  15.081  22.648  0.00  0.00    +0.000 OA
ATOM     24  N   UNL     1       7.566  13.673  22.021  0.00  0.00    +0.000 N 
ATOM     25  C   UNL     1       6.481  14.470  22.281  0.00  0.00    +0.000 C 
ATOM     26  N   UNL     1       5.327  13.928  22.481  0.00  0.00    +0.000 NA
ATOM     27  C   UNL     1       4.356  15.007  22.810  0.00  0.00    +0.000 C 
ATOM     28  C   UNL     1       5.096  16.226  23.341  0.00  0.00    +0.000 C 
ATOM     29  S   UNL     1       6.596  16.194  22.365  0.00  0.00    +0.000 S 
ATOM     30  H   UNL     1       7.329  12.698  21.907  0.00  0.00    +0.000 HD
ENDBRANCH  21  22
ENDBRANCH   8  21
TORSDOF 4
ENDMDL
