MODEL 1
REMARK VINA RESULT:      -7.9      0.000      0.000
REMARK  Name = 
REMARK  6 active torsions:
REMARK  status: ('A' for Active; 'I' for Inactive)
REMARK    1  A    between atoms: C_1  and  O_2
REMARK    2  A    between atoms: O_2  and  C_3
REMARK    3  A    between atoms: C_6  and  C_7
REMARK    4  A    between atoms: C_11  and  C_12
REMARK    5  A    between atoms: C_21  and  C_22
REMARK    6  A    between atoms: C_22  and  C_23
REMARK                            x       y       z     vdW  Elec       q    Type
REMARK                         _______ _______ _______ _____ _____    ______ ____
ROOT
ATOM      1  C   UNL     1       1.007  10.313  18.343  0.00  0.00    +0.000 C 
ATOM      2  O   UNL     1       1.995  11.341  18.497  0.00  0.00    +0.000 OA
ATOM      3  C   UNL     1       1.550  12.266  19.388  0.00  0.00    +0.000 C 
ATOM      4  O   UNL     1       2.187  13.232  19.774  0.00  0.00    +0.000 OA
ATOM      5  C   UNL     1       0.187  11.918  19.790  0.00  0.00    +0.000 C 
ATOM      6  C   UNL     1      -0.150  10.799  19.135  0.00  0.00    +0.000 C 
ENDROOT
BRANCH   5   7
ATOM      7  C   UNL     1      -0.702  12.678  20.651  0.00  0.00    +0.000 A 
ATOM      8  C   UNL     1      -1.469  13.726  20.097  0.00  0.00    +0.000 A 
ATOM      9  C   UNL     1      -2.594  14.209  20.768  0.00  0.00    +0.000 A 
ATOM     10  C   UNL     1      -2.927  13.596  21.956  0.00  0.00    +0.000 A 
ATOM     11  C   UNL     1      -2.130  12.633  22.533  0.00  0.00    +0.000 A 
ATOM     12  C   UNL     1      -0.982  12.181  21.930  0.00  0.00    +0.000 A 
ATOM     13  O   UNL     1      -2.696  12.097  23.650  0.00  0.00    +0.000 OA
ATOM     14  C   UNL     1      -4.041  12.586  23.482  0.00  0.00    +0.000 C 
ATOM     15  O   UNL     1      -4.099  13.754  22.635  0.00  0.00    +0.000 OA
ENDBRANCH   5   7
BRANCH   1  19
ATOM     16  C   UNL     1       2.477   6.429  19.582  0.00  0.00    +0.000 A 
ATOM     17  C   UNL     1       2.688   6.874  18.277  0.00  0.00    +0.000 A 
ATOM     18  C   UNL     1       2.285   8.154  17.885  0.00  0.00    +0.000 A 
ATOM     19  C   UNL     1       1.638   9.009  18.791  0.00  0.00    +0.000 A 
ATOM     20  C   UNL     1       1.467   8.567  20.112  0.00  0.00    +0.000 A 
ATOM     21  C   UNL     1       1.881   7.287  20.505  0.00  0.00    +0.000 A 
BRANCH  16  23
ATOM     22  C   UNL     1       2.263   4.499  20.946  0.00  0.00    +0.000 C 
ATOM     23  O   UNL     1       2.840   5.132  19.810  0.00  0.00    +0.000 OA
ENDBRANCH  16  23
ENDBRANCH   1  19
BRANCH   6  24
ATOM     24  C   UNL     1      -1.483  10.104  19.126  0.00  0.00    +0.000 C 
BRANCH  24  25
ATOM     25  C   UNL     1      -2.345  10.431  17.920  0.00  0.00    +0.000 A 
ATOM     26  C   UNL     1      -2.085   9.855  16.669  0.00  0.00    +0.000 A 
ATOM     27  C   UNL     1      -2.893  10.141  15.567  0.00  0.00    +0.000 A 
ATOM     28  C   UNL     1      -3.983  10.998  15.703  0.00  0.00    +0.000 A 
ATOM     29  C   UNL     1      -4.260  11.577  16.939  0.00  0.00    +0.000 A 
ATOM     30  C   UNL     1      -3.444  11.297  18.039  0.00  0.00    +0.000 A 
ENDBRANCH  24  25
ENDBRANCH   6  24
TORSDOF 5
ENDMDL
MODEL 2
REMARK VINA RESULT:      -7.9      0.614      1.085
REMARK  Name = 
REMARK  6 active torsions:
REMARK  status: ('A' for Active; 'I' for Inactive)
REMARK    1  A    between atoms: C_1  and  O_2
REMARK    2  A    between atoms: O_2  and  C_3
REMARK    3  A    between atoms: C_6  and  C_7
REMARK    4  A    between atoms: C_11  and  C_12
REMARK    5  A    between atoms: C_21  and  C_22
REMARK    6  A    between atoms: C_22  and  C_23
REMARK                            x       y       z     vdW  Elec       q    Type
REMARK                         _______ _______ _______ _____ _____    ______ ____
ROOT
ATOM      1  C   UNL     1       1.218  10.120  18.124  0.00  0.00    +0.000 C 
ATOM      2  O   UNL     1       2.200  11.163  18.192  0.00  0.00    +0.000 OA
ATOM      3  C   UNL     1       1.787  12.117  19.067  0.00  0.00    +0.000 C 
ATOM      4  O   UNL     1       2.430  13.104  19.386  0.00  0.00    +0.000 OA
ATOM      5  C   UNL     1       0.448  11.771  19.547  0.00  0.00    +0.000 C 
ATOM      6  C   UNL     1       0.094  10.624  18.951  0.00  0.00    +0.000 C 
ENDROOT
BRANCH   5   7
ATOM      7  C   UNL     1      -0.408  12.555  20.420  0.00  0.00    +0.000 A 
ATOM      8  C   UNL     1      -1.164  13.615  19.874  0.00  0.00    +0.000 A 
ATOM      9  C   UNL     1      -2.266  14.124  20.564  0.00  0.00    +0.000 A 
ATOM     10  C   UNL     1      -2.588  13.526  21.762  0.00  0.00    +0.000 A 
ATOM     11  C   UNL     1      -1.799  12.551  22.330  0.00  0.00    +0.000 A 
ATOM     12  C   UNL     1      -0.673  12.072  21.707  0.00  0.00    +0.000 A 
ATOM     13  O   UNL     1      -2.353  12.034  23.462  0.00  0.00    +0.000 OA
ATOM     14  C   UNL     1      -3.692  12.549  23.316  0.00  0.00    +0.000 C 
ATOM     15  O   UNL     1      -3.743  13.712  22.462  0.00  0.00    +0.000 OA
ENDBRANCH   5   7
BRANCH   1  19
ATOM     16  C   UNL     1       2.806   6.290  19.382  0.00  0.00    +0.000 A 
ATOM     17  C   UNL     1       3.102   6.787  18.114  0.00  0.00    +0.000 A 
ATOM     18  C   UNL     1       2.658   8.054  17.723  0.00  0.00    +0.000 A 
ATOM     19  C   UNL     1       1.885   8.841  18.591  0.00  0.00    +0.000 A 
ATOM     20  C   UNL     1       1.628   8.348  19.879  0.00  0.00    +0.000 A 
ATOM     21  C   UNL     1       2.083   7.082  20.272  0.00  0.00    +0.000 A 
BRANCH  16  23
ATOM     22  C   UNL     1       4.536   4.680  19.166  0.00  0.00    +0.000 C 
ATOM     23  O   UNL     1       3.225   5.008  19.607  0.00  0.00    +0.000 OA
ENDBRANCH  16  23
ENDBRANCH   1  19
BRANCH   6  24
ATOM     24  C   UNL     1      -1.229   9.917  19.032  0.00  0.00    +0.000 C 
BRANCH  24  25
ATOM     25  C   UNL     1      -2.205  10.299  17.934  0.00  0.00    +0.000 A 
ATOM     26  C   UNL     1      -3.284  11.155  18.194  0.00  0.00    +0.000 A 
ATOM     27  C   UNL     1      -4.169  11.521  17.176  0.00  0.00    +0.000 A 
ATOM     28  C   UNL     1      -3.978  11.048  15.880  0.00  0.00    +0.000 A 
ATOM     29  C   UNL     1      -2.908  10.200  15.602  0.00  0.00    +0.000 A 
ATOM     30  C   UNL     1      -2.030   9.826  16.623  0.00  0.00    +0.000 A 
ENDBRANCH  24  25
ENDBRANCH   6  24
TORSDOF 5
ENDMDL
MODEL 3
REMARK VINA RESULT:      -7.8      4.950     10.724
REMARK  Name = 
REMARK  6 active torsions:
REMARK  status: ('A' for Active; 'I' for Inactive)
REMARK    1  A    between atoms: C_1  and  O_2
REMARK    2  A    between atoms: O_2  and  C_3
REMARK    3  A    between atoms: C_6  and  C_7
REMARK    4  A    between atoms: C_11  and  C_12
REMARK    5  A    between atoms: C_21  and  C_22
REMARK    6  A    between atoms: C_22  and  C_23
REMARK                            x       y       z     vdW  Elec       q    Type
REMARK                         _______ _______ _______ _____ _____    ______ ____
ROOT
ATOM      1  C   UNL     1       4.930   5.408  18.025  0.00  0.00    +0.000 C 
ATOM      2  O   UNL     1       6.115   6.216  18.033  0.00  0.00    +0.000 OA
ATOM      3  C   UNL     1       6.650   6.247  16.784  0.00  0.00    +0.000 C 
ATOM      4  O   UNL     1       7.629   6.897  16.455  0.00  0.00    +0.000 OA
ATOM      5  C   UNL     1       5.868   5.367  15.913  0.00  0.00    +0.000 C 
ATOM      6  C   UNL     1       4.890   4.834  16.657  0.00  0.00    +0.000 C 
ENDROOT
BRANCH   5   7
ATOM      7  C   UNL     1       6.139   5.029  14.527  0.00  0.00    +0.000 A 
ATOM      8  C   UNL     1       7.430   5.255  14.002  0.00  0.00    +0.000 A 
ATOM      9  C   UNL     1       7.843   4.601  12.839  0.00  0.00    +0.000 A 
ATOM     10  C   UNL     1       6.955   3.719  12.265  0.00  0.00    +0.000 A 
ATOM     11  C   UNL     1       5.668   3.566  12.732  0.00  0.00    +0.000 A 
ATOM     12  C   UNL     1       5.210   4.242  13.836  0.00  0.00    +0.000 A 
ATOM     13  O   UNL     1       4.997   2.577  12.080  0.00  0.00    +0.000 OA
ATOM     14  C   UNL     1       6.113   1.937  11.428  0.00  0.00    +0.000 C 
ATOM     15  O   UNL     1       7.244   2.820  11.282  0.00  0.00    +0.000 OA
ENDBRANCH   5   7
BRANCH   1  19
ATOM     16  C   UNL     1       1.855   8.145  19.376  0.00  0.00    +0.000 A 
ATOM     17  C   UNL     1       2.467   8.337  18.137  0.00  0.00    +0.000 A 
ATOM     18  C   UNL     1       3.407   7.420  17.657  0.00  0.00    +0.000 A 
ATOM     19  C   UNL     1       3.771   6.301  18.422  0.00  0.00    +0.000 A 
ATOM     20  C   UNL     1       3.119   6.096  19.647  0.00  0.00    +0.000 A 
ATOM     21  C   UNL     1       2.169   7.012  20.123  0.00  0.00    +0.000 A 
BRANCH  16  23
ATOM     22  C   UNL     1       0.651   9.185  21.137  0.00  0.00    +0.000 C 
ATOM     23  O   UNL     1       1.021   9.156  19.764  0.00  0.00    +0.000 OA
ENDBRANCH  16  23
ENDBRANCH   1  19
BRANCH   6  24
ATOM     24  C   UNL     1       3.891   3.788  16.250  0.00  0.00    +0.000 C 
BRANCH  24  25
ATOM     25  C   UNL     1       3.064   3.240  17.398  0.00  0.00    +0.000 A 
ATOM     26  C   UNL     1       3.626   2.372  18.343  0.00  0.00    +0.000 A 
ATOM     27  C   UNL     1       2.867   1.886  19.411  0.00  0.00    +0.000 A 
ATOM     28  C   UNL     1       1.537   2.273  19.556  0.00  0.00    +0.000 A 
ATOM     29  C   UNL     1       0.962   3.139  18.629  0.00  0.00    +0.000 A 
ATOM     30  C   UNL     1       1.719   3.617  17.556  0.00  0.00    +0.000 A 
ENDBRANCH  24  25
ENDBRANCH   6  24
TORSDOF 5
ENDMDL
MODEL 4
REMARK VINA RESULT:      -7.8      1.031      1.059
REMARK  Name = 
REMARK  6 active torsions:
REMARK  status: ('A' for Active; 'I' for Inactive)
REMARK    1  A    between atoms: C_1  and  O_2
REMARK    2  A    between atoms: O_2  and  C_3
REMARK    3  A    between atoms: C_6  and  C_7
REMARK    4  A    between atoms: C_11  and  C_12
REMARK    5  A    between atoms: C_21  and  C_22
REMARK    6  A    between atoms: C_22  and  C_23
REMARK                            x       y       z     vdW  Elec       q    Type
REMARK                         _______ _______ _______ _____ _____    ______ ____
ROOT
ATOM      1  C   UNL     1       1.270  10.113  18.013  0.00  0.00    +0.000 C 
ATOM      2  O   UNL     1       2.359  11.021  17.800  0.00  0.00    +0.000 OA
ATOM      3  C   UNL     1       2.170  12.138  18.549  0.00  0.00    +0.000 C 
ATOM      4  O   UNL     1       2.952  13.072  18.629  0.00  0.00    +0.000 OA
ATOM      5  C   UNL     1       0.876  12.040  19.226  0.00  0.00    +0.000 C 
ATOM      6  C   UNL     1       0.325  10.872  18.868  0.00  0.00    +0.000 C 
ENDROOT
BRANCH   5   7
ATOM      7  C   UNL     1       0.231  13.046  20.051  0.00  0.00    +0.000 A 
ATOM      8  C   UNL     1      -0.732  13.900  19.471  0.00  0.00    +0.000 A 
ATOM      9  C   UNL     1      -1.639  14.591  20.276  0.00  0.00    +0.000 A 
ATOM     10  C   UNL     1      -1.568  14.372  21.633  0.00  0.00    +0.000 A 
ATOM     11  C   UNL     1      -0.575  13.605  22.201  0.00  0.00    +0.000 A 
ATOM     12  C   UNL     1       0.372  12.962  21.442  0.00  0.00    +0.000 A 
ATOM     13  O   UNL     1      -0.751  13.443  23.542  0.00  0.00    +0.000 OA
ATOM     14  C   UNL     1      -2.116  13.895  23.648  0.00  0.00    +0.000 C 
ATOM     15  O   UNL     1      -2.496  14.756  22.555  0.00  0.00    +0.000 OA
ENDBRANCH   5   7
BRANCH   1  19
ATOM     16  C   UNL     1       2.601   6.319  19.630  0.00  0.00    +0.000 A 
ATOM     17  C   UNL     1       2.951   6.688  18.332  0.00  0.00    +0.000 A 
ATOM     18  C   UNL     1       2.592   7.940  17.824  0.00  0.00    +0.000 A 
ATOM     19  C   UNL     1       1.850   8.842  18.602  0.00  0.00    +0.000 A 
ATOM     20  C   UNL     1       1.539   8.478  19.921  0.00  0.00    +0.000 A 
ATOM     21  C   UNL     1       1.909   7.225  20.432  0.00  0.00    +0.000 A 
BRANCH  16  23
ATOM     22  C   UNL     1       2.208   4.454  21.044  0.00  0.00    +0.000 C 
ATOM     23  O   UNL     1       2.938   5.040  19.973  0.00  0.00    +0.000 OA
ENDBRANCH  16  23
ENDBRANCH   1  19
BRANCH   6  24
ATOM     24  C   UNL     1      -1.045  10.358  19.211  0.00  0.00    +0.000 C 
BRANCH  24  25
ATOM     25  C   UNL     1      -2.075  10.560  18.115  0.00  0.00    +0.000 A 
ATOM     26  C   UNL     1      -1.990   9.857  16.905  0.00  0.00    +0.000 A 
ATOM     27  C   UNL     1      -2.952  10.029  15.907  0.00  0.00    +0.000 A 
ATOM     28  C   UNL     1      -4.022  10.897  16.110  0.00  0.00    +0.000 A 
ATOM     29  C   UNL     1      -4.127  11.600  17.308  0.00  0.00    +0.000 A 
ATOM     30  C   UNL     1      -3.158  11.435  18.302  0.00  0.00    +0.000 A 
ENDBRANCH  24  25
ENDBRANCH   6  24
TORSDOF 5
ENDMDL
MODEL 5
REMARK VINA RESULT:      -7.7      0.838      1.249
REMARK  Name = 
REMARK  6 active torsions:
REMARK  status: ('A' for Active; 'I' for Inactive)
REMARK    1  A    between atoms: C_1  and  O_2
REMARK    2  A    between atoms: O_2  and  C_3
REMARK    3  A    between atoms: C_6  and  C_7
REMARK    4  A    between atoms: C_11  and  C_12
REMARK    5  A    between atoms: C_21  and  C_22
REMARK    6  A    between atoms: C_22  and  C_23
REMARK                            x       y       z     vdW  Elec       q    Type
REMARK                         _______ _______ _______ _____ _____    ______ ____
ROOT
ATOM      1  C   UNL     1       1.207   9.985  17.922  0.00  0.00    +0.000 C 
ATOM      2  O   UNL     1       2.230  10.987  18.000  0.00  0.00    +0.000 OA
ATOM      3  C   UNL     1       1.876  11.925  18.916  0.00  0.00    +0.000 C 
ATOM      4  O   UNL     1       2.564  12.876  19.251  0.00  0.00    +0.000 OA
ATOM      5  C   UNL     1       0.536  11.615  19.417  0.00  0.00    +0.000 C 
ATOM      6  C   UNL     1       0.123  10.503  18.793  0.00  0.00    +0.000 C 
ENDROOT
BRANCH   5   7
ATOM      7  C   UNL     1      -0.267  12.400  20.337  0.00  0.00    +0.000 A 
ATOM      8  C   UNL     1      -1.019  13.488  19.841  0.00  0.00    +0.000 A 
ATOM      9  C   UNL     1      -2.081  14.008  20.582  0.00  0.00    +0.000 A 
ATOM     10  C   UNL     1      -2.371  13.395  21.780  0.00  0.00    +0.000 A 
ATOM     11  C   UNL     1      -1.584  12.390  22.299  0.00  0.00    +0.000 A 
ATOM     12  C   UNL     1      -0.494  11.898  21.624  0.00  0.00    +0.000 A 
ATOM     13  O   UNL     1      -2.107  11.864  23.441  0.00  0.00    +0.000 OA
ATOM     14  C   UNL     1      -3.437  12.412  23.357  0.00  0.00    +0.000 C 
ATOM     15  O   UNL     1      -3.494  13.592  22.528  0.00  0.00    +0.000 OA
ENDBRANCH   5   7
BRANCH   1  19
ATOM     16  C   UNL     1       3.303   6.406  19.175  0.00  0.00    +0.000 A 
ATOM     17  C   UNL     1       2.381   7.012  20.028  0.00  0.00    +0.000 A 
ATOM     18  C   UNL     1       1.644   8.123  19.609  0.00  0.00    +0.000 A 
ATOM     19  C   UNL     1       1.834   8.666  18.328  0.00  0.00    +0.000 A 
ATOM     20  C   UNL     1       2.733   8.024  17.464  0.00  0.00    +0.000 A 
ATOM     21  C   UNL     1       3.465   6.903  17.883  0.00  0.00    +0.000 A 
BRANCH  16  23
ATOM     22  C   UNL     1       5.321   5.159  19.218  0.00  0.00    +0.000 C 
ATOM     23  O   UNL     1       4.017   5.384  19.736  0.00  0.00    +0.000 OA
ENDBRANCH  16  23
ENDBRANCH   1  19
BRANCH   6  24
ATOM     24  C   UNL     1      -1.224   9.845  18.883  0.00  0.00    +0.000 C 
BRANCH  24  25
ATOM     25  C   UNL     1      -2.213  10.307  17.829  0.00  0.00    +0.000 A 
ATOM     26  C   UNL     1      -2.104   9.878  16.499  0.00  0.00    +0.000 A 
ATOM     27  C   UNL     1      -3.028  10.289  15.536  0.00  0.00    +0.000 A 
ATOM     28  C   UNL     1      -4.084  11.124  15.892  0.00  0.00    +0.000 A 
ATOM     29  C   UNL     1      -4.212  11.557  17.209  0.00  0.00    +0.000 A 
ATOM     30  C   UNL     1      -3.281  11.154  18.171  0.00  0.00    +0.000 A 
ENDBRANCH  24  25
ENDBRANCH   6  24
TORSDOF 5
ENDMDL
MODEL 6
REMARK VINA RESULT:      -7.7      0.987      1.758
REMARK  Name = 
REMARK  6 active torsions:
REMARK  status: ('A' for Active; 'I' for Inactive)
REMARK    1  A    between atoms: C_1  and  O_2
REMARK    2  A    between atoms: O_2  and  C_3
REMARK    3  A    between atoms: C_6  and  C_7
REMARK    4  A    between atoms: C_11  and  C_12
REMARK    5  A    between atoms: C_21  and  C_22
REMARK    6  A    between atoms: C_22  and  C_23
REMARK                            x       y       z     vdW  Elec       q    Type
REMARK                         _______ _______ _______ _____ _____    ______ ____
ROOT
ATOM      1  C   UNL     1       0.724  10.524  18.540  0.00  0.00    +0.000 C 
ATOM      2  O   UNL     1       1.521  11.624  18.998  0.00  0.00    +0.000 OA
ATOM      3  C   UNL     1       0.859  12.283  19.984  0.00  0.00    +0.000 C 
ATOM      4  O   UNL     1       1.299  13.230  20.616  0.00  0.00    +0.000 OA
ATOM      5  C   UNL     1      -0.465  11.680  20.149  0.00  0.00    +0.000 C 
ATOM      6  C   UNL     1      -0.562  10.680  19.263  0.00  0.00    +0.000 C 
ENDROOT
BRANCH   5   7
ATOM      7  C   UNL     1      -1.536  12.126  21.023  0.00  0.00    +0.000 A 
ATOM      8  C   UNL     1      -1.555  11.692  22.366  0.00  0.00    +0.000 A 
ATOM      9  C   UNL     1      -2.305  12.382  23.321  0.00  0.00    +0.000 A 
ATOM     10  C   UNL     1      -2.982  13.504  22.896  0.00  0.00    +0.000 A 
ATOM     11  C   UNL     1      -3.028  13.875  21.571  0.00  0.00    +0.000 A 
ATOM     12  C   UNL     1      -2.352  13.181  20.597  0.00  0.00    +0.000 A 
ATOM     13  O   UNL     1      -3.668  15.063  21.390  0.00  0.00    +0.000 OA
ATOM     14  C   UNL     1      -3.690  15.520  22.757  0.00  0.00    +0.000 C 
ATOM     15  O   UNL     1      -3.567  14.436  23.701  0.00  0.00    +0.000 OA
ENDBRANCH   5   7
BRANCH   1  19
ATOM     16  C   UNL     1       2.647   6.708  19.260  0.00  0.00    +0.000 A 
ATOM     17  C   UNL     1       2.771   7.331  18.018  0.00  0.00    +0.000 A 
ATOM     18  C   UNL     1       2.219   8.596  17.796  0.00  0.00    +0.000 A 
ATOM     19  C   UNL     1       1.507   9.254  18.811  0.00  0.00    +0.000 A 
ATOM     20  C   UNL     1       1.423   8.636  20.068  0.00  0.00    +0.000 A 
ATOM     21  C   UNL     1       1.986   7.372  20.292  0.00  0.00    +0.000 A 
BRANCH  16  23
ATOM     22  C   UNL     1       4.573   5.325  19.336  0.00  0.00    +0.000 C 
ATOM     23  O   UNL     1       3.156   5.441  19.318  0.00  0.00    +0.000 OA
ENDBRANCH  16  23
ENDBRANCH   1  19
BRANCH   6  24
ATOM     24  C   UNL     1      -1.764   9.828  18.967  0.00  0.00    +0.000 C 
BRANCH  24  25
ATOM     25  C   UNL     1      -2.538  10.255  17.733  0.00  0.00    +0.000 A 
ATOM     26  C   UNL     1      -3.647  11.105  17.835  0.00  0.00    +0.000 A 
ATOM     27  C   UNL     1      -4.345  11.512  16.696  0.00  0.00    +0.000 A 
ATOM     28  C   UNL     1      -3.934  11.087  15.435  0.00  0.00    +0.000 A 
ATOM     29  C   UNL     1      -2.831  10.245  15.313  0.00  0.00    +0.000 A 
ATOM     30  C   UNL     1      -2.139   9.830  16.455  0.00  0.00    +0.000 A 
ENDBRANCH  24  25
ENDBRANCH   6  24
TORSDOF 5
ENDMDL
MODEL 7
REMARK VINA RESULT:      -7.6      1.982      2.426
REMARK  Name = 
REMARK  6 active torsions:
REMARK  status: ('A' for Active; 'I' for Inactive)
REMARK    1  A    between atoms: C_1  and  O_2
REMARK    2  A    between atoms: O_2  and  C_3
REMARK    3  A    between atoms: C_6  and  C_7
REMARK    4  A    between atoms: C_11  and  C_12
REMARK    5  A    between atoms: C_21  and  C_22
REMARK    6  A    between atoms: C_22  and  C_23
REMARK                            x       y       z     vdW  Elec       q    Type
REMARK                         _______ _______ _______ _____ _____    ______ ____
ROOT
ATOM      1  C   UNL     1       1.347   9.826  17.870  0.00  0.00    +0.000 C 
ATOM      2  O   UNL     1       2.431  10.728  17.612  0.00  0.00    +0.000 OA
ATOM      3  C   UNL     1       2.220  11.893  18.279  0.00  0.00    +0.000 C 
ATOM      4  O   UNL     1       2.992  12.837  18.307  0.00  0.00    +0.000 OA
ATOM      5  C   UNL     1       0.916  11.828  18.941  0.00  0.00    +0.000 C 
ATOM      6  C   UNL     1       0.381  10.633  18.656  0.00  0.00    +0.000 C 
ENDROOT
BRANCH   5   7
ATOM      7  C   UNL     1       0.250  12.882  19.685  0.00  0.00    +0.000 A 
ATOM      8  C   UNL     1       0.451  12.977  21.079  0.00  0.00    +0.000 A 
ATOM      9  C   UNL     1       0.168  14.165  21.755  0.00  0.00    +0.000 A 
ATOM     10  C   UNL     1      -0.276  15.227  20.998  0.00  0.00    +0.000 A 
ATOM     11  C   UNL     1      -0.551  15.106  19.654  0.00  0.00    +0.000 A 
ATOM     12  C   UNL     1      -0.343  13.932  18.972  0.00  0.00    +0.000 A 
ATOM     13  O   UNL     1      -0.884  16.298  19.087  0.00  0.00    +0.000 OA
ATOM     14  C   UNL     1      -0.447  17.181  20.138  0.00  0.00    +0.000 C 
ATOM     15  O   UNL     1      -0.380  16.520  21.419  0.00  0.00    +0.000 OA
ENDBRANCH   5   7
BRANCH   1  19
ATOM     16  C   UNL     1       2.693   6.160  19.748  0.00  0.00    +0.000 A 
ATOM     17  C   UNL     1       3.112   6.480  18.457  0.00  0.00    +0.000 A 
ATOM     18  C   UNL     1       2.746   7.693  17.868  0.00  0.00    +0.000 A 
ATOM     19  C   UNL     1       1.929   8.605  18.555  0.00  0.00    +0.000 A 
ATOM     20  C   UNL     1       1.547   8.291  19.868  0.00  0.00    +0.000 A 
ATOM     21  C   UNL     1       1.924   7.078  20.461  0.00  0.00    +0.000 A 
BRANCH  16  23
ATOM     22  C   UNL     1       2.195   4.296  21.129  0.00  0.00    +0.000 C 
ATOM     23  O   UNL     1       3.048   4.910  20.172  0.00  0.00    +0.000 OA
ENDBRANCH  16  23
ENDBRANCH   1  19
BRANCH   6  24
ATOM     24  C   UNL     1      -0.989  10.130  19.013  0.00  0.00    +0.000 C 
BRANCH  24  25
ATOM     25  C   UNL     1      -2.053  10.444  17.977  0.00  0.00    +0.000 A 
ATOM     26  C   UNL     1      -2.046   9.820  16.722  0.00  0.00    +0.000 A 
ATOM     27  C   UNL     1      -3.040  10.096  15.780  0.00  0.00    +0.000 A 
ATOM     28  C   UNL     1      -4.064  10.988  16.084  0.00  0.00    +0.000 A 
ATOM     29  C   UNL     1      -4.091  11.614  17.328  0.00  0.00    +0.000 A 
ATOM     30  C   UNL     1      -3.091  11.346  18.267  0.00  0.00    +0.000 A 
ENDBRANCH  24  25
ENDBRANCH   6  24
TORSDOF 5
ENDMDL
MODEL 8
REMARK VINA RESULT:      -7.5      0.624      1.385
REMARK  Name = 
REMARK  6 active torsions:
REMARK  status: ('A' for Active; 'I' for Inactive)
REMARK    1  A    between atoms: C_1  and  O_2
REMARK    2  A    between atoms: O_2  and  C_3
REMARK    3  A    between atoms: C_6  and  C_7
REMARK    4  A    between atoms: C_11  and  C_12
REMARK    5  A    between atoms: C_21  and  C_22
REMARK    6  A    between atoms: C_22  and  C_23
REMARK                            x       y       z     vdW  Elec       q    Type
REMARK                         _______ _______ _______ _____ _____    ______ ____
ROOT
ATOM      1  C   UNL     1       0.691  10.560  18.470  0.00  0.00    +0.000 C 
ATOM      2  O   UNL     1       1.716  11.537  18.699  0.00  0.00    +0.000 OA
ATOM      3  C   UNL     1       1.324  12.381  19.689  0.00  0.00    +0.000 C 
ATOM      4  O   UNL     1       2.001  13.284  20.152  0.00  0.00    +0.000 OA
ATOM      5  C   UNL     1      -0.041  12.037  20.090  0.00  0.00    +0.000 C 
ATOM      6  C   UNL     1      -0.430  11.000  19.337  0.00  0.00    +0.000 C 
ENDROOT
BRANCH   5   7
ATOM      7  C   UNL     1      -0.883  12.734  21.046  0.00  0.00    +0.000 A 
ATOM      8  C   UNL     1      -1.458  13.972  20.684  0.00  0.00    +0.000 A 
ATOM      9  C   UNL     1      -2.557  14.473  21.385  0.00  0.00    +0.000 A 
ATOM     10  C   UNL     1      -3.060  13.693  22.403  0.00  0.00    +0.000 A 
ATOM     11  C   UNL     1      -2.446  12.528  22.807  0.00  0.00    +0.000 A 
ATOM     12  C   UNL     1      -1.326  12.041  22.179  0.00  0.00    +0.000 A 
ATOM     13  O   UNL     1      -3.162  11.872  23.761  0.00  0.00    +0.000 OA
ATOM     14  C   UNL     1      -4.413  12.577  23.632  0.00  0.00    +0.000 C 
ATOM     15  O   UNL     1      -4.248  13.884  23.043  0.00  0.00    +0.000 OA
ENDBRANCH   5   7
BRANCH   1  19
ATOM     16  C   UNL     1       2.719   6.843  19.392  0.00  0.00    +0.000 A 
ATOM     17  C   UNL     1       1.919   7.461  20.353  0.00  0.00    +0.000 A 
ATOM     18  C   UNL     1       1.200   8.619  20.045  0.00  0.00    +0.000 A 
ATOM     19  C   UNL     1       1.289   9.199  18.769  0.00  0.00    +0.000 A 
ATOM     20  C   UNL     1       2.064   8.547  17.799  0.00  0.00    +0.000 A 
ATOM     21  C   UNL     1       2.776   7.379  18.107  0.00  0.00    +0.000 A 
BRANCH  16  23
ATOM     22  C   UNL     1       3.645   4.710  18.922  0.00  0.00    +0.000 C 
ATOM     23  O   UNL     1       3.433   5.770  19.845  0.00  0.00    +0.000 OA
ENDBRANCH  16  23
ENDBRANCH   1  19
BRANCH   6  24
ATOM     24  C   UNL     1      -1.785  10.351  19.294  0.00  0.00    +0.000 C 
BRANCH  24  25
ATOM     25  C   UNL     1      -2.514  10.524  17.974  0.00  0.00    +0.000 A 
ATOM     26  C   UNL     1      -3.673  11.306  17.887  0.00  0.00    +0.000 A 
ATOM     27  C   UNL     1      -4.330  11.480  16.666  0.00  0.00    +0.000 A 
ATOM     28  C   UNL     1      -3.829  10.885  15.511  0.00  0.00    +0.000 A 
ATOM     29  C   UNL     1      -2.675  10.107  15.577  0.00  0.00    +0.000 A 
ATOM     30  C   UNL     1      -2.024   9.926  16.801  0.00  0.00    +0.000 A 
ENDBRANCH  24  25
ENDBRANCH   6  24
TORSDOF 5
ENDMDL
MODEL 9
REMARK VINA RESULT:      -7.5      4.966     10.788
REMARK  Name = 
REMARK  6 active torsions:
REMARK  status: ('A' for Active; 'I' for Inactive)
REMARK    1  A    between atoms: C_1  and  O_2
REMARK    2  A    between atoms: O_2  and  C_3
REMARK    3  A    between atoms: C_6  and  C_7
REMARK    4  A    between atoms: C_11  and  C_12
REMARK    5  A    between atoms: C_21  and  C_22
REMARK    6  A    between atoms: C_22  and  C_23
REMARK                            x       y       z     vdW  Elec       q    Type
REMARK                         _______ _______ _______ _____ _____    ______ ____
ROOT
ATOM      1  C   UNL     1       4.948   5.476  18.007  0.00  0.00    +0.000 C 
ATOM      2  O   UNL     1       6.239   6.098  18.054  0.00  0.00    +0.000 OA
ATOM      3  C   UNL     1       6.793   6.086  16.814  0.00  0.00    +0.000 C 
ATOM      4  O   UNL     1       7.863   6.592  16.517  0.00  0.00    +0.000 OA
ATOM      5  C   UNL     1       5.904   5.359  15.906  0.00  0.00    +0.000 C 
ATOM      6  C   UNL     1       4.845   4.956  16.621  0.00  0.00    +0.000 C 
ENDROOT
BRANCH   5   7
ATOM      7  C   UNL     1       6.144   5.026  14.513  0.00  0.00    +0.000 A 
ATOM      8  C   UNL     1       7.403   5.314  13.942  0.00  0.00    +0.000 A 
ATOM      9  C   UNL     1       7.809   4.675  12.769  0.00  0.00    +0.000 A 
ATOM     10  C   UNL     1       6.948   3.744  12.231  0.00  0.00    +0.000 A 
ATOM     11  C   UNL     1       5.687   3.528  12.743  0.00  0.00    +0.000 A 
ATOM     12  C   UNL     1       5.233   4.187  13.859  0.00  0.00    +0.000 A 
ATOM     13  O   UNL     1       5.047   2.502  12.119  0.00  0.00    +0.000 OA
ATOM     14  C   UNL     1       6.170   1.915  11.432  0.00  0.00    +0.000 C 
ATOM     15  O   UNL     1       7.249   2.855  11.243  0.00  0.00    +0.000 OA
ENDBRANCH   5   7
BRANCH   1  19
ATOM     16  C   UNL     1       1.788   8.280  18.974  0.00  0.00    +0.000 A 
ATOM     17  C   UNL     1       2.118   7.261  19.867  0.00  0.00    +0.000 A 
ATOM     18  C   UNL     1       3.184   6.396  19.602  0.00  0.00    +0.000 A 
ATOM     19  C   UNL     1       3.928   6.520  18.419  0.00  0.00    +0.000 A 
ATOM     20  C   UNL     1       3.615   7.573  17.546  0.00  0.00    +0.000 A 
ATOM     21  C   UNL     1       2.552   8.446  17.819  0.00  0.00    +0.000 A 
BRANCH  16  23
ATOM     22  C   UNL     1       0.437  10.187  18.567  0.00  0.00    +0.000 C 
ATOM     23  O   UNL     1       0.676   8.999  19.310  0.00  0.00    +0.000 OA
ENDBRANCH  16  23
ENDBRANCH   1  19
BRANCH   6  24
ATOM     24  C   UNL     1       3.709   4.084  16.169  0.00  0.00    +0.000 C 
BRANCH  24  25
ATOM     25  C   UNL     1       2.979   3.379  17.299  0.00  0.00    +0.000 A 
ATOM     26  C   UNL     1       3.574   2.314  17.988  0.00  0.00    +0.000 A 
ATOM     27  C   UNL     1       2.908   1.682  19.041  0.00  0.00    +0.000 A 
ATOM     28  C   UNL     1       1.643   2.117  19.430  0.00  0.00    +0.000 A 
ATOM     29  C   UNL     1       1.039   3.177  18.760  0.00  0.00    +0.000 A 
ATOM     30  C   UNL     1       1.701   3.803  17.700  0.00  0.00    +0.000 A 
ENDBRANCH  24  25
ENDBRANCH   6  24
TORSDOF 5
ENDMDL
