MODEL 1
REMARK VINA RESULT:      -6.4      0.000      0.000
REMARK  Name = 
REMARK  4 active torsions:
REMARK  status: ('A' for Active; 'I' for Inactive)
REMARK    1  A    between atoms: C_1  and  C_2
REMARK    2  A    between atoms: C_4  and  O_5
REMARK    3  A    between atoms: C_7  and  O_8
REMARK    4  A    between atoms: C_9  and  N_10
REMARK                            x       y       z     vdW  Elec       q    Type
REMARK                         _______ _______ _______ _____ _____    ______ ____
ROOT
ATOM      1  C   UNL     1       2.577   6.361  18.208  0.00  0.00    +0.000 C 
ATOM      2  C   UNL     1       2.782   5.006  18.828  0.00  0.00    +0.000 A 
ATOM      3  N   UNL     1       1.687   4.520  19.466  0.00  0.00    +0.000 NA
ATOM      4  C   UNL     1       1.864   3.388  20.143  0.00  0.00    +0.000 A 
ATOM      5  N   UNL     1       2.980   2.684  20.267  0.00  0.00    +0.000 NA
ATOM      6  C   UNL     1       4.023   3.199  19.601  0.00  0.00    +0.000 A 
ATOM      7  C   UNL     1       4.031   4.360  18.821  0.00  0.00    +0.000 A 
ENDROOT
BRANCH   7   8
ATOM      8  N   UNL     1       5.135   4.900  18.162  0.00  0.00    +0.000 N 
ATOM      9  C   UNL     1       6.330   5.315  18.924  0.00  0.00    +0.000 C 
ATOM     10  C   UNL     1       7.155   6.284  18.047  0.00  0.00    +0.000 C 
ATOM     11  O   UNL     1       7.494   5.711  16.768  0.00  0.00    +0.000 OA
ATOM     12  C   UNL     1       6.313   5.273  16.073  0.00  0.00    +0.000 C 
ATOM     13  C   UNL     1       5.550   4.232  16.908  0.00  0.00    +0.000 C 
ENDBRANCH   7   8
BRANCH   4  14
ATOM     14  O   UNL     1       0.755   2.937  20.782  0.00  0.00    +0.000 OA
ATOM     15  H   UNL     1       0.825   3.471  21.590  0.00  0.00    +0.000 HD
ENDBRANCH   4  14
BRANCH   6  16
ATOM     16  O   UNL     1       5.131   2.425  19.762  0.00  0.00    +0.000 OA
ATOM     17  H   UNL     1       4.705   1.589  20.029  0.00  0.00    +0.000 HD
ENDBRANCH   6  16
TORSDOF 3
ENDMDL
MODEL 2
REMARK VINA RESULT:      -6.3      0.556      1.354
REMARK  Name = 
REMARK  4 active torsions:
REMARK  status: ('A' for Active; 'I' for Inactive)
REMARK    1  A    between atoms: C_1  and  C_2
REMARK    2  A    between atoms: C_4  and  O_5
REMARK    3  A    between atoms: C_7  and  O_8
REMARK    4  A    between atoms: C_9  and  N_10
REMARK                            x       y       z     vdW  Elec       q    Type
REMARK                         _______ _______ _______ _____ _____    ______ ____
ROOT
ATOM      1  C   UNL     1       2.905   5.957  18.111  0.00  0.00    +0.000 C 
ATOM      2  C   UNL     1       2.988   4.645  18.841  0.00  0.00    +0.000 A 
ATOM      3  N   UNL     1       1.859   4.318  19.519  0.00  0.00    +0.000 NA
ATOM      4  C   UNL     1       1.936   3.233  20.287  0.00  0.00    +0.000 A 
ATOM      5  N   UNL     1       2.982   2.440  20.466  0.00  0.00    +0.000 NA
ATOM      6  C   UNL     1       4.062   2.798  19.757  0.00  0.00    +0.000 A 
ATOM      7  C   UNL     1       4.171   3.886  18.884  0.00  0.00    +0.000 A 
ENDROOT
BRANCH   7   8
ATOM      8  N   UNL     1       5.314   4.263  18.181  0.00  0.00    +0.000 N 
ATOM      9  C   UNL     1       5.267   4.429  16.713  0.00  0.00    +0.000 C 
ATOM     10  C   UNL     1       6.712   4.368  16.170  0.00  0.00    +0.000 C 
ATOM     11  O   UNL     1       7.576   5.334  16.801  0.00  0.00    +0.000 OA
ATOM     12  C   UNL     1       7.562   5.178  18.232  0.00  0.00    +0.000 C 
ATOM     13  C   UNL     1       6.134   5.340  18.778  0.00  0.00    +0.000 C 
ENDBRANCH   7   8
BRANCH   4  14
ATOM     14  O   UNL     1       0.796   2.943  20.963  0.00  0.00    +0.000 OA
ATOM     15  H   UNL     1       0.552   2.128  20.495  0.00  0.00    +0.000 HD
ENDBRANCH   4  14
BRANCH   6  16
ATOM     16  O   UNL     1       5.094   1.939  19.980  0.00  0.00    +0.000 OA
ATOM     17  H   UNL     1       4.723   1.434  20.727  0.00  0.00    +0.000 HD
ENDBRANCH   6  16
TORSDOF 3
ENDMDL
MODEL 3
REMARK VINA RESULT:      -6.2      1.307      1.307
REMARK  Name = 
REMARK  4 active torsions:
REMARK  status: ('A' for Active; 'I' for Inactive)
REMARK    1  A    between atoms: C_1  and  C_2
REMARK    2  A    between atoms: C_4  and  O_5
REMARK    3  A    between atoms: C_7  and  O_8
REMARK    4  A    between atoms: C_9  and  N_10
REMARK                            x       y       z     vdW  Elec       q    Type
REMARK                         _______ _______ _______ _____ _____    ______ ____
ROOT
ATOM      1  C   UNL     1       2.763   6.227  18.143  0.00  0.00    +0.000 C 
ATOM      2  C   UNL     1       2.620   4.730  18.156  0.00  0.00    +0.000 A 
ATOM      3  N   UNL     1       1.415   4.294  18.603  0.00  0.00    +0.000 NA
ATOM      4  C   UNL     1       1.294   2.978  18.759  0.00  0.00    +0.000 A 
ATOM      5  N   UNL     1       2.208   2.048  18.530  0.00  0.00    +0.000 NA
ATOM      6  C   UNL     1       3.371   2.532  18.071  0.00  0.00    +0.000 A 
ATOM      7  C   UNL     1       3.684   3.873  17.823  0.00  0.00    +0.000 A 
ENDROOT
BRANCH   7   8
ATOM      8  N   UNL     1       4.911   4.362  17.378  0.00  0.00    +0.000 N 
ATOM      9  C   UNL     1       6.062   4.443  18.301  0.00  0.00    +0.000 C 
ATOM     10  C   UNL     1       7.092   5.431  17.708  0.00  0.00    +0.000 C 
ATOM     11  O   UNL     1       7.490   5.071  16.370  0.00  0.00    +0.000 OA
ATOM     12  C   UNL     1       6.343   4.952  15.509  0.00  0.00    +0.000 C 
ATOM     13  C   UNL     1       5.369   3.893  16.050  0.00  0.00    +0.000 C 
ENDBRANCH   7   8
BRANCH   4  14
ATOM     14  O   UNL     1       0.082   2.578  19.222  0.00  0.00    +0.000 OA
ATOM     15  H   UNL     1      -0.444   3.341  18.934  0.00  0.00    +0.000 HD
ENDBRANCH   4  14
BRANCH   6  16
ATOM     16  O   UNL     1       4.261   1.526  17.849  0.00  0.00    +0.000 OA
ATOM     17  H   UNL     1       4.310   1.154  18.749  0.00  0.00    +0.000 HD
ENDBRANCH   6  16
TORSDOF 3
ENDMDL
MODEL 4
REMARK VINA RESULT:      -6.2      1.242      1.730
REMARK  Name = 
REMARK  4 active torsions:
REMARK  status: ('A' for Active; 'I' for Inactive)
REMARK    1  A    between atoms: C_1  and  C_2
REMARK    2  A    between atoms: C_4  and  O_5
REMARK    3  A    between atoms: C_7  and  O_8
REMARK    4  A    between atoms: C_9  and  N_10
REMARK                            x       y       z     vdW  Elec       q    Type
REMARK                         _______ _______ _______ _____ _____    ______ ____
ROOT
ATOM      1  C   UNL     1       3.273   6.185  18.172  0.00  0.00    +0.000 C 
ATOM      2  C   UNL     1       2.970   4.723  18.349  0.00  0.00    +0.000 A 
ATOM      3  N   UNL     1       1.795   4.475  18.981  0.00  0.00    +0.000 NA
ATOM      4  C   UNL     1       1.553   3.201  19.279  0.00  0.00    +0.000 A 
ATOM      5  N   UNL     1       2.321   2.151  19.030  0.00  0.00    +0.000 NA
ATOM      6  C   UNL     1       3.458   2.451  18.387  0.00  0.00    +0.000 A 
ATOM      7  C   UNL     1       3.880   3.719  17.972  0.00  0.00    +0.000 A 
ENDROOT
BRANCH   7   8
ATOM      8  N   UNL     1       5.082   4.017  17.333  0.00  0.00    +0.000 N 
ATOM      9  C   UNL     1       5.090   4.449  15.921  0.00  0.00    +0.000 C 
ATOM     10  C   UNL     1       6.513   4.243  15.356  0.00  0.00    +0.000 C 
ATOM     11  O   UNL     1       7.517   4.919  16.140  0.00  0.00    +0.000 OA
ATOM     12  C   UNL     1       7.451   4.513  17.519  0.00  0.00    +0.000 C 
ATOM     13  C   UNL     1       6.062   4.814  18.104  0.00  0.00    +0.000 C 
ENDBRANCH   7   8
BRANCH   4  14
ATOM     14  O   UNL     1       0.378   2.989  19.925  0.00  0.00    +0.000 OA
ATOM     15  H   UNL     1       0.123   3.915  20.070  0.00  0.00    +0.000 HD
ENDBRANCH   4  14
BRANCH   6  16
ATOM     16  O   UNL     1       4.194   1.330  18.156  0.00  0.00    +0.000 OA
ATOM     17  H   UNL     1       4.884   1.448  18.835  0.00  0.00    +0.000 HD
ENDBRANCH   6  16
TORSDOF 3
ENDMDL
MODEL 5
REMARK VINA RESULT:      -6.0      1.586      2.352
REMARK  Name = 
REMARK  4 active torsions:
REMARK  status: ('A' for Active; 'I' for Inactive)
REMARK    1  A    between atoms: C_1  and  C_2
REMARK    2  A    between atoms: C_4  and  O_5
REMARK    3  A    between atoms: C_7  and  O_8
REMARK    4  A    between atoms: C_9  and  N_10
REMARK                            x       y       z     vdW  Elec       q    Type
REMARK                         _______ _______ _______ _____ _____    ______ ____
ROOT
ATOM      1  C   UNL     1       3.614   1.804  17.968  0.00  0.00    +0.000 C 
ATOM      2  C   UNL     1       3.195   2.803  19.011  0.00  0.00    +0.000 A 
ATOM      3  N   UNL     1       2.253   2.341  19.872  0.00  0.00    +0.000 NA
ATOM      4  C   UNL     1       1.757   3.233  20.724  0.00  0.00    +0.000 A 
ATOM      5  N   UNL     1       2.074   4.515  20.831  0.00  0.00    +0.000 NA
ATOM      6  C   UNL     1       3.023   4.913  19.972  0.00  0.00    +0.000 A 
ATOM      7  C   UNL     1       3.677   4.124  19.019  0.00  0.00    +0.000 A 
ENDROOT
BRANCH   7   8
ATOM      8  N   UNL     1       4.639   4.563  18.110  0.00  0.00    +0.000 N 
ATOM      9  C   UNL     1       4.303   5.594  17.108  0.00  0.00    +0.000 C 
ATOM     10  C   UNL     1       5.351   5.532  15.974  0.00  0.00    +0.000 C 
ATOM     11  O   UNL     1       6.699   5.666  16.466  0.00  0.00    +0.000 OA
ATOM     12  C   UNL     1       6.978   4.678  17.475  0.00  0.00    +0.000 C 
ATOM     13  C   UNL     1       5.995   4.812  18.648  0.00  0.00    +0.000 C 
ENDBRANCH   7   8
BRANCH   4  14
ATOM     14  O   UNL     1       0.806   2.743  21.559  0.00  0.00    +0.000 OA
ATOM     15  H   UNL     1       0.183   3.487  21.524  0.00  0.00    +0.000 HD
ENDBRANCH   4  14
BRANCH   6  16
ATOM     16  O   UNL     1       3.306   6.233  20.140  0.00  0.00    +0.000 OA
ATOM     17  H   UNL     1       4.003   6.335  19.465  0.00  0.00    +0.000 HD
ENDBRANCH   6  16
TORSDOF 3
ENDMDL
MODEL 6
REMARK VINA RESULT:      -5.9      1.517      5.032
REMARK  Name = 
REMARK  4 active torsions:
REMARK  status: ('A' for Active; 'I' for Inactive)
REMARK    1  A    between atoms: C_1  and  C_2
REMARK    2  A    between atoms: C_4  and  O_5
REMARK    3  A    between atoms: C_7  and  O_8
REMARK    4  A    between atoms: C_9  and  N_10
REMARK                            x       y       z     vdW  Elec       q    Type
REMARK                         _______ _______ _______ _____ _____    ______ ____
ROOT
ATOM      1  C   UNL     1       3.129   7.376  17.467  0.00  0.00    +0.000 C 
ATOM      2  C   UNL     1       4.355   6.536  17.694  0.00  0.00    +0.000 A 
ATOM      3  N   UNL     1       5.491   7.065  17.172  0.00  0.00    +0.000 NA
ATOM      4  C   UNL     1       6.573   6.292  17.232  0.00  0.00    +0.000 A 
ATOM      5  N   UNL     1       6.670   5.072  17.739  0.00  0.00    +0.000 NA
ATOM      6  C   UNL     1       5.524   4.608  18.259  0.00  0.00    +0.000 A 
ATOM      7  C   UNL     1       4.294   5.273  18.310  0.00  0.00    +0.000 A 
ENDROOT
BRANCH   7   8
ATOM      8  N   UNL     1       3.104   4.762  18.824  0.00  0.00    +0.000 N 
ATOM      9  C   UNL     1       2.528   3.517  18.276  0.00  0.00    +0.000 C 
ATOM     10  C   UNL     1       1.035   3.456  18.670  0.00  0.00    +0.000 C 
ATOM     11  O   UNL     1       0.839   3.568  20.094  0.00  0.00    +0.000 OA
ATOM     12  C   UNL     1       1.454   4.766  20.604  0.00  0.00    +0.000 C 
ATOM     13  C   UNL     1       2.960   4.772  20.297  0.00  0.00    +0.000 C 
ENDBRANCH   7   8
BRANCH   4  14
ATOM     14  O   UNL     1       7.687   6.843  16.687  0.00  0.00    +0.000 OA
ATOM     15  H   UNL     1       7.749   7.632  17.250  0.00  0.00    +0.000 HD
ENDBRANCH   4  14
BRANCH   6  16
ATOM     16  O   UNL     1       5.695   3.358  18.769  0.00  0.00    +0.000 OA
ATOM     17  H   UNL     1       5.321   2.833  18.036  0.00  0.00    +0.000 HD
ENDBRANCH   6  16
TORSDOF 3
ENDMDL
MODEL 7
REMARK VINA RESULT:      -5.9      1.283      1.750
REMARK  Name = 
REMARK  4 active torsions:
REMARK  status: ('A' for Active; 'I' for Inactive)
REMARK    1  A    between atoms: C_1  and  C_2
REMARK    2  A    between atoms: C_4  and  O_5
REMARK    3  A    between atoms: C_7  and  O_8
REMARK    4  A    between atoms: C_9  and  N_10
REMARK                            x       y       z     vdW  Elec       q    Type
REMARK                         _______ _______ _______ _____ _____    ______ ____
ROOT
ATOM      1  C   UNL     1       2.840   5.867  17.828  0.00  0.00    +0.000 C 
ATOM      2  C   UNL     1       2.799   4.401  18.156  0.00  0.00    +0.000 A 
ATOM      3  N   UNL     1       1.545   3.890  18.250  0.00  0.00    +0.000 NA
ATOM      4  C   UNL     1       1.461   2.631  18.671  0.00  0.00    +0.000 A 
ATOM      5  N   UNL     1       2.453   1.820  19.008  0.00  0.00    +0.000 NA
ATOM      6  C   UNL     1       3.670   2.369  18.877  0.00  0.00    +0.000 A 
ATOM      7  C   UNL     1       3.964   3.663  18.433  0.00  0.00    +0.000 A 
ENDROOT
BRANCH   7   8
ATOM      8  N   UNL     1       5.235   4.229  18.334  0.00  0.00    +0.000 N 
ATOM      9  C   UNL     1       5.854   4.449  17.011  0.00  0.00    +0.000 C 
ATOM     10  C   UNL     1       7.377   4.618  17.208  0.00  0.00    +0.000 C 
ATOM     11  O   UNL     1       7.696   5.668  18.142  0.00  0.00    +0.000 OA
ATOM     12  C   UNL     1       7.039   5.450  19.404  0.00  0.00    +0.000 C 
ATOM     13  C   UNL     1       5.515   5.384  19.215  0.00  0.00    +0.000 C 
ENDBRANCH   7   8
BRANCH   4  14
ATOM     14  O   UNL     1       0.193   2.156  18.770  0.00  0.00    +0.000 OA
ATOM     15  H   UNL     1       0.218   1.519  18.037  0.00  0.00    +0.000 HD
ENDBRANCH   4  14
BRANCH   6  16
ATOM     16  O   UNL     1       4.641   1.484  19.229  0.00  0.00    +0.000 OA
ATOM     17  H   UNL     1       4.442   1.397  20.180  0.00  0.00    +0.000 HD
ENDBRANCH   6  16
TORSDOF 3
ENDMDL
MODEL 8
REMARK VINA RESULT:      -5.9      1.708      5.034
REMARK  Name = 
REMARK  4 active torsions:
REMARK  status: ('A' for Active; 'I' for Inactive)
REMARK    1  A    between atoms: C_1  and  C_2
REMARK    2  A    between atoms: C_4  and  O_5
REMARK    3  A    between atoms: C_7  and  O_8
REMARK    4  A    between atoms: C_9  and  N_10
REMARK                            x       y       z     vdW  Elec       q    Type
REMARK                         _______ _______ _______ _____ _____    ______ ____
ROOT
ATOM      1  C   UNL     1       2.742   6.881  18.430  0.00  0.00    +0.000 C 
ATOM      2  C   UNL     1       3.679   5.888  17.800  0.00  0.00    +0.000 A 
ATOM      3  N   UNL     1       4.505   6.424  16.865  0.00  0.00    +0.000 NA
ATOM      4  C   UNL     1       5.254   5.559  16.187  0.00  0.00    +0.000 A 
ATOM      5  N   UNL     1       5.289   4.241  16.317  0.00  0.00    +0.000 NA
ATOM      6  C   UNL     1       4.470   3.768  17.267  0.00  0.00    +0.000 A 
ATOM      7  C   UNL     1       3.624   4.514  18.095  0.00  0.00    +0.000 A 
ENDROOT
BRANCH   7   8
ATOM      8  N   UNL     1       2.754   4.002  19.056  0.00  0.00    +0.000 N 
ATOM      9  C   UNL     1       1.576   3.208  18.649  0.00  0.00    +0.000 C 
ATOM     10  C   UNL     1       0.571   3.191  19.822  0.00  0.00    +0.000 C 
ATOM     11  O   UNL     1       1.162   2.706  21.043  0.00  0.00    +0.000 OA
ATOM     12  C   UNL     1       2.333   3.469  21.386  0.00  0.00    +0.000 C 
ATOM     13  C   UNL     1       3.373   3.397  20.256  0.00  0.00    +0.000 C 
ENDBRANCH   7   8
BRANCH   4  14
ATOM     14  O   UNL     1       6.056   6.126  15.250  0.00  0.00    +0.000 OA
ATOM     15  H   UNL     1       6.292   6.936  15.730  0.00  0.00    +0.000 HD
ENDBRANCH   4  14
BRANCH   6  16
ATOM     16  O   UNL     1       4.561   2.413  17.354  0.00  0.00    +0.000 OA
ATOM     17  H   UNL     1       5.054   2.232  16.532  0.00  0.00    +0.000 HD
ENDBRANCH   6  16
TORSDOF 3
ENDMDL
MODEL 9
REMARK VINA RESULT:      -5.8      1.088      1.559
REMARK  Name = 
REMARK  4 active torsions:
REMARK  status: ('A' for Active; 'I' for Inactive)
REMARK    1  A    between atoms: C_1  and  C_2
REMARK    2  A    between atoms: C_4  and  O_5
REMARK    3  A    between atoms: C_7  and  O_8
REMARK    4  A    between atoms: C_9  and  N_10
REMARK                            x       y       z     vdW  Elec       q    Type
REMARK                         _______ _______ _______ _____ _____    ______ ____
ROOT
ATOM      1  C   UNL     1       2.720   6.464  19.628  0.00  0.00    +0.000 C 
ATOM      2  C   UNL     1       2.945   5.008  19.929  0.00  0.00    +0.000 A 
ATOM      3  N   UNL     1       2.123   4.508  20.885  0.00  0.00    +0.000 NA
ATOM      4  C   UNL     1       2.377   3.262  21.278  0.00  0.00    +0.000 A 
ATOM      5  N   UNL     1       3.336   2.457  20.846  0.00  0.00    +0.000 NA
ATOM      6  C   UNL     1       4.105   2.994  19.889  0.00  0.00    +0.000 A 
ATOM      7  C   UNL     1       3.984   4.271  19.332  0.00  0.00    +0.000 A 
ENDROOT
BRANCH   7   8
ATOM      8  N   UNL     1       4.815   4.826  18.359  0.00  0.00    +0.000 N 
ATOM      9  C   UNL     1       4.237   5.528  17.195  0.00  0.00    +0.000 C 
ATOM     10  C   UNL     1       5.312   5.602  16.088  0.00  0.00    +0.000 C 
ATOM     11  O   UNL     1       6.530   6.219  16.547  0.00  0.00    +0.000 OA
ATOM     12  C   UNL     1       7.041   5.543  17.710  0.00  0.00    +0.000 C 
ATOM     13  C   UNL     1       6.004   5.562  18.845  0.00  0.00    +0.000 C 
ENDBRANCH   7   8
BRANCH   4  14
ATOM     14  O   UNL     1       1.547   2.799  22.247  0.00  0.00    +0.000 OA
ATOM     15  H   UNL     1       1.782   1.858  22.203  0.00  0.00    +0.000 HD
ENDBRANCH   4  14
BRANCH   6  16
ATOM     16  O   UNL     1       5.062   2.113  19.485  0.00  0.00    +0.000 OA
ATOM     17  H   UNL     1       5.545   2.680  18.855  0.00  0.00    +0.000 HD
ENDBRANCH   6  16
TORSDOF 3
ENDMDL
