MODEL 1
REMARK VINA RESULT:      -8.1      0.000      0.000
REMARK  Name = 
REMARK  5 active torsions:
REMARK  status: ('A' for Active; 'I' for Inactive)
REMARK    1  A    between atoms: C_2  and  O_3
REMARK    2  A    between atoms: C_2  and  C_4
REMARK    3  A    between atoms: C_4  and  C_5
REMARK    4  A    between atoms: C_8  and  N_9
REMARK    5  A    between atoms: C_10  and  C_12
REMARK                            x       y       z     vdW  Elec       q    Type
REMARK                         _______ _______ _______ _____ _____    ______ ____
ROOT
ATOM      1  N   UNL     1       2.411   7.535  19.140  0.00  0.00    +0.000 N 
ATOM      2  C   UNL     1       1.710   8.693  18.823  0.00  0.00    +0.000 C 
ATOM      3  O   UNL     1       1.592   9.195  17.713  0.00  0.00    +0.000 OA
ATOM      4  H   UNL     1       2.313   7.183  20.086  0.00  0.00    +0.000 HD
ENDROOT
BRANCH   2   5
ATOM      5  C   UNL     1       1.021   9.315  19.992  0.00  0.00    +0.000 A 
ATOM      6  C   UNL     1       1.165   8.673  21.233  0.00  0.00    +0.000 A 
ATOM      7  C   UNL     1       0.444   9.114  22.336  0.00  0.00    +0.000 A 
ATOM      8  C   UNL     1      -0.448  10.172  22.196  0.00  0.00    +0.000 A 
ATOM      9  C   UNL     1      -0.598  10.841  20.970  0.00  0.00    +0.000 A 
ATOM     10  C   UNL     1      -1.540  11.876  20.853  0.00  0.00    +0.000 A 
ATOM     11  C   UNL     1      -1.687  12.586  19.663  0.00  0.00    +0.000 A 
ATOM     12  C   UNL     1      -0.863  12.296  18.586  0.00  0.00    +0.000 A 
ATOM     13  C   UNL     1       0.055  11.246  18.676  0.00  0.00    +0.000 A 
ATOM     14  C   UNL     1       0.185  10.462  19.851  0.00  0.00    +0.000 A 
ENDBRANCH   2   5
BRANCH   1  18
ATOM     15  C   UNL     1       4.722   5.134  16.524  0.00  0.00    +0.000 A 
ATOM     16  C   UNL     1       3.699   4.555  17.287  0.00  0.00    +0.000 A 
ATOM     17  C   UNL     1       2.910   5.336  18.136  0.00  0.00    +0.000 A 
ATOM     18  C   UNL     1       3.128   6.707  18.248  0.00  0.00    +0.000 A 
ATOM     19  C   UNL     1       4.118   7.298  17.452  0.00  0.00    +0.000 A 
ATOM     20  C   UNL     1       4.915   6.519  16.605  0.00  0.00    +0.000 A 
BRANCH  15  21
ATOM     21  C   UNL     1       5.613   4.260  15.671  0.00  0.00    +0.000 C 
BRANCH  21  23
ATOM     22  O   UNL     1       7.522   5.277  14.617  0.00  0.00    +0.000 OA
ATOM     23  C   UNL     1       7.062   4.678  15.580  0.00  0.00    +0.000 C 
BRANCH  23  24
ATOM     24  O   UNL     1       7.811   4.420  16.678  0.00  0.00    +0.000 OA
ATOM     25  H   UNL     1       8.692   4.838  16.669  0.00  0.00    +0.000 HD
ENDBRANCH  23  24
ENDBRANCH  21  23
ENDBRANCH  15  21
ENDBRANCH   1  18
TORSDOF 5
ENDMDL
MODEL 2
REMARK VINA RESULT:      -8.0      0.704      2.585
REMARK  Name = 
REMARK  5 active torsions:
REMARK  status: ('A' for Active; 'I' for Inactive)
REMARK    1  A    between atoms: C_2  and  O_3
REMARK    2  A    between atoms: C_2  and  C_4
REMARK    3  A    between atoms: C_4  and  C_5
REMARK    4  A    between atoms: C_8  and  N_9
REMARK    5  A    between atoms: C_10  and  C_12
REMARK                            x       y       z     vdW  Elec       q    Type
REMARK                         _______ _______ _______ _____ _____    ______ ____
ROOT
ATOM      1  N   UNL     1       1.905   7.803  18.477  0.00  0.00    +0.000 N 
ATOM      2  C   UNL     1       1.696   9.139  18.150  0.00  0.00    +0.000 C 
ATOM      3  O   UNL     1       2.331   9.801  17.340  0.00  0.00    +0.000 OA
ATOM      4  H   UNL     1       1.218   7.364  19.078  0.00  0.00    +0.000 HD
ENDROOT
BRANCH   2   5
ATOM      5  C   UNL     1       0.541   9.757  18.867  0.00  0.00    +0.000 A 
ATOM      6  C   UNL     1      -0.367  10.498  18.093  0.00  0.00    +0.000 A 
ATOM      7  C   UNL     1      -1.387  11.214  18.706  0.00  0.00    +0.000 A 
ATOM      8  C   UNL     1      -1.482  11.221  20.095  0.00  0.00    +0.000 A 
ATOM      9  C   UNL     1      -0.596  10.476  20.890  0.00  0.00    +0.000 A 
ATOM     10  C   UNL     1      -0.694  10.542  22.290  0.00  0.00    +0.000 A 
ATOM     11  C   UNL     1       0.144   9.785  23.107  0.00  0.00    +0.000 A 
ATOM     12  C   UNL     1       1.063   8.920  22.533  0.00  0.00    +0.000 A 
ATOM     13  C   UNL     1       1.195   8.869  21.142  0.00  0.00    +0.000 A 
ATOM     14  C   UNL     1       0.403   9.673  20.283  0.00  0.00    +0.000 A 
ENDBRANCH   2   5
BRANCH   1  18
ATOM     15  C   UNL     1       4.719   5.130  16.776  0.00  0.00    +0.000 A 
ATOM     16  C   UNL     1       4.976   6.508  16.784  0.00  0.00    +0.000 A 
ATOM     17  C   UNL     1       4.072   7.402  17.363  0.00  0.00    +0.000 A 
ATOM     18  C   UNL     1       2.889   6.944  17.940  0.00  0.00    +0.000 A 
ATOM     19  C   UNL     1       2.650   5.563  17.978  0.00  0.00    +0.000 A 
ATOM     20  C   UNL     1       3.550   4.665  17.392  0.00  0.00    +0.000 A 
BRANCH  15  21
ATOM     21  C   UNL     1       5.672   4.189  16.077  0.00  0.00    +0.000 C 
BRANCH  21  23
ATOM     22  O   UNL     1       7.927   4.429  16.883  0.00  0.00    +0.000 OA
ATOM     23  C   UNL     1       7.112   4.643  15.995  0.00  0.00    +0.000 C 
BRANCH  23  24
ATOM     24  O   UNL     1       7.469   5.234  14.832  0.00  0.00    +0.000 OA
ATOM     25  H   UNL     1       6.792   5.181  14.131  0.00  0.00    +0.000 HD
ENDBRANCH  23  24
ENDBRANCH  21  23
ENDBRANCH  15  21
ENDBRANCH   1  18
TORSDOF 5
ENDMDL
MODEL 3
REMARK VINA RESULT:      -7.9      2.920      8.432
REMARK  Name = 
REMARK  5 active torsions:
REMARK  status: ('A' for Active; 'I' for Inactive)
REMARK    1  A    between atoms: C_2  and  O_3
REMARK    2  A    between atoms: C_2  and  C_4
REMARK    3  A    between atoms: C_4  and  C_5
REMARK    4  A    between atoms: C_8  and  N_9
REMARK    5  A    between atoms: C_10  and  C_12
REMARK                            x       y       z     vdW  Elec       q    Type
REMARK                         _______ _______ _______ _____ _____    ______ ____
ROOT
ATOM      1  N   UNL     1       2.128   8.388  17.842  0.00  0.00    +0.000 N 
ATOM      2  C   UNL     1       2.450   7.411  18.778  0.00  0.00    +0.000 C 
ATOM      3  O   UNL     1       2.220   7.446  19.979  0.00  0.00    +0.000 OA
ATOM      4  H   UNL     1       2.277   8.157  16.866  0.00  0.00    +0.000 HD
ENDROOT
BRANCH   2   5
ATOM      5  C   UNL     1       3.104   6.207  18.185  0.00  0.00    +0.000 A 
ATOM      6  C   UNL     1       4.206   6.429  17.343  0.00  0.00    +0.000 A 
ATOM      7  C   UNL     1       4.780   5.372  16.648  0.00  0.00    +0.000 A 
ATOM      8  C   UNL     1       4.233   4.097  16.763  0.00  0.00    +0.000 A 
ATOM      9  C   UNL     1       3.142   3.846  17.610  0.00  0.00    +0.000 A 
ATOM     10  C   UNL     1       2.588   2.557  17.668  0.00  0.00    +0.000 A 
ATOM     11  C   UNL     1       1.529   2.264  18.526  0.00  0.00    +0.000 A 
ATOM     12  C   UNL     1       1.039   3.250  19.369  0.00  0.00    +0.000 A 
ATOM     13  C   UNL     1       1.557   4.546  19.300  0.00  0.00    +0.000 A 
ATOM     14  C   UNL     1       2.590   4.894  18.391  0.00  0.00    +0.000 A 
ENDBRANCH   2   5
BRANCH   1  18
ATOM     15  C   UNL     1       0.055  11.979  18.715  0.00  0.00    +0.000 A 
ATOM     16  C   UNL     1       1.450  11.989  18.581  0.00  0.00    +0.000 A 
ATOM     17  C   UNL     1       2.148  10.820  18.269  0.00  0.00    +0.000 A 
ATOM     18  C   UNL     1       1.473   9.615  18.089  0.00  0.00    +0.000 A 
ATOM     19  C   UNL     1       0.074   9.609  18.175  0.00  0.00    +0.000 A 
ATOM     20  C   UNL     1      -0.629  10.776  18.496  0.00  0.00    +0.000 A 
BRANCH  15  21
ATOM     21  C   UNL     1      -0.672  13.237  19.130  0.00  0.00    +0.000 C 
BRANCH  21  23
ATOM     22  O   UNL     1      -1.685  12.954  21.295  0.00  0.00    +0.000 OA
ATOM     23  C   UNL     1      -1.830  13.051  20.083  0.00  0.00    +0.000 C 
BRANCH  23  24
ATOM     24  O   UNL     1      -3.059  13.082  19.516  0.00  0.00    +0.000 OA
ATOM     25  H   UNL     1      -3.239  12.338  18.911  0.00  0.00    +0.000 HD
ENDBRANCH  23  24
ENDBRANCH  21  23
ENDBRANCH  15  21
ENDBRANCH   1  18
TORSDOF 5
ENDMDL
MODEL 4
REMARK VINA RESULT:      -7.9      2.605      8.661
REMARK  Name = 
REMARK  5 active torsions:
REMARK  status: ('A' for Active; 'I' for Inactive)
REMARK    1  A    between atoms: C_2  and  O_3
REMARK    2  A    between atoms: C_2  and  C_4
REMARK    3  A    between atoms: C_4  and  C_5
REMARK    4  A    between atoms: C_8  and  N_9
REMARK    5  A    between atoms: C_10  and  C_12
REMARK                            x       y       z     vdW  Elec       q    Type
REMARK                         _______ _______ _______ _____ _____    ______ ____
ROOT
ATOM      1  N   UNL     1       1.970   7.976  19.816  0.00  0.00    +0.000 N 
ATOM      2  C   UNL     1       2.066   7.852  18.434  0.00  0.00    +0.000 C 
ATOM      3  O   UNL     1       1.469   8.518  17.598  0.00  0.00    +0.000 OA
ATOM      4  H   UNL     1       2.620   7.432  20.373  0.00  0.00    +0.000 HD
ENDROOT
BRANCH   2   5
ATOM      5  C   UNL     1       3.041   6.812  17.993  0.00  0.00    +0.000 A 
ATOM      6  C   UNL     1       4.243   7.265  17.425  0.00  0.00    +0.000 A 
ATOM      7  C   UNL     1       5.138   6.360  16.867  0.00  0.00    +0.000 A 
ATOM      8  C   UNL     1       4.819   5.005  16.842  0.00  0.00    +0.000 A 
ATOM      9  C   UNL     1       3.631   4.526  17.417  0.00  0.00    +0.000 A 
ATOM     10  C   UNL     1       3.321   3.159  17.335  0.00  0.00    +0.000 A 
ATOM     11  C   UNL     1       2.170   2.643  17.929  0.00  0.00    +0.000 A 
ATOM     12  C   UNL     1       1.336   3.485  18.649  0.00  0.00    +0.000 A 
ATOM     13  C   UNL     1       1.613   4.853  18.712  0.00  0.00    +0.000 A 
ATOM     14  C   UNL     1       2.741   5.420  18.064  0.00  0.00    +0.000 A 
ENDBRANCH   2   5
BRANCH   1  18
ATOM     15  C   UNL     1      -0.381  10.641  22.124  0.00  0.00    +0.000 A 
ATOM     16  C   UNL     1       0.397  11.128  21.066  0.00  0.00    +0.000 A 
ATOM     17  C   UNL     1       1.159  10.262  20.278  0.00  0.00    +0.000 A 
ATOM     18  C   UNL     1       1.167   8.892  20.531  0.00  0.00    +0.000 A 
ATOM     19  C   UNL     1       0.353   8.393  21.558  0.00  0.00    +0.000 A 
ATOM     20  C   UNL     1      -0.406   9.259  22.354  0.00  0.00    +0.000 A 
BRANCH  15  21
ATOM     21  C   UNL     1      -1.136  11.604  23.011  0.00  0.00    +0.000 C 
BRANCH  21  23
ATOM     22  O   UNL     1      -2.661  12.423  21.339  0.00  0.00    +0.000 OA
ATOM     23  C   UNL     1      -2.479  12.067  22.496  0.00  0.00    +0.000 C 
BRANCH  23  24
ATOM     24  O   UNL     1      -3.499  11.985  23.382  0.00  0.00    +0.000 OA
ATOM     25  H   UNL     1      -3.553  12.736  24.002  0.00  0.00    +0.000 HD
ENDBRANCH  23  24
ENDBRANCH  21  23
ENDBRANCH  15  21
ENDBRANCH   1  18
TORSDOF 5
ENDMDL
MODEL 5
REMARK VINA RESULT:      -7.9      0.932      1.144
REMARK  Name = 
REMARK  5 active torsions:
REMARK  status: ('A' for Active; 'I' for Inactive)
REMARK    1  A    between atoms: C_2  and  O_3
REMARK    2  A    between atoms: C_2  and  C_4
REMARK    3  A    between atoms: C_4  and  C_5
REMARK    4  A    between atoms: C_8  and  N_9
REMARK    5  A    between atoms: C_10  and  C_12
REMARK                            x       y       z     vdW  Elec       q    Type
REMARK                         _______ _______ _______ _____ _____    ______ ____
ROOT
ATOM      1  N   UNL     1       2.341   7.623  19.431  0.00  0.00    +0.000 N 
ATOM      2  C   UNL     1       1.489   8.682  19.138  0.00  0.00    +0.000 C 
ATOM      3  O   UNL     1       1.195   9.098  18.025  0.00  0.00    +0.000 OA
ATOM      4  H   UNL     1       2.387   7.323  20.398  0.00  0.00    +0.000 HD
ENDROOT
BRANCH   2   5
ATOM      5  C   UNL     1       0.872   9.305  20.346  0.00  0.00    +0.000 A 
ATOM      6  C   UNL     1       0.370   8.435  21.328  0.00  0.00    +0.000 A 
ATOM      7  C   UNL     1      -0.339   8.937  22.412  0.00  0.00    +0.000 A 
ATOM      8  C   UNL     1      -0.579  10.306  22.501  0.00  0.00    +0.000 A 
ATOM      9  C   UNL     1      -0.074  11.198  21.542  0.00  0.00    +0.000 A 
ATOM     10  C   UNL     1      -0.372  12.567  21.640  0.00  0.00    +0.000 A 
ATOM     11  C   UNL     1       0.145  13.485  20.727  0.00  0.00    +0.000 A 
ATOM     12  C   UNL     1       1.002  13.049  19.729  0.00  0.00    +0.000 A 
ATOM     13  C   UNL     1       1.282  11.686  19.597  0.00  0.00    +0.000 A 
ATOM     14  C   UNL     1       0.721  10.718  20.470  0.00  0.00    +0.000 A 
ENDBRANCH   2   5
BRANCH   1  18
ATOM     15  C   UNL     1       4.594   5.289  16.704  0.00  0.00    +0.000 A 
ATOM     16  C   UNL     1       3.633   4.680  17.523  0.00  0.00    +0.000 A 
ATOM     17  C   UNL     1       2.863   5.437  18.409  0.00  0.00    +0.000 A 
ATOM     18  C   UNL     1       3.038   6.816  18.505  0.00  0.00    +0.000 A 
ATOM     19  C   UNL     1       3.963   7.436  17.654  0.00  0.00    +0.000 A 
ATOM     20  C   UNL     1       4.742   6.681  16.770  0.00  0.00    +0.000 A 
BRANCH  15  21
ATOM     21  C   UNL     1       5.469   4.442  15.809  0.00  0.00    +0.000 C 
BRANCH  21  23
ATOM     22  O   UNL     1       7.655   4.447  16.814  0.00  0.00    +0.000 OA
ATOM     23  C   UNL     1       6.950   4.738  15.857  0.00  0.00    +0.000 C 
BRANCH  23  24
ATOM     24  O   UNL     1       7.471   5.276  14.729  0.00  0.00    +0.000 OA
ATOM     25  H   UNL     1       7.173   6.186  14.545  0.00  0.00    +0.000 HD
ENDBRANCH  23  24
ENDBRANCH  21  23
ENDBRANCH  15  21
ENDBRANCH   1  18
TORSDOF 5
ENDMDL
MODEL 6
REMARK VINA RESULT:      -7.9      2.585      3.178
REMARK  Name = 
REMARK  5 active torsions:
REMARK  status: ('A' for Active; 'I' for Inactive)
REMARK    1  A    between atoms: C_2  and  O_3
REMARK    2  A    between atoms: C_2  and  C_4
REMARK    3  A    between atoms: C_4  and  C_5
REMARK    4  A    between atoms: C_8  and  N_9
REMARK    5  A    between atoms: C_10  and  C_12
REMARK                            x       y       z     vdW  Elec       q    Type
REMARK                         _______ _______ _______ _____ _____    ______ ____
ROOT
ATOM      1  N   UNL     1       1.567   8.399  19.328  0.00  0.00    +0.000 N 
ATOM      2  C   UNL     1       1.487   9.466  18.439  0.00  0.00    +0.000 C 
ATOM      3  O   UNL     1       2.037   9.552  17.349  0.00  0.00    +0.000 OA
ATOM      4  H   UNL     1       0.956   8.427  20.136  0.00  0.00    +0.000 HD
ENDROOT
BRANCH   2   5
ATOM      5  C   UNL     1       0.592  10.567  18.905  0.00  0.00    +0.000 A 
ATOM      6  C   UNL     1       1.114  11.452  19.862  0.00  0.00    +0.000 A 
ATOM      7  C   UNL     1       0.299  12.415  20.443  0.00  0.00    +0.000 A 
ATOM      8  C   UNL     1      -1.048  12.474  20.096  0.00  0.00    +0.000 A 
ATOM      9  C   UNL     1      -1.590  11.612  19.130  0.00  0.00    +0.000 A 
ATOM     10  C   UNL     1      -2.962  11.670  18.836  0.00  0.00    +0.000 A 
ATOM     11  C   UNL     1      -3.526  10.856  17.855  0.00  0.00    +0.000 A 
ATOM     12  C   UNL     1      -2.713  10.001  17.126  0.00  0.00    +0.000 A 
ATOM     13  C   UNL     1      -1.352   9.907  17.429  0.00  0.00    +0.000 A 
ATOM     14  C   UNL     1      -0.760  10.674  18.465  0.00  0.00    +0.000 A 
ENDBRANCH   2   5
BRANCH   1  18
ATOM     15  C   UNL     1       3.598   4.713  18.841  0.00  0.00    +0.000 A 
ATOM     16  C   UNL     1       3.773   5.739  17.903  0.00  0.00    +0.000 A 
ATOM     17  C   UNL     1       3.131   6.970  18.060  0.00  0.00    +0.000 A 
ATOM     18  C   UNL     1       2.297   7.203  19.152  0.00  0.00    +0.000 A 
ATOM     19  C   UNL     1       2.158   6.197  20.118  0.00  0.00    +0.000 A 
ATOM     20  C   UNL     1       2.792   4.960  19.960  0.00  0.00    +0.000 A 
BRANCH  15  21
ATOM     21  C   UNL     1       4.240   3.364  18.611  0.00  0.00    +0.000 C 
BRANCH  21  23
ATOM     22  O   UNL     1       2.353   2.543  17.362  0.00  0.00    +0.000 OA
ATOM     23  C   UNL     1       3.342   2.291  18.039  0.00  0.00    +0.000 C 
BRANCH  23  24
ATOM     24  O   UNL     1       3.748   1.018  18.255  0.00  0.00    +0.000 OA
ATOM     25  H   UNL     1       4.013   0.833  19.175  0.00  0.00    +0.000 HD
ENDBRANCH  23  24
ENDBRANCH  21  23
ENDBRANCH  15  21
ENDBRANCH   1  18
TORSDOF 5
ENDMDL
MODEL 7
REMARK VINA RESULT:      -7.8      2.540      8.541
REMARK  Name = 
REMARK  5 active torsions:
REMARK  status: ('A' for Active; 'I' for Inactive)
REMARK    1  A    between atoms: C_2  and  O_3
REMARK    2  A    between atoms: C_2  and  C_4
REMARK    3  A    between atoms: C_4  and  C_5
REMARK    4  A    between atoms: C_8  and  N_9
REMARK    5  A    between atoms: C_10  and  C_12
REMARK                            x       y       z     vdW  Elec       q    Type
REMARK                         _______ _______ _______ _____ _____    ______ ____
ROOT
ATOM      1  N   UNL     1       2.017   7.755  19.901  0.00  0.00    +0.000 N 
ATOM      2  C   UNL     1       2.208   7.816  18.525  0.00  0.00    +0.000 C 
ATOM      3  O   UNL     1       1.745   8.650  17.759  0.00  0.00    +0.000 OA
ATOM      4  H   UNL     1       2.567   7.074  20.413  0.00  0.00    +0.000 HD
ENDROOT
BRANCH   2   5
ATOM      5  C   UNL     1       3.111   6.749  17.999  0.00  0.00    +0.000 A 
ATOM      6  C   UNL     1       4.282   7.169  17.347  0.00  0.00    +0.000 A 
ATOM      7  C   UNL     1       5.100   6.243  16.712  0.00  0.00    +0.000 A 
ATOM      8  C   UNL     1       4.733   4.900  16.696  0.00  0.00    +0.000 A 
ATOM      9  C   UNL     1       3.576   4.453  17.355  0.00  0.00    +0.000 A 
ATOM     10  C   UNL     1       3.213   3.098  17.280  0.00  0.00    +0.000 A 
ATOM     11  C   UNL     1       2.093   2.614  17.954  0.00  0.00    +0.000 A 
ATOM     12  C   UNL     1       1.345   3.473  18.744  0.00  0.00    +0.000 A 
ATOM     13  C   UNL     1       1.673   4.830  18.801  0.00  0.00    +0.000 A 
ATOM     14  C   UNL     1       2.768   5.368  18.077  0.00  0.00    +0.000 A 
ENDBRANCH   2   5
BRANCH   1  18
ATOM     15  C   UNL     1      -0.428  10.380  22.157  0.00  0.00    +0.000 A 
ATOM     16  C   UNL     1       0.429   9.484  22.810  0.00  0.00    +0.000 A 
ATOM     17  C   UNL     1       1.261   8.629  22.083  0.00  0.00    +0.000 A 
ATOM     18  C   UNL     1       1.252   8.643  20.690  0.00  0.00    +0.000 A 
ATOM     19  C   UNL     1       0.432   9.570  20.032  0.00  0.00    +0.000 A 
ATOM     20  C   UNL     1      -0.409  10.423  20.757  0.00  0.00    +0.000 A 
BRANCH  15  21
ATOM     21  C   UNL     1      -1.375  11.240  22.961  0.00  0.00    +0.000 C 
BRANCH  21  23
ATOM     22  O   UNL     1      -0.278  13.374  23.149  0.00  0.00    +0.000 OA
ATOM     23  C   UNL     1      -1.247  12.733  22.763  0.00  0.00    +0.000 C 
BRANCH  23  24
ATOM     24  O   UNL     1      -2.242  13.311  22.051  0.00  0.00    +0.000 OA
ATOM     25  H   UNL     1      -2.524  12.801  21.269  0.00  0.00    +0.000 HD
ENDBRANCH  23  24
ENDBRANCH  21  23
ENDBRANCH  15  21
ENDBRANCH   1  18
TORSDOF 5
ENDMDL
MODEL 8
REMARK VINA RESULT:      -7.8      1.091      2.291
REMARK  Name = 
REMARK  5 active torsions:
REMARK  status: ('A' for Active; 'I' for Inactive)
REMARK    1  A    between atoms: C_2  and  O_3
REMARK    2  A    between atoms: C_2  and  C_4
REMARK    3  A    between atoms: C_4  and  C_5
REMARK    4  A    between atoms: C_8  and  N_9
REMARK    5  A    between atoms: C_10  and  C_12
REMARK                            x       y       z     vdW  Elec       q    Type
REMARK                         _______ _______ _______ _____ _____    ______ ____
ROOT
ATOM      1  N   UNL     1       2.169   8.141  18.190  0.00  0.00    +0.000 N 
ATOM      2  C   UNL     1       1.757   8.382  19.496  0.00  0.00    +0.000 C 
ATOM      3  O   UNL     1       2.030   7.714  20.484  0.00  0.00    +0.000 OA
ATOM      4  H   UNL     1       1.959   8.855  17.502  0.00  0.00    +0.000 HD
ENDROOT
BRANCH   2   5
ATOM      5  C   UNL     1       0.934   9.619  19.645  0.00  0.00    +0.000 A 
ATOM      6  C   UNL     1       0.969  10.540  18.586  0.00  0.00    +0.000 A 
ATOM      7  C   UNL     1       0.341  11.773  18.709  0.00  0.00    +0.000 A 
ATOM      8  C   UNL     1      -0.293  12.104  19.903  0.00  0.00    +0.000 A 
ATOM      9  C   UNL     1      -0.356  11.195  20.971  0.00  0.00    +0.000 A 
ATOM     10  C   UNL     1      -0.965  11.579  22.177  0.00  0.00    +0.000 A 
ATOM     11  C   UNL     1      -1.079  10.689  23.243  0.00  0.00    +0.000 A 
ATOM     12  C   UNL     1      -0.621   9.388  23.100  0.00  0.00    +0.000 A 
ATOM     13  C   UNL     1       0.018   9.000  21.920  0.00  0.00    +0.000 A 
ATOM     14  C   UNL     1       0.208   9.900  20.839  0.00  0.00    +0.000 A 
ENDBRANCH   2   5
BRANCH   1  18
ATOM     15  C   UNL     1       4.765   5.039  16.925  0.00  0.00    +0.000 A 
ATOM     16  C   UNL     1       3.528   4.726  17.505  0.00  0.00    +0.000 A 
ATOM     17  C   UNL     1       2.648   5.735  17.905  0.00  0.00    +0.000 A 
ATOM     18  C   UNL     1       2.984   7.078  17.742  0.00  0.00    +0.000 A 
ATOM     19  C   UNL     1       4.199   7.396  17.119  0.00  0.00    +0.000 A 
ATOM     20  C   UNL     1       5.086   6.388  16.724  0.00  0.00    +0.000 A 
BRANCH  15  21
ATOM     21  C   UNL     1       5.733   3.934  16.572  0.00  0.00    +0.000 C 
BRANCH  21  23
ATOM     22  O   UNL     1       7.506   4.892  15.256  0.00  0.00    +0.000 OA
ATOM     23  C   UNL     1       7.158   4.361  16.303  0.00  0.00    +0.000 C 
BRANCH  23  24
ATOM     24  O   UNL     1       8.018   4.194  17.334  0.00  0.00    +0.000 OA
ATOM     25  H   UNL     1       8.951   4.369  17.110  0.00  0.00    +0.000 HD
ENDBRANCH  23  24
ENDBRANCH  21  23
ENDBRANCH  15  21
ENDBRANCH   1  18
TORSDOF 5
ENDMDL
MODEL 9
REMARK VINA RESULT:      -7.8      2.579      3.080
REMARK  Name = 
REMARK  5 active torsions:
REMARK  status: ('A' for Active; 'I' for Inactive)
REMARK    1  A    between atoms: C_2  and  O_3
REMARK    2  A    between atoms: C_2  and  C_4
REMARK    3  A    between atoms: C_4  and  C_5
REMARK    4  A    between atoms: C_8  and  N_9
REMARK    5  A    between atoms: C_10  and  C_12
REMARK                            x       y       z     vdW  Elec       q    Type
REMARK                         _______ _______ _______ _____ _____    ______ ____
ROOT
ATOM      1  N   UNL     1       1.526   8.516  19.316  0.00  0.00    +0.000 N 
ATOM      2  C   UNL     1       1.462   9.576  18.418  0.00  0.00    +0.000 C 
ATOM      3  O   UNL     1       2.051   9.665  17.349  0.00  0.00    +0.000 OA
ATOM      4  H   UNL     1       0.885   8.538  20.100  0.00  0.00    +0.000 HD
ENDROOT
BRANCH   2   5
ATOM      5  C   UNL     1       0.533  10.665  18.844  0.00  0.00    +0.000 A 
ATOM      6  C   UNL     1       1.029  11.604  19.763  0.00  0.00    +0.000 A 
ATOM      7  C   UNL     1       0.184  12.562  20.308  0.00  0.00    +0.000 A 
ATOM      8  C   UNL     1      -1.165  12.563  19.966  0.00  0.00    +0.000 A 
ATOM      9  C   UNL     1      -1.682  11.645  19.037  0.00  0.00    +0.000 A 
ATOM     10  C   UNL     1      -3.056  11.647  18.749  0.00  0.00    +0.000 A 
ATOM     11  C   UNL     1      -3.596  10.775  17.804  0.00  0.00    +0.000 A 
ATOM     12  C   UNL     1      -2.758   9.919  17.105  0.00  0.00    +0.000 A 
ATOM     13  C   UNL     1      -1.394   9.882  17.405  0.00  0.00    +0.000 A 
ATOM     14  C   UNL     1      -0.823  10.709  18.406  0.00  0.00    +0.000 A 
ENDBRANCH   2   5
BRANCH   1  18
ATOM     15  C   UNL     1       3.945   5.068  18.846  0.00  0.00    +0.000 A 
ATOM     16  C   UNL     1       3.089   5.180  19.950  0.00  0.00    +0.000 A 
ATOM     17  C   UNL     1       2.265   6.297  20.108  0.00  0.00    +0.000 A 
ATOM     18  C   UNL     1       2.282   7.331  19.174  0.00  0.00    +0.000 A 
ATOM     19  C   UNL     1       3.101   7.202  18.044  0.00  0.00    +0.000 A 
ATOM     20  C   UNL     1       3.933   6.088  17.886  0.00  0.00    +0.000 A 
BRANCH  15  21
ATOM     21  C   UNL     1       4.883   3.888  18.735  0.00  0.00    +0.000 C 
BRANCH  21  23
ATOM     22  O   UNL     1       3.357   2.029  18.653  0.00  0.00    +0.000 OA
ATOM     23  C   UNL     1       4.327   2.555  19.182  0.00  0.00    +0.000 C 
BRANCH  23  24
ATOM     24  O   UNL     1       5.027   1.933  20.159  0.00  0.00    +0.000 OA
ATOM     25  H   UNL     1       5.220   0.995  19.978  0.00  0.00    +0.000 HD
ENDBRANCH  23  24
ENDBRANCH  21  23
ENDBRANCH  15  21
ENDBRANCH   1  18
TORSDOF 5
ENDMDL
