MODEL 1
REMARK VINA RESULT:      -6.5      0.000      0.000
REMARK  Name = 
REMARK  9 active torsions:
REMARK  status: ('A' for Active; 'I' for Inactive)
REMARK    1  A    between atoms: C_1  and  C_2
REMARK    2  A    between atoms: C_2  and  N_3
REMARK    3  A    between atoms: C_7  and  C_8
REMARK    4  A    between atoms: C_8  and  N_9
REMARK    5  A    between atoms: C_10  and  C_12
REMARK    6  A    between atoms: C_17  and  O_18
REMARK    7  A    between atoms: O_18  and  C_19
REMARK    8  A    between atoms: C_20  and  O_21
REMARK    9  A    between atoms: O_21  and  C_22
REMARK                            x       y       z     vdW  Elec       q    Type
REMARK                         _______ _______ _______ _____ _____    ______ ____
ROOT
ATOM      1  N   UNL     1       3.185   2.940  17.582  0.00  0.00    +0.000 N 
ATOM      2  C   UNL     1       3.433   4.280  17.307  0.00  0.00    +0.000 C 
ATOM      3  O   UNL     1       2.620   5.164  17.547  0.00  0.00    +0.000 OA
ATOM      4  H   UNL     1       3.897   2.247  17.422  0.00  0.00    +0.000 HD
ENDROOT
BRANCH   2   5
ATOM      5  C   UNL     1       4.740   4.575  16.630  0.00  0.00    +0.000 A 
ATOM      6  C   UNL     1       4.916   4.087  15.326  0.00  0.00    +0.000 A 
ATOM      7  C   UNL     1       6.075   4.374  14.621  0.00  0.00    +0.000 A 
ATOM      8 BR   UNL     1       6.312   3.680  12.877  0.00  0.00    +0.000 Br
ATOM      9  C   UNL     1       7.059   5.173  15.187  0.00  0.00    +0.000 A 
ATOM     10  C   UNL     1       6.906   5.682  16.485  0.00  0.00    +0.000 A 
ATOM     11  C   UNL     1       5.732   5.391  17.219  0.00  0.00    +0.000 A 
BRANCH  10  12
ATOM     12  O   UNL     1       7.858   6.493  17.053  0.00  0.00    +0.000 OA
ATOM     13  C   UNL     1       7.502   7.848  17.302  0.00  0.00    +0.000 C 
ENDBRANCH  10  12
BRANCH  11  14
ATOM     14  O   UNL     1       5.530   5.750  18.531  0.00  0.00    +0.000 OA
ATOM     15  C   UNL     1       6.175   4.986  19.546  0.00  0.00    +0.000 C 
ENDBRANCH  11  14
ENDBRANCH   2   5
BRANCH   1  16
ATOM     16  C   UNL     1       1.869   2.458  17.974  0.00  0.00    +0.000 C 
BRANCH  16  21
ATOM     17  N   UNL     1       1.046   2.840  20.441  0.00  0.00    +0.000 NA
ATOM     18  C   UNL     1       1.803   2.688  21.705  0.00  0.00    +0.000 C 
ATOM     19  C   UNL     1       3.256   2.693  21.276  0.00  0.00    +0.000 C 
ATOM     20  C   UNL     1       3.229   1.842  20.028  0.00  0.00    +0.000 C 
ATOM     21  C   UNL     1       1.815   2.035  19.452  0.00  0.00    +0.000 C 
BRANCH  17  23
ATOM     22  C   UNL     1       1.749   5.250  20.896  0.00  0.00    +0.000 C 
ATOM     23  C   UNL     1       0.833   4.271  20.168  0.00  0.00    +0.000 C 
ENDBRANCH  17  23
ENDBRANCH  16  21
ENDBRANCH   1  16
TORSDOF 6
ENDMDL
MODEL 2
REMARK VINA RESULT:      -6.3      4.367      6.105
REMARK  Name = 
REMARK  9 active torsions:
REMARK  status: ('A' for Active; 'I' for Inactive)
REMARK    1  A    between atoms: C_1  and  C_2
REMARK    2  A    between atoms: C_2  and  N_3
REMARK    3  A    between atoms: C_7  and  C_8
REMARK    4  A    between atoms: C_8  and  N_9
REMARK    5  A    between atoms: C_10  and  C_12
REMARK    6  A    between atoms: C_17  and  O_18
REMARK    7  A    between atoms: O_18  and  C_19
REMARK    8  A    between atoms: C_20  and  O_21
REMARK    9  A    between atoms: O_21  and  C_22
REMARK                            x       y       z     vdW  Elec       q    Type
REMARK                         _______ _______ _______ _____ _____    ______ ____
ROOT
ATOM      1  N   UNL     1       2.074   7.636  20.201  0.00  0.00    +0.000 N 
ATOM      2  C   UNL     1       2.346   7.293  18.882  0.00  0.00    +0.000 C 
ATOM      3  O   UNL     1       1.750   7.789  17.935  0.00  0.00    +0.000 OA
ATOM      4  H   UNL     1       2.622   7.249  20.951  0.00  0.00    +0.000 HD
ENDROOT
BRANCH   2   5
ATOM      5  C   UNL     1       3.376   6.218  18.687  0.00  0.00    +0.000 A 
ATOM      6  C   UNL     1       4.601   6.593  18.113  0.00  0.00    +0.000 A 
ATOM      7  C   UNL     1       5.617   5.662  17.960  0.00  0.00    +0.000 A 
ATOM      8 BR   UNL     1       7.249   6.175  17.152  0.00  0.00    +0.000 Br
ATOM      9  C   UNL     1       5.445   4.358  18.403  0.00  0.00    +0.000 A 
ATOM     10  C   UNL     1       4.235   3.958  18.990  0.00  0.00    +0.000 A 
ATOM     11  C   UNL     1       3.186   4.895  19.145  0.00  0.00    +0.000 A 
BRANCH  10  12
ATOM     12  O   UNL     1       4.054   2.678  19.455  0.00  0.00    +0.000 OA
ATOM     13  C   UNL     1       3.568   1.708  18.533  0.00  0.00    +0.000 C 
ENDBRANCH  10  12
BRANCH  11  14
ATOM     14  O   UNL     1       1.930   4.581  19.609  0.00  0.00    +0.000 OA
ATOM     15  C   UNL     1       1.781   4.266  20.990  0.00  0.00    +0.000 C 
ENDBRANCH  11  14
ENDBRANCH   2   5
BRANCH   1  16
ATOM     16  C   UNL     1       0.923   8.446  20.572  0.00  0.00    +0.000 C 
BRANCH  16  21
ATOM     17  N   UNL     1       0.707  10.794  21.733  0.00  0.00    +0.000 NA
ATOM     18  C   UNL     1       0.525  12.124  21.109  0.00  0.00    +0.000 C 
ATOM     19  C   UNL     1       0.053  11.818  19.702  0.00  0.00    +0.000 C 
ATOM     20  C   UNL     1       0.930  10.652  19.312  0.00  0.00    +0.000 C 
ATOM     21  C   UNL     1       1.258   9.946  20.640  0.00  0.00    +0.000 C 
BRANCH  17  23
ATOM     22  C   UNL     1      -1.341  11.471  23.094  0.00  0.00    +0.000 C 
ATOM     23  C   UNL     1      -0.550  10.380  22.378  0.00  0.00    +0.000 C 
ENDBRANCH  17  23
ENDBRANCH  16  21
ENDBRANCH   1  16
TORSDOF 6
ENDMDL
MODEL 3
REMARK VINA RESULT:      -6.3      4.765      6.140
REMARK  Name = 
REMARK  9 active torsions:
REMARK  status: ('A' for Active; 'I' for Inactive)
REMARK    1  A    between atoms: C_1  and  C_2
REMARK    2  A    between atoms: C_2  and  N_3
REMARK    3  A    between atoms: C_7  and  C_8
REMARK    4  A    between atoms: C_8  and  N_9
REMARK    5  A    between atoms: C_10  and  C_12
REMARK    6  A    between atoms: C_17  and  O_18
REMARK    7  A    between atoms: O_18  and  C_19
REMARK    8  A    between atoms: C_20  and  O_21
REMARK    9  A    between atoms: O_21  and  C_22
REMARK                            x       y       z     vdW  Elec       q    Type
REMARK                         _______ _______ _______ _____ _____    ______ ____
ROOT
ATOM      1  N   UNL     1       1.703   8.543  19.520  0.00  0.00    +0.000 N 
ATOM      2  C   UNL     1       2.347   7.914  18.460  0.00  0.00    +0.000 C 
ATOM      3  O   UNL     1       2.337   8.363  17.322  0.00  0.00    +0.000 OA
ATOM      4  H   UNL     1       1.778   8.174  20.453  0.00  0.00    +0.000 HD
ENDROOT
BRANCH   2   5
ATOM      5  C   UNL     1       3.003   6.603  18.783  0.00  0.00    +0.000 A 
ATOM      6  C   UNL     1       2.361   5.771  19.715  0.00  0.00    +0.000 A 
ATOM      7  C   UNL     1       2.881   4.522  20.014  0.00  0.00    +0.000 A 
ATOM      8 BR   UNL     1       2.024   3.428  21.298  0.00  0.00    +0.000 Br
ATOM      9  C   UNL     1       4.025   4.067  19.372  0.00  0.00    +0.000 A 
ATOM     10  C   UNL     1       4.682   4.872  18.429  0.00  0.00    +0.000 A 
ATOM     11  C   UNL     1       4.167   6.153  18.119  0.00  0.00    +0.000 A 
BRANCH  10  12
ATOM     12  O   UNL     1       5.801   4.431  17.767  0.00  0.00    +0.000 OA
ATOM     13  C   UNL     1       7.067   4.784  18.311  0.00  0.00    +0.000 C 
ENDBRANCH  10  12
BRANCH  11  14
ATOM     14  O   UNL     1       4.789   7.060  17.293  0.00  0.00    +0.000 OA
ATOM     15  C   UNL     1       4.979   6.704  15.927  0.00  0.00    +0.000 C 
ENDBRANCH  11  14
ENDBRANCH   2   5
BRANCH   1  16
ATOM     16  C   UNL     1       0.794   9.662  19.322  0.00  0.00    +0.000 C 
BRANCH  16  21
ATOM     17  N   UNL     1      -0.439  11.093  21.151  0.00  0.00    +0.000 NA
ATOM     18  C   UNL     1      -0.790  10.719  22.540  0.00  0.00    +0.000 C 
ATOM     19  C   UNL     1       0.083   9.516  22.838  0.00  0.00    +0.000 C 
ATOM     20  C   UNL     1       0.004   8.731  21.549  0.00  0.00    +0.000 C 
ATOM     21  C   UNL     1      -0.236   9.790  20.458  0.00  0.00    +0.000 C 
BRANCH  17  23
ATOM     22  C   UNL     1       0.291  13.537  21.168  0.00  0.00    +0.000 C 
ATOM     23  C   UNL     1       0.672  12.059  21.170  0.00  0.00    +0.000 C 
ENDBRANCH  17  23
ENDBRANCH  16  21
ENDBRANCH   1  16
TORSDOF 6
ENDMDL
MODEL 4
REMARK VINA RESULT:      -6.3      4.324      5.608
REMARK  Name = 
REMARK  9 active torsions:
REMARK  status: ('A' for Active; 'I' for Inactive)
REMARK    1  A    between atoms: C_1  and  C_2
REMARK    2  A    between atoms: C_2  and  N_3
REMARK    3  A    between atoms: C_7  and  C_8
REMARK    4  A    between atoms: C_8  and  N_9
REMARK    5  A    between atoms: C_10  and  C_12
REMARK    6  A    between atoms: C_17  and  O_18
REMARK    7  A    between atoms: O_18  and  C_19
REMARK    8  A    between atoms: C_20  and  O_21
REMARK    9  A    between atoms: O_21  and  C_22
REMARK                            x       y       z     vdW  Elec       q    Type
REMARK                         _______ _______ _______ _____ _____    ______ ____
ROOT
ATOM      1  N   UNL     1       2.056   8.042  19.082  0.00  0.00    +0.000 N 
ATOM      2  C   UNL     1       2.720   7.695  17.911  0.00  0.00    +0.000 C 
ATOM      3  O   UNL     1       2.934   8.498  17.011  0.00  0.00    +0.000 OA
ATOM      4  H   UNL     1       1.946   7.370  19.823  0.00  0.00    +0.000 HD
ENDROOT
BRANCH   2   5
ATOM      5  C   UNL     1       3.103   6.250  17.783  0.00  0.00    +0.000 A 
ATOM      6  C   UNL     1       2.177   5.294  18.229  0.00  0.00    +0.000 A 
ATOM      7  C   UNL     1       2.441   3.941  18.086  0.00  0.00    +0.000 A 
ATOM      8 BR   UNL     1       1.198   2.665  18.724  0.00  0.00    +0.000 Br
ATOM      9  C   UNL     1       3.611   3.517  17.470  0.00  0.00    +0.000 A 
ATOM     10  C   UNL     1       4.551   4.450  17.005  0.00  0.00    +0.000 A 
ATOM     11  C   UNL     1       4.298   5.834  17.152  0.00  0.00    +0.000 A 
BRANCH  10  12
ATOM     12  O   UNL     1       5.703   4.051  16.374  0.00  0.00    +0.000 OA
ATOM     13  C   UNL     1       5.713   4.073  14.951  0.00  0.00    +0.000 C 
ENDBRANCH  10  12
BRANCH  11  14
ATOM     14  O   UNL     1       5.196   6.824  16.829  0.00  0.00    +0.000 OA
ATOM     15  C   UNL     1       6.390   6.928  17.599  0.00  0.00    +0.000 C 
ENDBRANCH  11  14
ENDBRANCH   2   5
BRANCH   1  16
ATOM     16  C   UNL     1       1.378   9.320  19.242  0.00  0.00    +0.000 C 
BRANCH  16  21
ATOM     17  N   UNL     1      -0.178  10.572  20.950  0.00  0.00    +0.000 NA
ATOM     18  C   UNL     1      -0.423  10.266  22.378  0.00  0.00    +0.000 C 
ATOM     19  C   UNL     1       0.726   9.360  22.771  0.00  0.00    +0.000 C 
ATOM     20  C   UNL     1       0.849   8.453  21.570  0.00  0.00    +0.000 C 
ATOM     21  C   UNL     1       0.349   9.299  20.386  0.00  0.00    +0.000 C 
BRANCH  17  23
ATOM     22  C   UNL     1       0.186  12.846  19.852  0.00  0.00    +0.000 C 
ATOM     23  C   UNL     1       0.651  11.784  20.845  0.00  0.00    +0.000 C 
ENDBRANCH  17  23
ENDBRANCH  16  21
ENDBRANCH   1  16
TORSDOF 6
ENDMDL
MODEL 5
REMARK VINA RESULT:      -6.3      4.539      6.210
REMARK  Name = 
REMARK  9 active torsions:
REMARK  status: ('A' for Active; 'I' for Inactive)
REMARK    1  A    between atoms: C_1  and  C_2
REMARK    2  A    between atoms: C_2  and  N_3
REMARK    3  A    between atoms: C_7  and  C_8
REMARK    4  A    between atoms: C_8  and  N_9
REMARK    5  A    between atoms: C_10  and  C_12
REMARK    6  A    between atoms: C_17  and  O_18
REMARK    7  A    between atoms: O_18  and  C_19
REMARK    8  A    between atoms: C_20  and  O_21
REMARK    9  A    between atoms: O_21  and  C_22
REMARK                            x       y       z     vdW  Elec       q    Type
REMARK                         _______ _______ _______ _____ _____    ______ ____
ROOT
ATOM      1  N   UNL     1       2.119   8.319  17.909  0.00  0.00    +0.000 N 
ATOM      2  C   UNL     1       2.571   7.285  18.721  0.00  0.00    +0.000 C 
ATOM      3  O   UNL     1       2.598   7.369  19.942  0.00  0.00    +0.000 OA
ATOM      4  H   UNL     1       2.060   8.195  16.912  0.00  0.00    +0.000 HD
ENDROOT
BRANCH   2   5
ATOM      5  C   UNL     1       3.092   6.074  18.004  0.00  0.00    +0.000 A 
ATOM      6  C   UNL     1       4.262   6.228  17.242  0.00  0.00    +0.000 A 
ATOM      7  C   UNL     1       4.830   5.137  16.603  0.00  0.00    +0.000 A 
ATOM      8 BR   UNL     1       6.386   5.368  15.552  0.00  0.00    +0.000 Br
ATOM      9  C   UNL     1       4.267   3.875  16.736  0.00  0.00    +0.000 A 
ATOM     10  C   UNL     1       3.104   3.690  17.499  0.00  0.00    +0.000 A 
ATOM     11  C   UNL     1       2.508   4.795  18.151  0.00  0.00    +0.000 A 
BRANCH  10  12
ATOM     12  O   UNL     1       2.545   2.446  17.661  0.00  0.00    +0.000 OA
ATOM     13  C   UNL     1       3.263   1.501  18.447  0.00  0.00    +0.000 C 
ENDBRANCH  10  12
BRANCH  11  14
ATOM     14  O   UNL     1       1.315   4.742  18.832  0.00  0.00    +0.000 OA
ATOM     15  C   UNL     1       1.318   4.211  20.154  0.00  0.00    +0.000 C 
ENDBRANCH  11  14
ENDBRANCH   2   5
BRANCH   1  16
ATOM     16  C   UNL     1       1.847   9.651  18.427  0.00  0.00    +0.000 C 
BRANCH  16  21
ATOM     17  N   UNL     1      -0.307  11.153  18.562  0.00  0.00    +0.000 NA
ATOM     18  C   UNL     1      -1.296  11.259  19.659  0.00  0.00    +0.000 C 
ATOM     19  C   UNL     1      -0.591  10.662  20.860  0.00  0.00    +0.000 C 
ATOM     20  C   UNL     1       0.104   9.460  20.264  0.00  0.00    +0.000 C 
ATOM     21  C   UNL     1       0.366   9.845  18.797  0.00  0.00    +0.000 C 
BRANCH  17  23
ATOM     22  C   UNL     1      -0.229  13.700  18.452  0.00  0.00    +0.000 C 
ATOM     23  C   UNL     1       0.518  12.372  18.528  0.00  0.00    +0.000 C 
ENDBRANCH  17  23
ENDBRANCH  16  21
ENDBRANCH   1  16
TORSDOF 6
ENDMDL
MODEL 6
REMARK VINA RESULT:      -6.2      5.691      7.681
REMARK  Name = 
REMARK  9 active torsions:
REMARK  status: ('A' for Active; 'I' for Inactive)
REMARK    1  A    between atoms: C_1  and  C_2
REMARK    2  A    between atoms: C_2  and  N_3
REMARK    3  A    between atoms: C_7  and  C_8
REMARK    4  A    between atoms: C_8  and  N_9
REMARK    5  A    between atoms: C_10  and  C_12
REMARK    6  A    between atoms: C_17  and  O_18
REMARK    7  A    between atoms: O_18  and  C_19
REMARK    8  A    between atoms: C_20  and  O_21
REMARK    9  A    between atoms: O_21  and  C_22
REMARK                            x       y       z     vdW  Elec       q    Type
REMARK                         _______ _______ _______ _____ _____    ______ ____
ROOT
ATOM      1  N   UNL     1       2.035   8.143  19.460  0.00  0.00    +0.000 N 
ATOM      2  C   UNL     1       1.390   9.173  18.785  0.00  0.00    +0.000 C 
ATOM      3  O   UNL     1       1.158   9.131  17.584  0.00  0.00    +0.000 OA
ATOM      4  H   UNL     1       2.160   8.188  20.458  0.00  0.00    +0.000 HD
ENDROOT
BRANCH   2   5
ATOM      5  C   UNL     1       1.052  10.381  19.610  0.00  0.00    +0.000 A 
ATOM      6  C   UNL     1       1.147  11.636  18.987  0.00  0.00    +0.000 A 
ATOM      7  C   UNL     1       0.792  12.787  19.673  0.00  0.00    +0.000 A 
ATOM      8 BR   UNL     1       0.958  14.473  18.831  0.00  0.00    +0.000 Br
ATOM      9  C   UNL     1       0.310  12.708  20.973  0.00  0.00    +0.000 A 
ATOM     10  C   UNL     1       0.196  11.467  21.617  0.00  0.00    +0.000 A 
ATOM     11  C   UNL     1       0.562  10.284  20.932  0.00  0.00    +0.000 A 
BRANCH  10  12
ATOM     12  O   UNL     1      -0.300  11.366  22.894  0.00  0.00    +0.000 OA
ATOM     13  C   UNL     1      -1.677  11.668  23.088  0.00  0.00    +0.000 C 
ENDBRANCH  10  12
BRANCH  11  14
ATOM     14  O   UNL     1       0.588   9.034  21.504  0.00  0.00    +0.000 OA
ATOM     15  C   UNL     1      -0.653   8.372  21.734  0.00  0.00    +0.000 C 
ENDBRANCH  11  14
ENDBRANCH   2   5
BRANCH   1  16
ATOM     16  C   UNL     1       2.673   7.037  18.762  0.00  0.00    +0.000 C 
BRANCH  16  21
ATOM     17  N   UNL     1       3.186   4.480  19.096  0.00  0.00    +0.000 NA
ATOM     18  C   UNL     1       2.581   3.530  20.057  0.00  0.00    +0.000 C 
ATOM     19  C   UNL     1       1.306   4.214  20.510  0.00  0.00    +0.000 C 
ATOM     20  C   UNL     1       1.750   5.648  20.679  0.00  0.00    +0.000 C 
ATOM     21  C   UNL     1       2.907   5.822  19.678  0.00  0.00    +0.000 C 
BRANCH  17  23
ATOM     22  C   UNL     1       2.560   2.712  17.368  0.00  0.00    +0.000 C 
ATOM     23  C   UNL     1       2.693   4.185  17.740  0.00  0.00    +0.000 C 
ENDBRANCH  17  23
ENDBRANCH  16  21
ENDBRANCH   1  16
TORSDOF 6
ENDMDL
MODEL 7
REMARK VINA RESULT:      -6.2      5.845      7.764
REMARK  Name = 
REMARK  9 active torsions:
REMARK  status: ('A' for Active; 'I' for Inactive)
REMARK    1  A    between atoms: C_1  and  C_2
REMARK    2  A    between atoms: C_2  and  N_3
REMARK    3  A    between atoms: C_7  and  C_8
REMARK    4  A    between atoms: C_8  and  N_9
REMARK    5  A    between atoms: C_10  and  C_12
REMARK    6  A    between atoms: C_17  and  O_18
REMARK    7  A    between atoms: O_18  and  C_19
REMARK    8  A    between atoms: C_20  and  O_21
REMARK    9  A    between atoms: O_21  and  C_22
REMARK                            x       y       z     vdW  Elec       q    Type
REMARK                         _______ _______ _______ _____ _____    ______ ____
ROOT
ATOM      1  N   UNL     1       1.433   8.083  19.018  0.00  0.00    +0.000 N 
ATOM      2  C   UNL     1       1.314   9.238  18.254  0.00  0.00    +0.000 C 
ATOM      3  O   UNL     1       2.168   9.587  17.449  0.00  0.00    +0.000 OA
ATOM      4  H   UNL     1       0.687   7.798  19.631  0.00  0.00    +0.000 HD
ENDROOT
BRANCH   2   5
ATOM      5  C   UNL     1       0.099  10.076  18.526  0.00  0.00    +0.000 A 
ATOM      6  C   UNL     1      -0.906  10.094  17.545  0.00  0.00    +0.000 A 
ATOM      7  C   UNL     1      -2.080  10.799  17.759  0.00  0.00    +0.000 A 
ATOM      8 BR   UNL     1      -3.410  10.843  16.413  0.00  0.00    +0.000 Br
ATOM      9  C   UNL     1      -2.287  11.469  18.957  0.00  0.00    +0.000 A 
ATOM     10  C   UNL     1      -1.305  11.460  19.958  0.00  0.00    +0.000 A 
ATOM     11  C   UNL     1      -0.098  10.751  19.752  0.00  0.00    +0.000 A 
BRANCH  10  12
ATOM     12  O   UNL     1      -1.501  12.098  21.159  0.00  0.00    +0.000 OA
ATOM     13  C   UNL     1      -2.583  13.018  21.244  0.00  0.00    +0.000 C 
ENDBRANCH  10  12
BRANCH  11  14
ATOM     14  O   UNL     1       0.968  10.766  20.621  0.00  0.00    +0.000 OA
ATOM     15  C   UNL     1       0.887   9.968  21.798  0.00  0.00    +0.000 C 
ENDBRANCH  11  14
ENDBRANCH   2   5
BRANCH   1  16
ATOM     16  C   UNL     1       2.669   7.316  19.080  0.00  0.00    +0.000 C 
BRANCH  16  21
ATOM     17  N   UNL     1       2.289   4.829  18.319  0.00  0.00    +0.000 NA
ATOM     18  C   UNL     1       3.163   3.969  17.488  0.00  0.00    +0.000 C 
ATOM     19  C   UNL     1       4.513   4.657  17.526  0.00  0.00    +0.000 C 
ATOM     20  C   UNL     1       4.139   6.114  17.392  0.00  0.00    +0.000 C 
ATOM     21  C   UNL     1       2.730   6.216  18.006  0.00  0.00    +0.000 C 
BRANCH  17  23
ATOM     22  C   UNL     1       1.008   4.056  20.385  0.00  0.00    +0.000 C 
ATOM     23  C   UNL     1       2.343   4.373  19.718  0.00  0.00    +0.000 C 
ENDBRANCH  17  23
ENDBRANCH  16  21
ENDBRANCH   1  16
TORSDOF 6
ENDMDL
MODEL 8
REMARK VINA RESULT:      -6.2      5.473      7.479
REMARK  Name = 
REMARK  9 active torsions:
REMARK  status: ('A' for Active; 'I' for Inactive)
REMARK    1  A    between atoms: C_1  and  C_2
REMARK    2  A    between atoms: C_2  and  N_3
REMARK    3  A    between atoms: C_7  and  C_8
REMARK    4  A    between atoms: C_8  and  N_9
REMARK    5  A    between atoms: C_10  and  C_12
REMARK    6  A    between atoms: C_17  and  O_18
REMARK    7  A    between atoms: O_18  and  C_19
REMARK    8  A    between atoms: C_20  and  O_21
REMARK    9  A    between atoms: O_21  and  C_22
REMARK                            x       y       z     vdW  Elec       q    Type
REMARK                         _______ _______ _______ _____ _____    ______ ____
ROOT
ATOM      1  N   UNL     1       1.831   7.817  19.292  0.00  0.00    +0.000 N 
ATOM      2  C   UNL     1       1.569   8.937  18.510  0.00  0.00    +0.000 C 
ATOM      3  O   UNL     1       2.191   9.186  17.486  0.00  0.00    +0.000 OA
ATOM      4  H   UNL     1       1.264   7.615  20.098  0.00  0.00    +0.000 HD
ENDROOT
BRANCH   2   5
ATOM      5  C   UNL     1       0.517   9.868  19.039  0.00  0.00    +0.000 A 
ATOM      6  C   UNL     1      -0.558  10.176  18.190  0.00  0.00    +0.000 A 
ATOM      7  C   UNL     1      -1.595  10.981  18.636  0.00  0.00    +0.000 A 
ATOM      8 BR   UNL     1      -3.019  11.416  17.469  0.00  0.00    +0.000 Br
ATOM      9  C   UNL     1      -1.595  11.466  19.937  0.00  0.00    +0.000 A 
ATOM     10  C   UNL     1      -0.539  11.166  20.811  0.00  0.00    +0.000 A 
ATOM     11  C   UNL     1       0.530  10.352  20.367  0.00  0.00    +0.000 A 
BRANCH  10  12
ATOM     12  O   UNL     1      -0.533  11.617  22.108  0.00  0.00    +0.000 OA
ATOM     13  C   UNL     1      -1.591  11.185  22.958  0.00  0.00    +0.000 C 
ENDBRANCH  10  12
BRANCH  11  14
ATOM     14  O   UNL     1       1.659  10.086  21.104  0.00  0.00    +0.000 OA
ATOM     15  C   UNL     1       1.541   9.218  22.228  0.00  0.00    +0.000 C 
ENDBRANCH  11  14
ENDBRANCH   2   5
BRANCH   1  16
ATOM     16  C   UNL     1       2.996   6.973  19.074  0.00  0.00    +0.000 C 
BRANCH  16  21
ATOM     17  N   UNL     1       3.163   4.354  19.231  0.00  0.00    +0.000 NA
ATOM     18  C   UNL     1       2.304   3.414  19.987  0.00  0.00    +0.000 C 
ATOM     19  C   UNL     1       1.054   4.213  20.298  0.00  0.00    +0.000 C 
ATOM     20  C   UNL     1       1.618   5.563  20.675  0.00  0.00    +0.000 C 
ATOM     21  C   UNL     1       2.938   5.670  19.891  0.00  0.00    +0.000 C 
BRANCH  17  23
ATOM     22  C   UNL     1       4.023   3.757  16.905  0.00  0.00    +0.000 C 
ATOM     23  C   UNL     1       2.875   4.231  17.792  0.00  0.00    +0.000 C 
ENDBRANCH  17  23
ENDBRANCH  16  21
ENDBRANCH   1  16
TORSDOF 6
ENDMDL
MODEL 9
REMARK VINA RESULT:      -6.1      4.302      5.842
REMARK  Name = 
REMARK  9 active torsions:
REMARK  status: ('A' for Active; 'I' for Inactive)
REMARK    1  A    between atoms: C_1  and  C_2
REMARK    2  A    between atoms: C_2  and  N_3
REMARK    3  A    between atoms: C_7  and  C_8
REMARK    4  A    between atoms: C_8  and  N_9
REMARK    5  A    between atoms: C_10  and  C_12
REMARK    6  A    between atoms: C_17  and  O_18
REMARK    7  A    between atoms: O_18  and  C_19
REMARK    8  A    between atoms: C_20  and  O_21
REMARK    9  A    between atoms: O_21  and  C_22
REMARK                            x       y       z     vdW  Elec       q    Type
REMARK                         _______ _______ _______ _____ _____    ______ ____
ROOT
ATOM      1  N   UNL     1       1.852   8.518  19.456  0.00  0.00    +0.000 N 
ATOM      2  C   UNL     1       2.400   8.179  18.223  0.00  0.00    +0.000 C 
ATOM      3  O   UNL     1       2.235   8.861  17.220  0.00  0.00    +0.000 OA
ATOM      4  H   UNL     1       2.053   7.964  20.272  0.00  0.00    +0.000 HD
ENDROOT
BRANCH   2   5
ATOM      5  C   UNL     1       3.152   6.882  18.180  0.00  0.00    +0.000 A 
ATOM      6  C   UNL     1       4.081   6.707  17.141  0.00  0.00    +0.000 A 
ATOM      7  C   UNL     1       4.852   5.558  17.076  0.00  0.00    +0.000 A 
ATOM      8 BR   UNL     1       6.073   5.323  15.650  0.00  0.00    +0.000 Br
ATOM      9  C   UNL     1       4.738   4.581  18.056  0.00  0.00    +0.000 A 
ATOM     10  C   UNL     1       3.826   4.732  19.111  0.00  0.00    +0.000 A 
ATOM     11  C   UNL     1       3.026   5.897  19.186  0.00  0.00    +0.000 A 
BRANCH  10  12
ATOM     12  O   UNL     1       3.715   3.788  20.102  0.00  0.00    +0.000 OA
ATOM     13  C   UNL     1       4.096   2.454  19.783  0.00  0.00    +0.000 C 
ENDBRANCH  10  12
BRANCH  11  14
ATOM     14  O   UNL     1       2.032   6.095  20.115  0.00  0.00    +0.000 OA
ATOM     15  C   UNL     1       1.157   5.009  20.407  0.00  0.00    +0.000 C 
ENDBRANCH  11  14
ENDBRANCH   2   5
BRANCH   1  16
ATOM     16  C   UNL     1       0.872   9.583  19.605  0.00  0.00    +0.000 C 
BRANCH  16  21
ATOM     17  N   UNL     1      -0.684  10.550  21.489  0.00  0.00    +0.000 NA
ATOM     18  C   UNL     1      -0.747  10.178  22.922  0.00  0.00    +0.000 C 
ATOM     19  C   UNL     1       0.555   9.447  23.178  0.00  0.00    +0.000 C 
ATOM     20  C   UNL     1       0.698   8.595  21.938  0.00  0.00    +0.000 C 
ATOM     21  C   UNL     1      -0.030   9.383  20.834  0.00  0.00    +0.000 C 
BRANCH  17  23
ATOM     22  C   UNL     1      -0.816  12.909  20.528  0.00  0.00    +0.000 C 
ATOM     23  C   UNL     1      -0.057  11.874  21.355  0.00  0.00    +0.000 C 
ENDBRANCH  17  23
ENDBRANCH  16  21
ENDBRANCH   1  16
TORSDOF 6
ENDMDL
