MODEL 1
REMARK VINA RESULT:      -8.7      0.000      0.000
REMARK  Name = 
REMARK  9 active torsions:
REMARK  status: ('A' for Active; 'I' for Inactive)
REMARK    1  A    between atoms: C_1  and  C_2
REMARK    2  A    between atoms: C_2  and  C_3
REMARK    3  A    between atoms: C_2  and  O_4
REMARK    4  A    between atoms: O_4  and  C_5
REMARK    5  A    between atoms: N_13  and  C_14
REMARK    6  A    between atoms: C_14  and  C_15
REMARK    7  A    between atoms: C_15  and  C_16
REMARK    8  A    between atoms: N_26  and  C_27
REMARK    9  A    between atoms: C_30  and  O_31
REMARK                            x       y       z     vdW  Elec       q    Type
REMARK                         _______ _______ _______ _____ _____    ______ ____
ROOT
ATOM      1  C   UNL     1       0.751  12.378  20.178  0.00  0.00    +0.000 A 
ATOM      2  N   UNL     1       1.836  12.535  19.485  0.00  0.00    +0.000 NA
ATOM      3  C   UNL     1       2.129  13.791  18.947  0.00  0.00    +0.000 A 
ATOM      4  C   UNL     1       3.322  13.964  18.244  0.00  0.00    +0.000 A 
ATOM      5  C   UNL     1       3.668  15.215  17.723  0.00  0.00    +0.000 A 
ATOM      6  C   UNL     1       2.813  16.302  17.893  0.00  0.00    +0.000 A 
ATOM      7  C   UNL     1       1.604  16.133  18.567  0.00  0.00    +0.000 A 
ATOM      8  C   UNL     1       1.271  14.876  19.088  0.00  0.00    +0.000 A 
ATOM      9  C   UNL     1       0.015  14.663  19.826  0.00  0.00    +0.000 A 
ATOM     10  O   UNL     1      -0.796  15.587  19.872  0.00  0.00    +0.000 OA
ATOM     11  N   UNL     1      -0.140  13.409  20.433  0.00  0.00    +0.000 N 
ENDROOT
BRANCH  11  12
ATOM     12  C   UNL     1      -1.288  13.239  21.257  0.00  0.00    +0.000 A 
ATOM     13  C   UNL     1      -1.155  13.329  22.650  0.00  0.00    +0.000 A 
ATOM     14  C   UNL     1      -2.227  13.014  23.483  0.00  0.00    +0.000 A 
ATOM     15  C   UNL     1      -3.429  12.600  22.919  0.00  0.00    +0.000 A 
ATOM     16  C   UNL     1      -3.593  12.553  21.538  0.00  0.00    +0.000 A 
ATOM     17  C   UNL     1      -2.521  12.876  20.699  0.00  0.00    +0.000 A 
BRANCH  15  18
ATOM     18  O   UNL     1      -4.470  12.200  23.702  0.00  0.00    +0.000 OA
ATOM     19  H   UNL     1      -5.246  12.739  23.473  0.00  0.00    +0.000 HD
ENDBRANCH  15  18
ENDBRANCH  11  12
BRANCH   1  20
ATOM     20  C   UNL     1       0.466  10.980  20.721  0.00  0.00    +0.000 C 
BRANCH  20  21
ATOM     21  C   UNL     1       0.075  10.024  19.585  0.00  0.00    +0.000 C 
BRANCH  21  30
ATOM     22  C   UNL     1       2.728   5.882  19.787  0.00  0.00    +0.000 A 
ATOM     23  C   UNL     1       3.696   5.323  18.943  0.00  0.00    +0.000 A 
ATOM     24  C   UNL     1       4.204   6.032  17.824  0.00  0.00    +0.000 A 
ATOM     25  C   UNL     1       3.703   7.293  17.493  0.00  0.00    +0.000 A 
ATOM     26  C   UNL     1       2.758   7.827  18.349  0.00  0.00    +0.000 A 
ATOM     27  C   UNL     1       2.360   7.181  19.509  0.00  0.00    +0.000 A 
ATOM     28  C   UNL     1       1.523   8.138  20.228  0.00  0.00    +0.000 C 
ATOM     29  O   UNL     1       1.331   8.139  21.428  0.00  0.00    +0.000 OA
ATOM     30  N   UNL     1       1.118   9.055  19.311  0.00  0.00    +0.000 N 
ATOM     31  C   UNL     1       1.934   9.035  18.223  0.00  0.00    +0.000 C 
ATOM     32  O   UNL     1       1.994   9.820  17.286  0.00  0.00    +0.000 OA
BRANCH  22  33
ATOM     33  O   UNL     1       2.236   5.093  20.792  0.00  0.00    +0.000 OA
BRANCH  33  35
ATOM     34  C   UNL     1       2.097   2.880  21.815  0.00  0.00    +0.000 C 
ATOM     35  C   UNL     1       2.087   3.684  20.521  0.00  0.00    +0.000 C 
ATOM     36  C   UNL     1       0.791   3.460  19.751  0.00  0.00    +0.000 C 
ENDBRANCH  33  35
ENDBRANCH  22  33
ENDBRANCH  21  30
ENDBRANCH  20  21
ENDBRANCH   1  20
TORSDOF 7
ENDMDL
MODEL 2
REMARK VINA RESULT:      -8.5      2.552      4.457
REMARK  Name = 
REMARK  9 active torsions:
REMARK  status: ('A' for Active; 'I' for Inactive)
REMARK    1  A    between atoms: C_1  and  C_2
REMARK    2  A    between atoms: C_2  and  C_3
REMARK    3  A    between atoms: C_2  and  O_4
REMARK    4  A    between atoms: O_4  and  C_5
REMARK    5  A    between atoms: N_13  and  C_14
REMARK    6  A    between atoms: C_14  and  C_15
REMARK    7  A    between atoms: C_15  and  C_16
REMARK    8  A    between atoms: N_26  and  C_27
REMARK    9  A    between atoms: C_30  and  O_31
REMARK                            x       y       z     vdW  Elec       q    Type
REMARK                         _______ _______ _______ _____ _____    ______ ____
ROOT
ATOM      1  C   UNL     1      -1.057  10.946  19.625  0.00  0.00    +0.000 A 
ATOM      2  N   UNL     1      -1.128  10.264  18.524  0.00  0.00    +0.000 NA
ATOM      3  C   UNL     1      -2.197  10.483  17.651  0.00  0.00    +0.000 A 
ATOM      4  C   UNL     1      -2.239   9.781  16.445  0.00  0.00    +0.000 A 
ATOM      5  C   UNL     1      -3.272   9.999  15.528  0.00  0.00    +0.000 A 
ATOM      6  C   UNL     1      -4.281  10.917  15.820  0.00  0.00    +0.000 A 
ATOM      7  C   UNL     1      -4.264  11.600  17.035  0.00  0.00    +0.000 A 
ATOM      8  C   UNL     1      -3.221  11.376  17.942  0.00  0.00    +0.000 A 
ATOM      9  C   UNL     1      -3.156  12.096  19.225  0.00  0.00    +0.000 A 
ATOM     10  O   UNL     1      -4.105  12.812  19.538  0.00  0.00    +0.000 OA
ATOM     11  N   UNL     1      -1.991  11.906  19.981  0.00  0.00    +0.000 N 
ENDROOT
BRANCH  11  12
ATOM     12  C   UNL     1      -1.860  12.698  21.157  0.00  0.00    +0.000 A 
ATOM     13  C   UNL     1      -1.170  13.916  21.094  0.00  0.00    +0.000 A 
ATOM     14  C   UNL     1      -0.894  14.633  22.257  0.00  0.00    +0.000 A 
ATOM     15  C   UNL     1      -1.304  14.123  23.484  0.00  0.00    +0.000 A 
ATOM     16  C   UNL     1      -2.033  12.940  23.560  0.00  0.00    +0.000 A 
ATOM     17  C   UNL     1      -2.318  12.223  22.394  0.00  0.00    +0.000 A 
BRANCH  15  18
ATOM     18  O   UNL     1      -0.977  14.749  24.649  0.00  0.00    +0.000 OA
ATOM     19  H   UNL     1      -0.415  15.514  24.435  0.00  0.00    +0.000 HD
ENDBRANCH  15  18
ENDBRANCH  11  12
BRANCH   1  20
ATOM     20  C   UNL     1       0.116  10.650  20.555  0.00  0.00    +0.000 C 
BRANCH  20  21
ATOM     21  C   UNL     1       1.409  10.444  19.754  0.00  0.00    +0.000 C 
BRANCH  21  30
ATOM     22  C   UNL     1       3.483   6.328  18.026  0.00  0.00    +0.000 A 
ATOM     23  C   UNL     1       3.587   5.023  18.529  0.00  0.00    +0.000 A 
ATOM     24  C   UNL     1       2.909   4.628  19.710  0.00  0.00    +0.000 A 
ATOM     25  C   UNL     1       2.162   5.549  20.446  0.00  0.00    +0.000 A 
ATOM     26  C   UNL     1       2.065   6.826  19.922  0.00  0.00    +0.000 A 
ATOM     27  C   UNL     1       2.627   7.170  18.702  0.00  0.00    +0.000 A 
ATOM     28  C   UNL     1       2.141   8.515  18.408  0.00  0.00    +0.000 C 
ATOM     29  O   UNL     1       2.046   9.000  17.298  0.00  0.00    +0.000 OA
ATOM     30  N   UNL     1       1.728   9.039  19.592  0.00  0.00    +0.000 N 
ATOM     31  C   UNL     1       1.496   8.050  20.496  0.00  0.00    +0.000 C 
ATOM     32  O   UNL     1       0.956   8.115  21.593  0.00  0.00    +0.000 OA
BRANCH  22  33
ATOM     33  O   UNL     1       4.239   6.642  16.930  0.00  0.00    +0.000 OA
BRANCH  33  35
ATOM     34  C   UNL     1       5.554   5.513  15.209  0.00  0.00    +0.000 C 
ATOM     35  C   UNL     1       5.424   5.855  16.687  0.00  0.00    +0.000 C 
ATOM     36  C   UNL     1       6.643   6.629  17.176  0.00  0.00    +0.000 C 
ENDBRANCH  33  35
ENDBRANCH  22  33
ENDBRANCH  21  30
ENDBRANCH  20  21
ENDBRANCH   1  20
TORSDOF 7
ENDMDL
MODEL 3
REMARK VINA RESULT:      -8.4      3.113      9.083
REMARK  Name = 
REMARK  9 active torsions:
REMARK  status: ('A' for Active; 'I' for Inactive)
REMARK    1  A    between atoms: C_1  and  C_2
REMARK    2  A    between atoms: C_2  and  C_3
REMARK    3  A    between atoms: C_2  and  O_4
REMARK    4  A    between atoms: O_4  and  C_5
REMARK    5  A    between atoms: N_13  and  C_14
REMARK    6  A    between atoms: C_14  and  C_15
REMARK    7  A    between atoms: C_15  and  C_16
REMARK    8  A    between atoms: N_26  and  C_27
REMARK    9  A    between atoms: C_30  and  O_31
REMARK                            x       y       z     vdW  Elec       q    Type
REMARK                         _______ _______ _______ _____ _____    ______ ____
ROOT
ATOM      1  C   UNL     1       3.681   5.698  18.238  0.00  0.00    +0.000 A 
ATOM      2  N   UNL     1       4.302   6.292  17.266  0.00  0.00    +0.000 NA
ATOM      3  C   UNL     1       4.933   5.522  16.285  0.00  0.00    +0.000 A 
ATOM      4  C   UNL     1       5.556   6.168  15.216  0.00  0.00    +0.000 A 
ATOM      5  C   UNL     1       6.165   5.431  14.195  0.00  0.00    +0.000 A 
ATOM      6  C   UNL     1       6.164   4.038  14.244  0.00  0.00    +0.000 A 
ATOM      7  C   UNL     1       5.571   3.384  15.323  0.00  0.00    +0.000 A 
ATOM      8  C   UNL     1       4.960   4.133  16.336  0.00  0.00    +0.000 A 
ATOM      9  C   UNL     1       4.303   3.478  17.480  0.00  0.00    +0.000 A 
ATOM     10  O   UNL     1       4.406   2.258  17.589  0.00  0.00    +0.000 OA
ATOM     11  N   UNL     1       3.594   4.320  18.349  0.00  0.00    +0.000 N 
ENDROOT
BRANCH  11  12
ATOM     12  C   UNL     1       2.846   3.684  19.380  0.00  0.00    +0.000 A 
ATOM     13  C   UNL     1       1.446   3.731  19.345  0.00  0.00    +0.000 A 
ATOM     14  C   UNL     1       0.697   3.254  20.419  0.00  0.00    +0.000 A 
ATOM     15  C   UNL     1       1.352   2.736  21.531  0.00  0.00    +0.000 A 
ATOM     16  C   UNL     1       2.740   2.635  21.561  0.00  0.00    +0.000 A 
ATOM     17  C   UNL     1       3.494   3.107  20.482  0.00  0.00    +0.000 A 
BRANCH  15  18
ATOM     18  O   UNL     1       0.658   2.341  22.634  0.00  0.00    +0.000 OA
ATOM     19  H   UNL     1       0.702   3.055  23.293  0.00  0.00    +0.000 HD
ENDBRANCH  15  18
ENDBRANCH  11  12
BRANCH   1  20
ATOM     20  C   UNL     1       3.033   6.586  19.297  0.00  0.00    +0.000 C 
BRANCH  20  21
ATOM     21  C   UNL     1       2.150   7.658  18.643  0.00  0.00    +0.000 C 
BRANCH  21  30
ATOM     22  C   UNL     1      -0.730  11.142  20.592  0.00  0.00    +0.000 A 
ATOM     23  C   UNL     1      -1.251  11.346  21.877  0.00  0.00    +0.000 A 
ATOM     24  C   UNL     1      -0.865  10.531  22.972  0.00  0.00    +0.000 A 
ATOM     25  C   UNL     1       0.005   9.455  22.787  0.00  0.00    +0.000 A 
ATOM     26  C   UNL     1       0.514   9.282  21.513  0.00  0.00    +0.000 A 
ATOM     27  C   UNL     1       0.229  10.159  20.477  0.00  0.00    +0.000 A 
ATOM     28  C   UNL     1       1.098   9.763  19.373  0.00  0.00    +0.000 C 
ATOM     29  O   UNL     1       1.464  10.491  18.472  0.00  0.00    +0.000 OA
ATOM     30  N   UNL     1       1.483   8.485  19.630  0.00  0.00    +0.000 N 
ATOM     31  C   UNL     1       1.316   8.192  20.948  0.00  0.00    +0.000 C 
ATOM     32  O   UNL     1       1.707   7.220  21.580  0.00  0.00    +0.000 OA
BRANCH  22  33
ATOM     33  O   UNL     1      -1.223  11.922  19.582  0.00  0.00    +0.000 OA
BRANCH  33  35
ATOM     34  C   UNL     1      -3.611  12.107  19.101  0.00  0.00    +0.000 C 
ATOM     35  C   UNL     1      -2.306  11.386  18.791  0.00  0.00    +0.000 C 
ATOM     36  C   UNL     1      -1.951  11.511  17.314  0.00  0.00    +0.000 C 
ENDBRANCH  33  35
ENDBRANCH  22  33
ENDBRANCH  21  30
ENDBRANCH  20  21
ENDBRANCH   1  20
TORSDOF 7
ENDMDL
MODEL 4
REMARK VINA RESULT:      -8.3      2.459      3.781
REMARK  Name = 
REMARK  9 active torsions:
REMARK  status: ('A' for Active; 'I' for Inactive)
REMARK    1  A    between atoms: C_1  and  C_2
REMARK    2  A    between atoms: C_2  and  C_3
REMARK    3  A    between atoms: C_2  and  O_4
REMARK    4  A    between atoms: O_4  and  C_5
REMARK    5  A    between atoms: N_13  and  C_14
REMARK    6  A    between atoms: C_14  and  C_15
REMARK    7  A    between atoms: C_15  and  C_16
REMARK    8  A    between atoms: N_26  and  C_27
REMARK    9  A    between atoms: C_30  and  O_31
REMARK                            x       y       z     vdW  Elec       q    Type
REMARK                         _______ _______ _______ _____ _____    ______ ____
ROOT
ATOM      1  C   UNL     1      -0.622  10.752  18.894  0.00  0.00    +0.000 A 
ATOM      2  N   UNL     1      -0.881  10.167  17.766  0.00  0.00    +0.000 NA
ATOM      3  C   UNL     1      -2.094  10.425  17.123  0.00  0.00    +0.000 A 
ATOM      4  C   UNL     1      -2.344   9.830  15.885  0.00  0.00    +0.000 A 
ATOM      5  C   UNL     1      -3.530  10.093  15.193  0.00  0.00    +0.000 A 
ATOM      6  C   UNL     1      -4.484  10.948  15.744  0.00  0.00    +0.000 A 
ATOM      7  C   UNL     1      -4.258  11.523  16.994  0.00  0.00    +0.000 A 
ATOM      8  C   UNL     1      -3.064  11.256  17.674  0.00  0.00    +0.000 A 
ATOM      9  C   UNL     1      -2.778  11.862  18.986  0.00  0.00    +0.000 A 
ATOM     10  O   UNL     1      -3.666  12.516  19.528  0.00  0.00    +0.000 OA
ATOM     11  N   UNL     1      -1.492  11.646  19.499  0.00  0.00    +0.000 N 
ENDROOT
BRANCH  11  12
ATOM     12  C   UNL     1      -1.162  12.336  20.700  0.00  0.00    +0.000 A 
ATOM     13  C   UNL     1      -1.492  11.764  21.936  0.00  0.00    +0.000 A 
ATOM     14  C   UNL     1      -1.323  12.486  23.116  0.00  0.00    +0.000 A 
ATOM     15  C   UNL     1      -0.830  13.785  23.055  0.00  0.00    +0.000 A 
ATOM     16  C   UNL     1      -0.451  14.350  21.841  0.00  0.00    +0.000 A 
ATOM     17  C   UNL     1      -0.613  13.625  20.656  0.00  0.00    +0.000 A 
BRANCH  15  18
ATOM     18  O   UNL     1      -0.733  14.552  24.176  0.00  0.00    +0.000 OA
ATOM     19  H   UNL     1       0.037  15.137  24.078  0.00  0.00    +0.000 HD
ENDBRANCH  15  18
ENDBRANCH  11  12
BRANCH   1  20
ATOM     20  C   UNL     1       0.706  10.414  19.567  0.00  0.00    +0.000 C 
BRANCH  20  21
ATOM     21  C   UNL     1       0.711   8.962  20.064  0.00  0.00    +0.000 C 
BRANCH  21  30
ATOM     22  C   UNL     1       3.372   5.061  18.675  0.00  0.00    +0.000 A 
ATOM     23  C   UNL     1       4.252   4.831  17.609  0.00  0.00    +0.000 A 
ATOM     24  C   UNL     1       4.645   5.876  16.734  0.00  0.00    +0.000 A 
ATOM     25  C   UNL     1       4.113   7.160  16.873  0.00  0.00    +0.000 A 
ATOM     26  C   UNL     1       3.257   7.362  17.940  0.00  0.00    +0.000 A 
ATOM     27  C   UNL     1       2.978   6.367  18.865  0.00  0.00    +0.000 A 
ATOM     28  C   UNL     1       2.217   7.017  19.927  0.00  0.00    +0.000 C 
ATOM     29  O   UNL     1       2.146   6.630  21.077  0.00  0.00    +0.000 OA
ATOM     30  N   UNL     1       1.722   8.165  19.396  0.00  0.00    +0.000 N 
ATOM     31  C   UNL     1       2.425   8.520  18.287  0.00  0.00    +0.000 C 
ATOM     32  O   UNL     1       2.391   9.564  17.650  0.00  0.00    +0.000 OA
BRANCH  22  33
ATOM     33  O   UNL     1       2.984   3.977  19.415  0.00  0.00    +0.000 OA
BRANCH  33  35
ATOM     34  C   UNL     1       1.634   2.174  18.469  0.00  0.00    +0.000 C 
ATOM     35  C   UNL     1       1.637   3.492  19.233  0.00  0.00    +0.000 C 
ATOM     36  C   UNL     1       0.978   3.329  20.599  0.00  0.00    +0.000 C 
ENDBRANCH  33  35
ENDBRANCH  22  33
ENDBRANCH  21  30
ENDBRANCH  20  21
ENDBRANCH   1  20
TORSDOF 7
ENDMDL
MODEL 5
REMARK VINA RESULT:      -8.3      1.516      4.552
REMARK  Name = 
REMARK  9 active torsions:
REMARK  status: ('A' for Active; 'I' for Inactive)
REMARK    1  A    between atoms: C_1  and  C_2
REMARK    2  A    between atoms: C_2  and  C_3
REMARK    3  A    between atoms: C_2  and  O_4
REMARK    4  A    between atoms: O_4  and  C_5
REMARK    5  A    between atoms: N_13  and  C_14
REMARK    6  A    between atoms: C_14  and  C_15
REMARK    7  A    between atoms: C_15  and  C_16
REMARK    8  A    between atoms: N_26  and  C_27
REMARK    9  A    between atoms: C_30  and  O_31
REMARK                            x       y       z     vdW  Elec       q    Type
REMARK                         _______ _______ _______ _____ _____    ______ ____
ROOT
ATOM      1  C   UNL     1       0.266  12.296  20.831  0.00  0.00    +0.000 A 
ATOM      2  N   UNL     1      -0.769  11.770  21.409  0.00  0.00    +0.000 NA
ATOM      3  C   UNL     1      -1.447  12.496  22.391  0.00  0.00    +0.000 A 
ATOM      4  C   UNL     1      -2.589  11.943  22.973  0.00  0.00    +0.000 A 
ATOM      5  C   UNL     1      -3.316  12.655  23.933  0.00  0.00    +0.000 A 
ATOM      6  C   UNL     1      -2.897  13.925  24.326  0.00  0.00    +0.000 A 
ATOM      7  C   UNL     1      -1.740  14.473  23.773  0.00  0.00    +0.000 A 
ATOM      8  C   UNL     1      -1.023  13.753  22.810  0.00  0.00    +0.000 A 
ATOM      9  C   UNL     1       0.189  14.308  22.186  0.00  0.00    +0.000 A 
ATOM     10  O   UNL     1       0.630  15.371  22.617  0.00  0.00    +0.000 OA
ATOM     11  N   UNL     1       0.734  13.567  21.128  0.00  0.00    +0.000 N 
ENDROOT
BRANCH  11  12
ATOM     12  C   UNL     1       1.826  14.159  20.433  0.00  0.00    +0.000 A 
ATOM     13  C   UNL     1       3.111  14.096  20.987  0.00  0.00    +0.000 A 
ATOM     14  C   UNL     1       4.166  14.800  20.408  0.00  0.00    +0.000 A 
ATOM     15  C   UNL     1       3.928  15.572  19.276  0.00  0.00    +0.000 A 
ATOM     16  C   UNL     1       2.670  15.606  18.684  0.00  0.00    +0.000 A 
ATOM     17  C   UNL     1       1.611  14.895  19.259  0.00  0.00    +0.000 A 
BRANCH  15  18
ATOM     18  O   UNL     1       4.912  16.342  18.733  0.00  0.00    +0.000 OA
ATOM     19  H   UNL     1       5.709  16.249  19.283  0.00  0.00    +0.000 HD
ENDBRANCH  15  18
ENDBRANCH  11  12
BRANCH   1  20
ATOM     20  C   UNL     1       0.986  11.450  19.784  0.00  0.00    +0.000 C 
BRANCH  20  21
ATOM     21  C   UNL     1       0.325  10.072  19.648  0.00  0.00    +0.000 C 
BRANCH  21  30
ATOM     22  C   UNL     1       2.715   5.771  19.787  0.00  0.00    +0.000 A 
ATOM     23  C   UNL     1       3.610   5.143  18.910  0.00  0.00    +0.000 A 
ATOM     24  C   UNL     1       4.114   5.809  17.763  0.00  0.00    +0.000 A 
ATOM     25  C   UNL     1       3.681   7.096  17.439  0.00  0.00    +0.000 A 
ATOM     26  C   UNL     1       2.808   7.697  18.327  0.00  0.00    +0.000 A 
ATOM     27  C   UNL     1       2.419   7.088  19.510  0.00  0.00    +0.000 A 
ATOM     28  C   UNL     1       1.675   8.102  20.252  0.00  0.00    +0.000 C 
ATOM     29  O   UNL     1       1.534   8.126  21.459  0.00  0.00    +0.000 OA
ATOM     30  N   UNL     1       1.291   9.035  19.342  0.00  0.00    +0.000 N 
ATOM     31  C   UNL     1       2.059   8.954  18.222  0.00  0.00    +0.000 C 
ATOM     32  O   UNL     1       2.129   9.726  17.275  0.00  0.00    +0.000 OA
BRANCH  22  33
ATOM     33  O   UNL     1       2.217   5.023  20.820  0.00  0.00    +0.000 OA
BRANCH  33  35
ATOM     34  C   UNL     1       1.994   2.852  21.915  0.00  0.00    +0.000 C 
ATOM     35  C   UNL     1       2.036   3.609  20.595  0.00  0.00    +0.000 C 
ATOM     36  C   UNL     1       0.753   3.392  19.801  0.00  0.00    +0.000 C 
ENDBRANCH  33  35
ENDBRANCH  22  33
ENDBRANCH  21  30
ENDBRANCH  20  21
ENDBRANCH   1  20
TORSDOF 7
ENDMDL
MODEL 6
REMARK VINA RESULT:      -8.2      2.540      4.407
REMARK  Name = 
REMARK  9 active torsions:
REMARK  status: ('A' for Active; 'I' for Inactive)
REMARK    1  A    between atoms: C_1  and  C_2
REMARK    2  A    between atoms: C_2  and  C_3
REMARK    3  A    between atoms: C_2  and  O_4
REMARK    4  A    between atoms: O_4  and  C_5
REMARK    5  A    between atoms: N_13  and  C_14
REMARK    6  A    between atoms: C_14  and  C_15
REMARK    7  A    between atoms: C_15  and  C_16
REMARK    8  A    between atoms: N_26  and  C_27
REMARK    9  A    between atoms: C_30  and  O_31
REMARK                            x       y       z     vdW  Elec       q    Type
REMARK                         _______ _______ _______ _____ _____    ______ ____
ROOT
ATOM      1  C   UNL     1      -0.705  10.692  19.377  0.00  0.00    +0.000 A 
ATOM      2  N   UNL     1      -0.903  10.084  18.248  0.00  0.00    +0.000 NA
ATOM      3  C   UNL     1      -2.037  10.396  17.493  0.00  0.00    +0.000 A 
ATOM      4  C   UNL     1      -2.218   9.774  16.256  0.00  0.00    +0.000 A 
ATOM      5  C   UNL     1      -3.320  10.087  15.455  0.00  0.00    +0.000 A 
ATOM      6  C   UNL     1      -4.259  11.020  15.894  0.00  0.00    +0.000 A 
ATOM      7  C   UNL     1      -4.104  11.623  17.141  0.00  0.00    +0.000 A 
ATOM      8  C   UNL     1      -2.993  11.305  17.932  0.00  0.00    +0.000 A 
ATOM      9  C   UNL     1      -2.783  11.938  19.245  0.00  0.00    +0.000 A 
ATOM     10  O   UNL     1      -3.669  12.666  19.687  0.00  0.00    +0.000 OA
ATOM     11  N   UNL     1      -1.562  11.660  19.876  0.00  0.00    +0.000 N 
ENDROOT
BRANCH  11  12
ATOM     12  C   UNL     1      -1.293  12.370  21.080  0.00  0.00    +0.000 A 
ATOM     13  C   UNL     1      -1.860  11.927  22.283  0.00  0.00    +0.000 A 
ATOM     14  C   UNL     1      -1.740  12.690  23.443  0.00  0.00    +0.000 A 
ATOM     15  C   UNL     1      -1.058  13.901  23.395  0.00  0.00    +0.000 A 
ATOM     16  C   UNL     1      -0.446  14.331  22.221  0.00  0.00    +0.000 A 
ATOM     17  C   UNL     1      -0.559  13.564  21.057  0.00  0.00    +0.000 A 
BRANCH  15  18
ATOM     18  O   UNL     1      -0.995  14.714  24.485  0.00  0.00    +0.000 OA
ATOM     19  H   UNL     1      -1.681  15.398  24.394  0.00  0.00    +0.000 HD
ENDBRANCH  15  18
ENDBRANCH  11  12
BRANCH   1  20
ATOM     20  C   UNL     1       0.535  10.295  20.175  0.00  0.00    +0.000 C 
BRANCH  20  21
ATOM     21  C   UNL     1       1.689   9.918  19.236  0.00  0.00    +0.000 C 
BRANCH  21  30
ATOM     22  C   UNL     1       3.874   5.602  18.327  0.00  0.00    +0.000 A 
ATOM     23  C   UNL     1       3.874   4.368  18.993  0.00  0.00    +0.000 A 
ATOM     24  C   UNL     1       3.028   4.127  20.106  0.00  0.00    +0.000 A 
ATOM     25  C   UNL     1       2.210   5.139  20.612  0.00  0.00    +0.000 A 
ATOM     26  C   UNL     1       2.220   6.342  19.930  0.00  0.00    +0.000 A 
ATOM     27  C   UNL     1       2.955   6.528  18.769  0.00  0.00    +0.000 A 
ATOM     28  C   UNL     1       2.550   7.831  18.250  0.00  0.00    +0.000 C 
ATOM     29  O   UNL     1       2.622   8.176  17.087  0.00  0.00    +0.000 OA
ATOM     30  N   UNL     1       1.990   8.500  19.291  0.00  0.00    +0.000 N 
ATOM     31  C   UNL     1       1.610   7.633  20.267  0.00  0.00    +0.000 C 
ATOM     32  O   UNL     1       0.925   7.837  21.260  0.00  0.00    +0.000 OA
BRANCH  22  33
ATOM     33  O   UNL     1       4.783   5.772  17.318  0.00  0.00    +0.000 OA
BRANCH  33  35
ATOM     34  C   UNL     1       5.441   4.218  15.552  0.00  0.00    +0.000 C 
ATOM     35  C   UNL     1       5.641   4.657  16.997  0.00  0.00    +0.000 C 
ATOM     36  C   UNL     1       7.091   5.057  17.249  0.00  0.00    +0.000 C 
ENDBRANCH  33  35
ENDBRANCH  22  33
ENDBRANCH  21  30
ENDBRANCH  20  21
ENDBRANCH   1  20
TORSDOF 7
ENDMDL
MODEL 7
REMARK VINA RESULT:      -8.2      2.530      9.203
REMARK  Name = 
REMARK  9 active torsions:
REMARK  status: ('A' for Active; 'I' for Inactive)
REMARK    1  A    between atoms: C_1  and  C_2
REMARK    2  A    between atoms: C_2  and  C_3
REMARK    3  A    between atoms: C_2  and  O_4
REMARK    4  A    between atoms: O_4  and  C_5
REMARK    5  A    between atoms: N_13  and  C_14
REMARK    6  A    between atoms: C_14  and  C_15
REMARK    7  A    between atoms: C_15  and  C_16
REMARK    8  A    between atoms: N_26  and  C_27
REMARK    9  A    between atoms: C_30  and  O_31
REMARK                            x       y       z     vdW  Elec       q    Type
REMARK                         _______ _______ _______ _____ _____    ______ ____
ROOT
ATOM      1  C   UNL     1       3.725   5.699  18.236  0.00  0.00    +0.000 A 
ATOM      2  N   UNL     1       4.350   6.288  17.264  0.00  0.00    +0.000 NA
ATOM      3  C   UNL     1       4.954   5.515  16.269  0.00  0.00    +0.000 A 
ATOM      4  C   UNL     1       5.581   6.158  15.201  0.00  0.00    +0.000 A 
ATOM      5  C   UNL     1       6.164   5.419  14.166  0.00  0.00    +0.000 A 
ATOM      6  C   UNL     1       6.133   4.026  14.201  0.00  0.00    +0.000 A 
ATOM      7  C   UNL     1       5.536   3.374  15.280  0.00  0.00    +0.000 A 
ATOM      8  C   UNL     1       4.951   4.125  16.306  0.00  0.00    +0.000 A 
ATOM      9  C   UNL     1       4.291   3.474  17.450  0.00  0.00    +0.000 A 
ATOM     10  O   UNL     1       4.368   2.250  17.546  0.00  0.00    +0.000 OA
ATOM     11  N   UNL     1       3.609   4.321  18.335  0.00  0.00    +0.000 N 
ENDROOT
BRANCH  11  12
ATOM     12  C   UNL     1       2.858   3.691  19.366  0.00  0.00    +0.000 A 
ATOM     13  C   UNL     1       1.458   3.770  19.346  0.00  0.00    +0.000 A 
ATOM     14  C   UNL     1       0.709   3.298  20.423  0.00  0.00    +0.000 A 
ATOM     15  C   UNL     1       1.364   2.754  21.522  0.00  0.00    +0.000 A 
ATOM     16  C   UNL     1       2.749   2.622  21.537  0.00  0.00    +0.000 A 
ATOM     17  C   UNL     1       3.504   3.089  20.455  0.00  0.00    +0.000 A 
BRANCH  15  18
ATOM     18  O   UNL     1       0.672   2.363  22.628  0.00  0.00    +0.000 OA
ATOM     19  H   UNL     1       0.354   1.456  22.482  0.00  0.00    +0.000 HD
ENDBRANCH  15  18
ENDBRANCH  11  12
BRANCH   1  20
ATOM     20  C   UNL     1       3.107   6.589  19.310  0.00  0.00    +0.000 C 
BRANCH  20  21
ATOM     21  C   UNL     1       2.169   7.629  18.682  0.00  0.00    +0.000 C 
BRANCH  21  30
ATOM     22  C   UNL     1      -0.503  11.227  20.719  0.00  0.00    +0.000 A 
ATOM     23  C   UNL     1      -1.107  11.379  21.975  0.00  0.00    +0.000 A 
ATOM     24  C   UNL     1      -0.895  10.440  23.018  0.00  0.00    +0.000 A 
ATOM     25  C   UNL     1      -0.124   9.297  22.801  0.00  0.00    +0.000 A 
ATOM     26  C   UNL     1       0.469   9.177  21.558  0.00  0.00    +0.000 A 
ATOM     27  C   UNL     1       0.360  10.160  20.587  0.00  0.00    +0.000 A 
ATOM     28  C   UNL     1       1.274   9.766  19.519  0.00  0.00    +0.000 C 
ATOM     29  O   UNL     1       1.784  10.523  18.717  0.00  0.00    +0.000 OA
ATOM     30  N   UNL     1       1.507   8.438  19.688  0.00  0.00    +0.000 N 
ATOM     31  C   UNL     1       1.204   8.058  20.957  0.00  0.00    +0.000 C 
ATOM     32  O   UNL     1       1.443   7.001  21.526  0.00  0.00    +0.000 OA
BRANCH  22  33
ATOM     33  O   UNL     1      -0.831  12.135  19.749  0.00  0.00    +0.000 OA
BRANCH  33  35
ATOM     34  C   UNL     1       0.471  13.802  18.529  0.00  0.00    +0.000 C 
ATOM     35  C   UNL     1      -0.233  13.445  19.831  0.00  0.00    +0.000 C 
ATOM     36  C   UNL     1      -1.316  14.466  20.161  0.00  0.00    +0.000 C 
ENDBRANCH  33  35
ENDBRANCH  22  33
ENDBRANCH  21  30
ENDBRANCH  20  21
ENDBRANCH   1  20
TORSDOF 7
ENDMDL
MODEL 8
REMARK VINA RESULT:      -8.2      3.208      8.854
REMARK  Name = 
REMARK  9 active torsions:
REMARK  status: ('A' for Active; 'I' for Inactive)
REMARK    1  A    between atoms: C_1  and  C_2
REMARK    2  A    between atoms: C_2  and  C_3
REMARK    3  A    between atoms: C_2  and  O_4
REMARK    4  A    between atoms: O_4  and  C_5
REMARK    5  A    between atoms: N_13  and  C_14
REMARK    6  A    between atoms: C_14  and  C_15
REMARK    7  A    between atoms: C_15  and  C_16
REMARK    8  A    between atoms: N_26  and  C_27
REMARK    9  A    between atoms: C_30  and  O_31
REMARK                            x       y       z     vdW  Elec       q    Type
REMARK                         _______ _______ _______ _____ _____    ______ ____
ROOT
ATOM      1  C   UNL     1       3.053   5.991  17.925  0.00  0.00    +0.000 A 
ATOM      2  N   UNL     1       3.715   6.503  16.933  0.00  0.00    +0.000 NA
ATOM      3  C   UNL     1       4.809   5.810  16.409  0.00  0.00    +0.000 A 
ATOM      4  C   UNL     1       5.485   6.345  15.311  0.00  0.00    +0.000 A 
ATOM      5  C   UNL     1       6.562   5.662  14.735  0.00  0.00    +0.000 A 
ATOM      6  C   UNL     1       6.978   4.442  15.265  0.00  0.00    +0.000 A 
ATOM      7  C   UNL     1       6.329   3.915  16.381  0.00  0.00    +0.000 A 
ATOM      8  C   UNL     1       5.249   4.605  16.945  0.00  0.00    +0.000 A 
ATOM      9  C   UNL     1       4.524   4.070  18.110  0.00  0.00    +0.000 A 
ATOM     10  O   UNL     1       4.964   3.058  18.653  0.00  0.00    +0.000 OA
ATOM     11  N   UNL     1       3.369   4.766  18.492  0.00  0.00    +0.000 N 
ENDROOT
BRANCH  11  12
ATOM     12  C   UNL     1       2.589   4.183  19.530  0.00  0.00    +0.000 A 
ATOM     13  C   UNL     1       2.931   4.425  20.867  0.00  0.00    +0.000 A 
ATOM     14  C   UNL     1       2.283   3.744  21.896  0.00  0.00    +0.000 A 
ATOM     15  C   UNL     1       1.297   2.815  21.583  0.00  0.00    +0.000 A 
ATOM     16  C   UNL     1       0.911   2.599  20.264  0.00  0.00    +0.000 A 
ATOM     17  C   UNL     1       1.555   3.286  19.229  0.00  0.00    +0.000 A 
BRANCH  15  18
ATOM     18  O   UNL     1       0.704   2.067  22.554  0.00  0.00    +0.000 OA
ATOM     19  H   UNL     1       0.693   1.140  22.261  0.00  0.00    +0.000 HD
ENDBRANCH  15  18
ENDBRANCH  11  12
BRANCH   1  20
ATOM     20  C   UNL     1       1.883   6.802  18.476  0.00  0.00    +0.000 C 
BRANCH  20  21
ATOM     21  C   UNL     1       2.352   7.749  19.588  0.00  0.00    +0.000 C 
BRANCH  21  30
ATOM     22  C   UNL     1      -1.101  11.125  18.634  0.00  0.00    +0.000 A 
ATOM     23  C   UNL     1      -1.892  11.945  19.451  0.00  0.00    +0.000 A 
ATOM     24  C   UNL     1      -1.687  12.012  20.853  0.00  0.00    +0.000 A 
ATOM     25  C   UNL     1      -0.727  11.209  21.472  0.00  0.00    +0.000 A 
ATOM     26  C   UNL     1       0.047  10.418  20.642  0.00  0.00    +0.000 A 
ATOM     27  C   UNL     1      -0.075  10.453  19.262  0.00  0.00    +0.000 A 
ATOM     28  C   UNL     1       1.030   9.650  18.747  0.00  0.00    +0.000 C 
ATOM     29  O   UNL     1       1.526   9.764  17.643  0.00  0.00    +0.000 OA
ATOM     30  N   UNL     1       1.439   8.860  19.774  0.00  0.00    +0.000 N 
ATOM     31  C   UNL     1       1.022   9.370  20.964  0.00  0.00    +0.000 C 
ATOM     32  O   UNL     1       1.338   9.042  22.100  0.00  0.00    +0.000 OA
BRANCH  22  33
ATOM     33  O   UNL     1      -1.425  11.060  17.306  0.00  0.00    +0.000 OA
BRANCH  33  35
ATOM     34  C   UNL     1      -3.013  10.910  15.456  0.00  0.00    +0.000 C 
ATOM     35  C   UNL     1      -2.814  10.864  16.965  0.00  0.00    +0.000 C 
ATOM     36  C   UNL     1      -3.281   9.529  17.535  0.00  0.00    +0.000 C 
ENDBRANCH  33  35
ENDBRANCH  22  33
ENDBRANCH  21  30
ENDBRANCH  20  21
ENDBRANCH   1  20
TORSDOF 7
ENDMDL
MODEL 9
REMARK VINA RESULT:      -8.0      2.507      8.887
REMARK  Name = 
REMARK  9 active torsions:
REMARK  status: ('A' for Active; 'I' for Inactive)
REMARK    1  A    between atoms: C_1  and  C_2
REMARK    2  A    between atoms: C_2  and  C_3
REMARK    3  A    between atoms: C_2  and  O_4
REMARK    4  A    between atoms: O_4  and  C_5
REMARK    5  A    between atoms: N_13  and  C_14
REMARK    6  A    between atoms: C_14  and  C_15
REMARK    7  A    between atoms: C_15  and  C_16
REMARK    8  A    between atoms: N_26  and  C_27
REMARK    9  A    between atoms: C_30  and  O_31
REMARK                            x       y       z     vdW  Elec       q    Type
REMARK                         _______ _______ _______ _____ _____    ______ ____
ROOT
ATOM      1  C   UNL     1       3.961   5.575  18.423  0.00  0.00    +0.000 A 
ATOM      2  N   UNL     1       4.615   6.162  17.468  0.00  0.00    +0.000 NA
ATOM      3  C   UNL     1       5.126   5.397  16.417  0.00  0.00    +0.000 A 
ATOM      4  C   UNL     1       5.786   6.042  15.370  0.00  0.00    +0.000 A 
ATOM      5  C   UNL     1       6.279   5.314  14.282  0.00  0.00    +0.000 A 
ATOM      6  C   UNL     1       6.124   3.929  14.241  0.00  0.00    +0.000 A 
ATOM      7  C   UNL     1       5.493   3.272  15.297  0.00  0.00    +0.000 A 
ATOM      8  C   UNL     1       5.000   4.012  16.378  0.00  0.00    +0.000 A 
ATOM      9  C   UNL     1       4.308   3.357  17.501  0.00  0.00    +0.000 A 
ATOM     10  O   UNL     1       4.278   2.128  17.527  0.00  0.00    +0.000 OA
ATOM     11  N   UNL     1       3.723   4.210  18.448  0.00  0.00    +0.000 N 
ENDROOT
BRANCH  11  12
ATOM     12  C   UNL     1       2.941   3.591  19.463  0.00  0.00    +0.000 A 
ATOM     13  C   UNL     1       1.543   3.606  19.361  0.00  0.00    +0.000 A 
ATOM     14  C   UNL     1       0.753   3.146  20.413  0.00  0.00    +0.000 A 
ATOM     15  C   UNL     1       1.365   2.679  21.571  0.00  0.00    +0.000 A 
ATOM     16  C   UNL     1       2.752   2.611  21.670  0.00  0.00    +0.000 A 
ATOM     17  C   UNL     1       3.547   3.065  20.612  0.00  0.00    +0.000 A 
BRANCH  15  18
ATOM     18  O   UNL     1       0.627   2.304  22.652  0.00  0.00    +0.000 OA
ATOM     19  H   UNL     1       0.726   1.344  22.769  0.00  0.00    +0.000 HD
ENDBRANCH  15  18
ENDBRANCH  11  12
BRANCH   1  20
ATOM     20  C   UNL     1       3.447   6.454  19.560  0.00  0.00    +0.000 C 
BRANCH  20  21
ATOM     21  C   UNL     1       1.965   6.798  19.356  0.00  0.00    +0.000 C 
BRANCH  21  30
ATOM     22  C   UNL     1       1.052  11.479  20.577  0.00  0.00    +0.000 A 
ATOM     23  C   UNL     1       1.249  12.698  19.914  0.00  0.00    +0.000 A 
ATOM     24  C   UNL     1       1.683  12.746  18.564  0.00  0.00    +0.000 A 
ATOM     25  C   UNL     1       1.990  11.573  17.872  0.00  0.00    +0.000 A 
ATOM     26  C   UNL     1       1.776  10.384  18.545  0.00  0.00    +0.000 A 
ATOM     27  C   UNL     1       1.232  10.341  19.819  0.00  0.00    +0.000 A 
ATOM     28  C   UNL     1       0.977   8.931  20.094  0.00  0.00    +0.000 C 
ATOM     29  O   UNL     1       0.153   8.507  20.880  0.00  0.00    +0.000 OA
ATOM     30  N   UNL     1       1.753   8.227  19.229  0.00  0.00    +0.000 N 
ATOM     31  C   UNL     1       2.124   9.006  18.178  0.00  0.00    +0.000 C 
ATOM     32  O   UNL     1       2.666   8.684  17.129  0.00  0.00    +0.000 OA
BRANCH  22  33
ATOM     33  O   UNL     1       0.714  11.530  21.902  0.00  0.00    +0.000 OA
BRANCH  33  35
ATOM     34  C   UNL     1      -1.126  10.586  23.201  0.00  0.00    +0.000 C 
ATOM     35  C   UNL     1      -0.685  11.672  22.229  0.00  0.00    +0.000 C 
ATOM     36  C   UNL     1      -0.918  13.059  22.819  0.00  0.00    +0.000 C 
ENDBRANCH  33  35
ENDBRANCH  22  33
ENDBRANCH  21  30
ENDBRANCH  20  21
ENDBRANCH   1  20
TORSDOF 7
ENDMDL
