MODEL 1
REMARK VINA RESULT:      -7.7      0.000      0.000
REMARK  Name = 
REMARK  8 active torsions:
REMARK  status: ('A' for Active; 'I' for Inactive)
REMARK    1  A    between atoms: C_1  and  N_2
REMARK    2  A    between atoms: N_11  and  C_12
REMARK    3  A    between atoms: C_12  and  C_13
REMARK    4  A    between atoms: N_21  and  C_22
REMARK    5  A    between atoms: C_22  and  C_23
REMARK    6  A    between atoms: C_23  and  C_24
REMARK    7  A    between atoms: C_24  and  C_25
REMARK    8  A    between atoms: C_25  and  O_26
REMARK                            x       y       z     vdW  Elec       q    Type
REMARK                         _______ _______ _______ _____ _____    ______ ____
ROOT
ATOM      1  C   UNL     1       2.098   8.374  18.865  0.00  0.00    +0.000 A 
ATOM      2  N   UNL     1       1.807   7.865  20.060  0.00  0.00    +0.000 NA
ATOM      3  C   UNL     1       1.081   8.852  20.704  0.00  0.00    +0.000 A 
ATOM      4  C   UNL     1       0.322   8.845  21.876  0.00  0.00    +0.000 A 
ATOM      5  C   UNL     1      -0.244  10.060  22.306  0.00  0.00    +0.000 A 
ATOM      6  C   UNL     1       0.015  11.256  21.635  0.00  0.00    +0.000 A 
ATOM      7  C   UNL     1       0.690  11.264  20.406  0.00  0.00    +0.000 A 
ATOM      8  C   UNL     1       1.105  10.010  19.948  0.00  0.00    +0.000 A 
ATOM      9  N   UNL     1       1.238   9.455  18.669  0.00  0.00    +0.000 N 
ENDROOT
BRANCH   1  10
ATOM     10  C   UNL     1       2.902   7.712  17.775  0.00  0.00    +0.000 C 
BRANCH  10  21
ATOM     11  C   UNL     1       7.146   5.469  18.349  0.00  0.00    +0.000 C 
ATOM     12  N   UNL     1       5.698   5.382  18.382  0.00  0.00    +0.000 N 
ATOM     13  C   UNL     1       5.128   4.258  18.932  0.00  0.00    +0.000 A 
ATOM     14  O   UNL     1       5.731   3.411  19.589  0.00  0.00    +0.000 OA
ATOM     15  C   UNL     1       3.704   4.076  18.624  0.00  0.00    +0.000 A 
ATOM     16  C   UNL     1       3.186   2.773  18.602  0.00  0.00    +0.000 A 
ATOM     17  C   UNL     1       1.884   2.569  18.165  0.00  0.00    +0.000 A 
ATOM     18  C   UNL     1       1.101   3.670  17.820  0.00  0.00    +0.000 A 
ATOM     19  C   UNL     1       1.616   4.976  17.892  0.00  0.00    +0.000 A 
ATOM     20  C   UNL     1       2.947   5.196  18.254  0.00  0.00    +0.000 A 
ATOM     21  N   UNL     1       3.600   6.464  18.141  0.00  0.00    +0.000 N 
ATOM     22  C   UNL     1       4.977   6.455  17.878  0.00  0.00    +0.000 A 
ATOM     23  O   UNL     1       5.523   7.354  17.234  0.00  0.00    +0.000 OA
ENDBRANCH  10  21
ENDBRANCH   1  10
BRANCH   9  24
ATOM     24  C   UNL     1       0.019   9.421  17.836  0.00  0.00    +0.000 C 
BRANCH  24  25
ATOM     25  C   UNL     1      -1.285  10.125  18.311  0.00  0.00    +0.000 C 
BRANCH  25  26
ATOM     26  C   UNL     1      -2.572   9.836  17.513  0.00  0.00    +0.000 C 
BRANCH  26  27
ATOM     27  C   UNL     1      -2.737  10.716  16.270  0.00  0.00    +0.000 C 
BRANCH  27  28
ATOM     28  O   UNL     1      -1.988  11.915  16.390  0.00  0.00    +0.000 OA
ATOM     29  H   UNL     1      -2.620  12.631  16.582  0.00  0.00    +0.000 HD
ENDBRANCH  27  28
ENDBRANCH  26  27
ENDBRANCH  25  26
ENDBRANCH  24  25
ENDBRANCH   9  24
TORSDOF 7
ENDMDL
MODEL 2
REMARK VINA RESULT:      -7.5      2.047      3.076
REMARK  Name = 
REMARK  8 active torsions:
REMARK  status: ('A' for Active; 'I' for Inactive)
REMARK    1  A    between atoms: C_1  and  N_2
REMARK    2  A    between atoms: N_11  and  C_12
REMARK    3  A    between atoms: C_12  and  C_13
REMARK    4  A    between atoms: N_21  and  C_22
REMARK    5  A    between atoms: C_22  and  C_23
REMARK    6  A    between atoms: C_23  and  C_24
REMARK    7  A    between atoms: C_24  and  C_25
REMARK    8  A    between atoms: C_25  and  O_26
REMARK                            x       y       z     vdW  Elec       q    Type
REMARK                         _______ _______ _______ _____ _____    ______ ____
ROOT
ATOM      1  C   UNL     1       1.776   8.654  17.953  0.00  0.00    +0.000 A 
ATOM      2  N   UNL     1       2.455   9.748  17.614  0.00  0.00    +0.000 NA
ATOM      3  C   UNL     1       1.853  10.777  18.316  0.00  0.00    +0.000 A 
ATOM      4  C   UNL     1       2.231  12.101  18.551  0.00  0.00    +0.000 A 
ATOM      5  C   UNL     1       1.342  12.928  19.261  0.00  0.00    +0.000 A 
ATOM      6  C   UNL     1       0.080  12.472  19.646  0.00  0.00    +0.000 A 
ATOM      7  C   UNL     1      -0.274  11.122  19.507  0.00  0.00    +0.000 A 
ATOM      8  C   UNL     1       0.704  10.308  18.927  0.00  0.00    +0.000 A 
ATOM      9  N   UNL     1       1.063   8.967  19.110  0.00  0.00    +0.000 N 
ENDROOT
BRANCH   1  10
ATOM     10  C   UNL     1       2.010   7.254  17.444  0.00  0.00    +0.000 C 
BRANCH  10  21
ATOM     11  C   UNL     1       6.796   6.568  17.406  0.00  0.00    +0.000 C 
ATOM     12  N   UNL     1       5.507   6.193  17.956  0.00  0.00    +0.000 N 
ATOM     13  C   UNL     1       5.487   5.384  19.068  0.00  0.00    +0.000 A 
ATOM     14  O   UNL     1       6.465   5.119  19.766  0.00  0.00    +0.000 OA
ATOM     15  C   UNL     1       4.186   4.767  19.358  0.00  0.00    +0.000 A 
ATOM     16  C   UNL     1       4.164   3.541  20.037  0.00  0.00    +0.000 A 
ATOM     17  C   UNL     1       2.958   2.870  20.184  0.00  0.00    +0.000 A 
ATOM     18  C   UNL     1       1.787   3.461  19.712  0.00  0.00    +0.000 A 
ATOM     19  C   UNL     1       1.815   4.714  19.075  0.00  0.00    +0.000 A 
ATOM     20  C   UNL     1       3.027   5.369  18.847  0.00  0.00    +0.000 A 
ATOM     21  N   UNL     1       3.159   6.530  18.021  0.00  0.00    +0.000 N 
ATOM     22  C   UNL     1       4.371   6.697  17.338  0.00  0.00    +0.000 A 
ATOM     23  O   UNL     1       4.430   7.264  16.245  0.00  0.00    +0.000 OA
ENDBRANCH  10  21
ENDBRANCH   1  10
BRANCH   9  24
ATOM     24  C   UNL     1       1.462   8.573  20.477  0.00  0.00    +0.000 C 
BRANCH  24  25
ATOM     25  C   UNL     1       0.392   8.388  21.591  0.00  0.00    +0.000 C 
BRANCH  25  26
ATOM     26  C   UNL     1       0.483   9.322  22.815  0.00  0.00    +0.000 C 
BRANCH  26  27
ATOM     27  C   UNL     1      -0.782  10.153  23.051  0.00  0.00    +0.000 C 
BRANCH  27  28
ATOM     28  O   UNL     1      -0.483  11.540  23.080  0.00  0.00    +0.000 OA
ATOM     29  H   UNL     1       0.069  11.732  22.301  0.00  0.00    +0.000 HD
ENDBRANCH  27  28
ENDBRANCH  26  27
ENDBRANCH  25  26
ENDBRANCH  24  25
ENDBRANCH   9  24
TORSDOF 7
ENDMDL
MODEL 3
REMARK VINA RESULT:      -7.3      0.910      1.015
REMARK  Name = 
REMARK  8 active torsions:
REMARK  status: ('A' for Active; 'I' for Inactive)
REMARK    1  A    between atoms: C_1  and  N_2
REMARK    2  A    between atoms: N_11  and  C_12
REMARK    3  A    between atoms: C_12  and  C_13
REMARK    4  A    between atoms: N_21  and  C_22
REMARK    5  A    between atoms: C_22  and  C_23
REMARK    6  A    between atoms: C_23  and  C_24
REMARK    7  A    between atoms: C_24  and  C_25
REMARK    8  A    between atoms: C_25  and  O_26
REMARK                            x       y       z     vdW  Elec       q    Type
REMARK                         _______ _______ _______ _____ _____    ______ ____
ROOT
ATOM      1  C   UNL     1       1.947   8.482  18.859  0.00  0.00    +0.000 A 
ATOM      2  N   UNL     1       1.578   7.912  20.004  0.00  0.00    +0.000 NA
ATOM      3  C   UNL     1       0.949   8.915  20.719  0.00  0.00    +0.000 A 
ATOM      4  C   UNL     1       0.168   8.895  21.877  0.00  0.00    +0.000 A 
ATOM      5  C   UNL     1      -0.273  10.125  22.400  0.00  0.00    +0.000 A 
ATOM      6  C   UNL     1       0.127  11.337  21.834  0.00  0.00    +0.000 A 
ATOM      7  C   UNL     1       0.825  11.372  20.618  0.00  0.00    +0.000 A 
ATOM      8  C   UNL     1       1.113  10.122  20.062  0.00  0.00    +0.000 A 
ATOM      9  N   UNL     1       1.213   9.662  18.743  0.00  0.00    +0.000 N 
ENDROOT
BRANCH   1  10
ATOM     10  C   UNL     1       2.699   7.827  17.728  0.00  0.00    +0.000 C 
BRANCH  10  21
ATOM     11  C   UNL     1       7.123   5.929  18.171  0.00  0.00    +0.000 C 
ATOM     12  N   UNL     1       5.688   5.729  18.252  0.00  0.00    +0.000 N 
ATOM     13  C   UNL     1       5.227   4.567  18.824  0.00  0.00    +0.000 A 
ATOM     14  O   UNL     1       5.915   3.774  19.465  0.00  0.00    +0.000 OA
ATOM     15  C   UNL     1       3.812   4.271  18.563  0.00  0.00    +0.000 A 
ATOM     16  C   UNL     1       3.398   2.931  18.563  0.00  0.00    +0.000 A 
ATOM     17  C   UNL     1       2.103   2.623  18.169  0.00  0.00    +0.000 A 
ATOM     18  C   UNL     1       1.225   3.656  17.846  0.00  0.00    +0.000 A 
ATOM     19  C   UNL     1       1.637   4.999  17.896  0.00  0.00    +0.000 A 
ATOM     20  C   UNL     1       2.958   5.326  18.214  0.00  0.00    +0.000 A 
ATOM     21  N   UNL     1       3.505   6.640  18.075  0.00  0.00    +0.000 N 
ATOM     22  C   UNL     1       4.868   6.738  17.768  0.00  0.00    +0.000 A 
ATOM     23  O   UNL     1       5.321   7.673  17.103  0.00  0.00    +0.000 OA
ENDBRANCH  10  21
ENDBRANCH   1  10
BRANCH   9  24
ATOM     24  C   UNL     1       0.015   9.829  17.895  0.00  0.00    +0.000 C 
BRANCH  24  25
ATOM     25  C   UNL     1      -1.384  10.059  18.537  0.00  0.00    +0.000 C 
BRANCH  25  26
ATOM     26  C   UNL     1      -2.109  11.375  18.190  0.00  0.00    +0.000 C 
BRANCH  26  27
ATOM     27  C   UNL     1      -2.627  12.135  19.415  0.00  0.00    +0.000 C 
BRANCH  27  28
ATOM     28  O   UNL     1      -2.018  13.412  19.518  0.00  0.00    +0.000 OA
ATOM     29  H   UNL     1      -2.385  13.844  20.309  0.00  0.00    +0.000 HD
ENDBRANCH  27  28
ENDBRANCH  26  27
ENDBRANCH  25  26
ENDBRANCH  24  25
ENDBRANCH   9  24
TORSDOF 7
ENDMDL
MODEL 4
REMARK VINA RESULT:      -7.2      4.104      6.547
REMARK  Name = 
REMARK  8 active torsions:
REMARK  status: ('A' for Active; 'I' for Inactive)
REMARK    1  A    between atoms: C_1  and  N_2
REMARK    2  A    between atoms: N_11  and  C_12
REMARK    3  A    between atoms: C_12  and  C_13
REMARK    4  A    between atoms: N_21  and  C_22
REMARK    5  A    between atoms: C_22  and  C_23
REMARK    6  A    between atoms: C_23  and  C_24
REMARK    7  A    between atoms: C_24  and  C_25
REMARK    8  A    between atoms: C_25  and  O_26
REMARK                            x       y       z     vdW  Elec       q    Type
REMARK                         _______ _______ _______ _____ _____    ______ ____
ROOT
ATOM      1  C   UNL     1      -2.804  12.196  19.469  0.00  0.00    +0.000 A 
ATOM      2  N   UNL     1      -3.779  12.316  20.367  0.00  0.00    +0.000 NA
ATOM      3  C   UNL     1      -4.951  12.178  19.644  0.00  0.00    +0.000 A 
ATOM      4  C   UNL     1      -6.280  11.995  20.036  0.00  0.00    +0.000 A 
ATOM      5  C   UNL     1      -7.267  11.962  19.034  0.00  0.00    +0.000 A 
ATOM      6  C   UNL     1      -6.947  12.192  17.694  0.00  0.00    +0.000 A 
ATOM      7  C   UNL     1      -5.611  12.277  17.275  0.00  0.00    +0.000 A 
ATOM      8  C   UNL     1      -4.660  12.158  18.292  0.00  0.00    +0.000 A 
ATOM      9  N   UNL     1      -3.370  11.613  18.336  0.00  0.00    +0.000 N 
ENDROOT
BRANCH   1  10
ATOM     10  C   UNL     1      -1.322  12.295  19.731  0.00  0.00    +0.000 C 
BRANCH  10  21
ATOM     11  C   UNL     1      -0.184   9.592  23.574  0.00  0.00    +0.000 C 
ATOM     12  N   UNL     1      -0.090   9.786  22.139  0.00  0.00    +0.000 N 
ATOM     13  C   UNL     1       0.402   8.754  21.376  0.00  0.00    +0.000 A 
ATOM     14  O   UNL     1       0.574   7.602  21.773  0.00  0.00    +0.000 OA
ATOM     15  C   UNL     1       0.794   9.128  20.011  0.00  0.00    +0.000 A 
ATOM     16  C   UNL     1       1.798   8.384  19.375  0.00  0.00    +0.000 A 
ATOM     17  C   UNL     1       2.288   8.815  18.150  0.00  0.00    +0.000 A 
ATOM     18  C   UNL     1       1.725   9.941  17.549  0.00  0.00    +0.000 A 
ATOM     19  C   UNL     1       0.685  10.651  18.174  0.00  0.00    +0.000 A 
ATOM     20  C   UNL     1       0.233  10.280  19.443  0.00  0.00    +0.000 A 
ATOM     21  N   UNL     1      -0.660  11.074  20.230  0.00  0.00    +0.000 N 
ATOM     22  C   UNL     1      -0.528  10.997  21.623  0.00  0.00    +0.000 A 
ATOM     23  O   UNL     1      -0.788  11.954  22.355  0.00  0.00    +0.000 OA
ENDBRANCH  10  21
ENDBRANCH   1  10
BRANCH   9  24
ATOM     24  C   UNL     1      -3.244  10.188  17.969  0.00  0.00    +0.000 C 
BRANCH  24  25
ATOM     25  C   UNL     1      -2.579   9.771  16.626  0.00  0.00    +0.000 C 
BRANCH  25  26
ATOM     26  C   UNL     1      -2.764  10.721  15.425  0.00  0.00    +0.000 C 
BRANCH  26  27
ATOM     27  C   UNL     1      -3.437  10.063  14.217  0.00  0.00    +0.000 C 
BRANCH  27  28
ATOM     28  O   UNL     1      -2.502   9.830  13.176  0.00  0.00    +0.000 OA
ATOM     29  H   UNL     1      -1.867  10.568  13.189  0.00  0.00    +0.000 HD
ENDBRANCH  27  28
ENDBRANCH  26  27
ENDBRANCH  25  26
ENDBRANCH  24  25
ENDBRANCH   9  24
TORSDOF 7
ENDMDL
MODEL 5
REMARK VINA RESULT:      -7.1      2.600      3.987
REMARK  Name = 
REMARK  8 active torsions:
REMARK  status: ('A' for Active; 'I' for Inactive)
REMARK    1  A    between atoms: C_1  and  N_2
REMARK    2  A    between atoms: N_11  and  C_12
REMARK    3  A    between atoms: C_12  and  C_13
REMARK    4  A    between atoms: N_21  and  C_22
REMARK    5  A    between atoms: C_22  and  C_23
REMARK    6  A    between atoms: C_23  and  C_24
REMARK    7  A    between atoms: C_24  and  C_25
REMARK    8  A    between atoms: C_25  and  O_26
REMARK                            x       y       z     vdW  Elec       q    Type
REMARK                         _______ _______ _______ _____ _____    ______ ____
ROOT
ATOM      1  C   UNL     1       1.575   9.369  18.292  0.00  0.00    +0.000 A 
ATOM      2  N   UNL     1       0.503   9.127  17.541  0.00  0.00    +0.000 NA
ATOM      3  C   UNL     1      -0.445  10.043  17.961  0.00  0.00    +0.000 A 
ATOM      4  C   UNL     1      -1.675  10.433  17.427  0.00  0.00    +0.000 A 
ATOM      5  C   UNL     1      -2.448  11.359  18.151  0.00  0.00    +0.000 A 
ATOM      6  C   UNL     1      -2.045  11.812  19.409  0.00  0.00    +0.000 A 
ATOM      7  C   UNL     1      -0.772  11.508  19.912  0.00  0.00    +0.000 A 
ATOM      8  C   UNL     1       0.017  10.702  19.086  0.00  0.00    +0.000 A 
ATOM      9  N   UNL     1       1.396  10.635  18.850  0.00  0.00    +0.000 N 
ENDROOT
BRANCH   1  10
ATOM     10  C   UNL     1       2.887   8.628  18.254  0.00  0.00    +0.000 C 
BRANCH  10  21
ATOM     11  C   UNL     1       1.311   4.691  20.575  0.00  0.00    +0.000 C 
ATOM     12  N   UNL     1       2.050   5.241  19.454  0.00  0.00    +0.000 N 
ATOM     13  C   UNL     1       2.417   4.389  18.439  0.00  0.00    +0.000 A 
ATOM     14  O   UNL     1       1.994   3.243  18.291  0.00  0.00    +0.000 OA
ATOM     15  C   UNL     1       3.440   4.919  17.529  0.00  0.00    +0.000 A 
ATOM     16  C   UNL     1       4.286   4.014  16.872  0.00  0.00    +0.000 A 
ATOM     17  C   UNL     1       5.354   4.499  16.132  0.00  0.00    +0.000 A 
ATOM     18  C   UNL     1       5.524   5.877  16.003  0.00  0.00    +0.000 A 
ATOM     19  C   UNL     1       4.640   6.777  16.626  0.00  0.00    +0.000 A 
ATOM     20  C   UNL     1       3.607   6.308  17.440  0.00  0.00    +0.000 A 
ATOM     21  N   UNL     1       2.810   7.154  18.275  0.00  0.00    +0.000 N 
ATOM     22  C   UNL     1       2.320   6.602  19.466  0.00  0.00    +0.000 A 
ATOM     23  O   UNL     1       2.134   7.287  20.473  0.00  0.00    +0.000 OA
ENDBRANCH  10  21
ENDBRANCH   1  10
BRANCH   9  24
ATOM     24  C   UNL     1       2.041  11.870  18.360  0.00  0.00    +0.000 C 
BRANCH  24  25
ATOM     25  C   UNL     1       2.245  13.087  19.308  0.00  0.00    +0.000 C 
BRANCH  25  26
ATOM     26  C   UNL     1       1.825  14.471  18.776  0.00  0.00    +0.000 C 
BRANCH  26  27
ATOM     27  C   UNL     1       3.005  15.354  18.356  0.00  0.00    +0.000 C 
BRANCH  27  28
ATOM     28  O   UNL     1       3.512  14.958  17.091  0.00  0.00    +0.000 OA
ATOM     29  H   UNL     1       2.911  15.319  16.415  0.00  0.00    +0.000 HD
ENDBRANCH  27  28
ENDBRANCH  26  27
ENDBRANCH  25  26
ENDBRANCH  24  25
ENDBRANCH   9  24
TORSDOF 7
ENDMDL
MODEL 6
REMARK VINA RESULT:      -7.0      2.322      3.725
REMARK  Name = 
REMARK  8 active torsions:
REMARK  status: ('A' for Active; 'I' for Inactive)
REMARK    1  A    between atoms: C_1  and  N_2
REMARK    2  A    between atoms: N_11  and  C_12
REMARK    3  A    between atoms: C_12  and  C_13
REMARK    4  A    between atoms: N_21  and  C_22
REMARK    5  A    between atoms: C_22  and  C_23
REMARK    6  A    between atoms: C_23  and  C_24
REMARK    7  A    between atoms: C_24  and  C_25
REMARK    8  A    between atoms: C_25  and  O_26
REMARK                            x       y       z     vdW  Elec       q    Type
REMARK                         _______ _______ _______ _____ _____    ______ ____
ROOT
ATOM      1  C   UNL     1       1.570   9.245  18.208  0.00  0.00    +0.000 A 
ATOM      2  N   UNL     1       0.487   9.017  17.469  0.00  0.00    +0.000 NA
ATOM      3  C   UNL     1      -0.454   9.925  17.920  0.00  0.00    +0.000 A 
ATOM      4  C   UNL     1      -1.693  10.325  17.412  0.00  0.00    +0.000 A 
ATOM      5  C   UNL     1      -2.455  11.237  18.166  0.00  0.00    +0.000 A 
ATOM      6  C   UNL     1      -2.032  11.665  19.426  0.00  0.00    +0.000 A 
ATOM      7  C   UNL     1      -0.751  11.352  19.904  0.00  0.00    +0.000 A 
ATOM      8  C   UNL     1       0.025  10.562  19.051  0.00  0.00    +0.000 A 
ATOM      9  N   UNL     1       1.400  10.500  18.793  0.00  0.00    +0.000 N 
ENDROOT
BRANCH   1  10
ATOM     10  C   UNL     1       2.882   8.505  18.136  0.00  0.00    +0.000 C 
BRANCH  10  21
ATOM     11  C   UNL     1       1.307   4.637  20.571  0.00  0.00    +0.000 C 
ATOM     12  N   UNL     1       2.050   5.154  19.437  0.00  0.00    +0.000 N 
ATOM     13  C   UNL     1       2.425   4.273  18.451  0.00  0.00    +0.000 A 
ATOM     14  O   UNL     1       2.007   3.121  18.337  0.00  0.00    +0.000 OA
ATOM     15  C   UNL     1       3.452   4.778  17.530  0.00  0.00    +0.000 A 
ATOM     16  C   UNL     1       4.303   3.855  16.906  0.00  0.00    +0.000 A 
ATOM     17  C   UNL     1       5.374   4.321  16.156  0.00  0.00    +0.000 A 
ATOM     18  C   UNL     1       5.539   5.695  15.985  0.00  0.00    +0.000 A 
ATOM     19  C   UNL     1       4.650   6.610  16.576  0.00  0.00    +0.000 A 
ATOM     20  C   UNL     1       3.614   6.164  17.399  0.00  0.00    +0.000 A 
ATOM     21  N   UNL     1       2.809   7.033  18.202  0.00  0.00    +0.000 N 
ATOM     22  C   UNL     1       2.315   6.516  19.407  0.00  0.00    +0.000 A 
ATOM     23  O   UNL     1       2.121   7.232  20.392  0.00  0.00    +0.000 OA
ENDBRANCH  10  21
ENDBRANCH   1  10
BRANCH   9  24
ATOM     24  C   UNL     1       2.038  11.745  18.317  0.00  0.00    +0.000 C 
BRANCH  24  25
ATOM     25  C   UNL     1       2.066  13.014  19.217  0.00  0.00    +0.000 C 
BRANCH  25  26
ATOM     26  C   UNL     1       1.352  14.271  18.682  0.00  0.00    +0.000 C 
BRANCH  26  27
ATOM     27  C   UNL     1       0.323  14.855  19.655  0.00  0.00    +0.000 C 
BRANCH  27  28
ATOM     28  O   UNL     1      -0.939  15.017  19.026  0.00  0.00    +0.000 OA
ATOM     29  H   UNL     1      -0.867  14.636  18.133  0.00  0.00    +0.000 HD
ENDBRANCH  27  28
ENDBRANCH  26  27
ENDBRANCH  25  26
ENDBRANCH  24  25
ENDBRANCH   9  24
TORSDOF 7
ENDMDL
MODEL 7
REMARK VINA RESULT:      -7.0      2.270      7.877
REMARK  Name = 
REMARK  8 active torsions:
REMARK  status: ('A' for Active; 'I' for Inactive)
REMARK    1  A    between atoms: C_1  and  N_2
REMARK    2  A    between atoms: N_11  and  C_12
REMARK    3  A    between atoms: C_12  and  C_13
REMARK    4  A    between atoms: N_21  and  C_22
REMARK    5  A    between atoms: C_22  and  C_23
REMARK    6  A    between atoms: C_23  and  C_24
REMARK    7  A    between atoms: C_24  and  C_25
REMARK    8  A    between atoms: C_25  and  O_26
REMARK                            x       y       z     vdW  Elec       q    Type
REMARK                         _______ _______ _______ _____ _____    ______ ____
ROOT
ATOM      1  C   UNL     1       2.219   8.118  18.414  0.00  0.00    +0.000 A 
ATOM      2  N   UNL     1       1.968   7.786  19.678  0.00  0.00    +0.000 NA
ATOM      3  C   UNL     1       2.073   6.407  19.716  0.00  0.00    +0.000 A 
ATOM      4  C   UNL     1       2.134   5.499  20.775  0.00  0.00    +0.000 A 
ATOM      5  C   UNL     1       2.167   4.126  20.469  0.00  0.00    +0.000 A 
ATOM      6  C   UNL     1       2.053   3.675  19.152  0.00  0.00    +0.000 A 
ATOM      7  C   UNL     1       2.092   4.572  18.075  0.00  0.00    +0.000 A 
ATOM      8  C   UNL     1       2.208   5.919  18.428  0.00  0.00    +0.000 A 
ATOM      9  N   UNL     1       2.838   7.015  17.824  0.00  0.00    +0.000 N 
ENDROOT
BRANCH   1  10
ATOM     10  C   UNL     1       2.208   9.507  17.827  0.00  0.00    +0.000 C 
BRANCH  10  21
ATOM     11  C   UNL     1      -2.562  10.172  18.248  0.00  0.00    +0.000 C 
ATOM     12  N   UNL     1      -1.227  10.709  18.436  0.00  0.00    +0.000 N 
ATOM     13  C   UNL     1      -1.089  11.860  19.176  0.00  0.00    +0.000 A 
ATOM     14  O   UNL     1      -1.971  12.363  19.870  0.00  0.00    +0.000 OA
ATOM     15  C   UNL     1       0.210  12.529  19.037  0.00  0.00    +0.000 A 
ATOM     16  C   UNL     1       0.272  13.917  19.229  0.00  0.00    +0.000 A 
ATOM     17  C   UNL     1       1.456  14.587  18.952  0.00  0.00    +0.000 A 
ATOM     18  C   UNL     1       2.575  13.857  18.553  0.00  0.00    +0.000 A 
ATOM     19  C   UNL     1       2.515  12.460  18.411  0.00  0.00    +0.000 A 
ATOM     20  C   UNL     1       1.312  11.776  18.608  0.00  0.00    +0.000 A 
ATOM     21  N   UNL     1       1.120  10.399  18.273  0.00  0.00    +0.000 N 
ATOM     22  C   UNL     1      -0.167  10.009  17.878  0.00  0.00    +0.000 A 
ATOM     23  O   UNL     1      -0.352   9.091  17.076  0.00  0.00    +0.000 OA
ENDBRANCH  10  21
ENDBRANCH   1  10
BRANCH   9  24
ATOM     24  C   UNL     1       4.291   6.891  17.588  0.00  0.00    +0.000 C 
BRANCH  24  25
ATOM     25  C   UNL     1       4.832   6.455  16.196  0.00  0.00    +0.000 C 
BRANCH  25  26
ATOM     26  C   UNL     1       5.214   4.971  16.023  0.00  0.00    +0.000 C 
BRANCH  26  27
ATOM     27  C   UNL     1       6.645   4.757  15.522  0.00  0.00    +0.000 C 
BRANCH  27  28
ATOM     28  O   UNL     1       7.462   5.878  15.818  0.00  0.00    +0.000 OA
ATOM     29  H   UNL     1       7.309   6.108  16.751  0.00  0.00    +0.000 HD
ENDBRANCH  27  28
ENDBRANCH  26  27
ENDBRANCH  25  26
ENDBRANCH  24  25
ENDBRANCH   9  24
TORSDOF 7
ENDMDL
MODEL 8
REMARK VINA RESULT:      -7.0      1.932      7.374
REMARK  Name = 
REMARK  8 active torsions:
REMARK  status: ('A' for Active; 'I' for Inactive)
REMARK    1  A    between atoms: C_1  and  N_2
REMARK    2  A    between atoms: N_11  and  C_12
REMARK    3  A    between atoms: C_12  and  C_13
REMARK    4  A    between atoms: N_21  and  C_22
REMARK    5  A    between atoms: C_22  and  C_23
REMARK    6  A    between atoms: C_23  and  C_24
REMARK    7  A    between atoms: C_24  and  C_25
REMARK    8  A    between atoms: C_25  and  O_26
REMARK                            x       y       z     vdW  Elec       q    Type
REMARK                         _______ _______ _______ _____ _____    ______ ____
ROOT
ATOM      1  C   UNL     1       2.178   6.816  19.348  0.00  0.00    +0.000 A 
ATOM      2  N   UNL     1       1.858   6.143  20.452  0.00  0.00    +0.000 NA
ATOM      3  C   UNL     1       1.723   4.828  20.045  0.00  0.00    +0.000 A 
ATOM      4  C   UNL     1       1.613   3.631  20.757  0.00  0.00    +0.000 A 
ATOM      5  C   UNL     1       1.412   2.444  20.030  0.00  0.00    +0.000 A 
ATOM      6  C   UNL     1       1.238   2.464  18.644  0.00  0.00    +0.000 A 
ATOM      7  C   UNL     1       1.444   3.639  17.907  0.00  0.00    +0.000 A 
ATOM      8  C   UNL     1       1.787   4.763  18.664  0.00  0.00    +0.000 A 
ATOM      9  N   UNL     1       2.604   5.873  18.413  0.00  0.00    +0.000 N 
ENDROOT
BRANCH   1  10
ATOM     10  C   UNL     1       2.413   8.301  19.234  0.00  0.00    +0.000 C 
BRANCH  10  21
ATOM     11  C   UNL     1      -0.491  11.751  17.492  0.00  0.00    +0.000 C 
ATOM     12  N   UNL     1      -0.142  10.887  18.604  0.00  0.00    +0.000 N 
ATOM     13  C   UNL     1      -1.019  10.804  19.661  0.00  0.00    +0.000 A 
ATOM     14  O   UNL     1      -2.172  11.233  19.657  0.00  0.00    +0.000 OA
ATOM     15  C   UNL     1      -0.460  10.205  20.880  0.00  0.00    +0.000 A 
ATOM     16  C   UNL     1      -0.997  10.584  22.118  0.00  0.00    +0.000 A 
ATOM     17  C   UNL     1      -0.383  10.148  23.284  0.00  0.00    +0.000 A 
ATOM     18  C   UNL     1       0.713   9.291  23.198  0.00  0.00    +0.000 A 
ATOM     19  C   UNL     1       1.213   8.879  21.951  0.00  0.00    +0.000 A 
ATOM     20  C   UNL     1       0.660   9.369  20.766  0.00  0.00    +0.000 A 
ATOM     21  N   UNL     1       1.245   9.171  19.476  0.00  0.00    +0.000 N 
ATOM     22  C   UNL     1       1.046  10.176  18.520  0.00  0.00    +0.000 A 
ATOM     23  O   UNL     1       1.882  10.418  17.646  0.00  0.00    +0.000 OA
ENDBRANCH  10  21
ENDBRANCH   1  10
BRANCH   9  24
ATOM     24  C   UNL     1       4.016   5.590  18.085  0.00  0.00    +0.000 C 
BRANCH  24  25
ATOM     25  C   UNL     1       4.739   6.374  16.953  0.00  0.00    +0.000 C 
BRANCH  25  26
ATOM     26  C   UNL     1       5.315   5.551  15.783  0.00  0.00    +0.000 C 
BRANCH  26  27
ATOM     27  C   UNL     1       6.816   5.274  15.906  0.00  0.00    +0.000 C 
BRANCH  27  28
ATOM     28  O   UNL     1       7.510   6.422  16.369  0.00  0.00    +0.000 OA
ATOM     29  H   UNL     1       7.544   7.056  15.631  0.00  0.00    +0.000 HD
ENDBRANCH  27  28
ENDBRANCH  26  27
ENDBRANCH  25  26
ENDBRANCH  24  25
ENDBRANCH   9  24
TORSDOF 7
ENDMDL
MODEL 9
REMARK VINA RESULT:      -6.9      2.131      7.180
REMARK  Name = 
REMARK  8 active torsions:
REMARK  status: ('A' for Active; 'I' for Inactive)
REMARK    1  A    between atoms: C_1  and  N_2
REMARK    2  A    between atoms: N_11  and  C_12
REMARK    3  A    between atoms: C_12  and  C_13
REMARK    4  A    between atoms: N_21  and  C_22
REMARK    5  A    between atoms: C_22  and  C_23
REMARK    6  A    between atoms: C_23  and  C_24
REMARK    7  A    between atoms: C_24  and  C_25
REMARK    8  A    between atoms: C_25  and  O_26
REMARK                            x       y       z     vdW  Elec       q    Type
REMARK                         _______ _______ _______ _____ _____    ______ ____
ROOT
ATOM      1  C   UNL     1       2.683   7.167  18.103  0.00  0.00    +0.000 A 
ATOM      2  N   UNL     1       3.677   7.728  17.419  0.00  0.00    +0.000 NA
ATOM      3  C   UNL     1       4.778   6.926  17.660  0.00  0.00    +0.000 A 
ATOM      4  C   UNL     1       6.042   6.862  17.068  0.00  0.00    +0.000 A 
ATOM      5  C   UNL     1       6.980   5.962  17.606  0.00  0.00    +0.000 A 
ATOM      6  C   UNL     1       6.694   5.216  18.751  0.00  0.00    +0.000 A 
ATOM      7  C   UNL     1       5.402   5.194  19.296  0.00  0.00    +0.000 A 
ATOM      8  C   UNL     1       4.466   5.995  18.635  0.00  0.00    +0.000 A 
ATOM      9  N   UNL     1       3.089   5.868  18.409  0.00  0.00    +0.000 N 
ENDROOT
BRANCH   1  10
ATOM     10  C   UNL     1       1.263   7.664  18.201  0.00  0.00    +0.000 C 
BRANCH  10  21
ATOM     11  C   UNL     1       1.672   9.344  22.716  0.00  0.00    +0.000 C 
ATOM     12  N   UNL     1       1.210   9.571  21.359  0.00  0.00    +0.000 N 
ATOM     13  C   UNL     1       0.800  10.839  21.018  0.00  0.00    +0.000 A 
ATOM     14  O   UNL     1       0.986  11.848  21.696  0.00  0.00    +0.000 OA
ATOM     15  C   UNL     1       0.032  10.922  19.769  0.00  0.00    +0.000 A 
ATOM     16  C   UNL     1      -0.898  11.961  19.623  0.00  0.00    +0.000 A 
ATOM     17  C   UNL     1      -1.740  11.968  18.520  0.00  0.00    +0.000 A 
ATOM     18  C   UNL     1      -1.597  10.978  17.548  0.00  0.00    +0.000 A 
ATOM     19  C   UNL     1      -0.627   9.968  17.680  0.00  0.00    +0.000 A 
ATOM     20  C   UNL     1       0.175   9.899  18.821  0.00  0.00    +0.000 A 
ATOM     21  N   UNL     1       1.024   8.788  19.127  0.00  0.00    +0.000 N 
ATOM     22  C   UNL     1       1.235   8.497  20.482  0.00  0.00    +0.000 A 
ATOM     23  O   UNL     1       1.436   7.346  20.877  0.00  0.00    +0.000 OA
ENDBRANCH  10  21
ENDBRANCH   1  10
BRANCH   9  24
ATOM     24  C   UNL     1       2.650   4.656  17.687  0.00  0.00    +0.000 C 
BRANCH  24  25
ATOM     25  C   UNL     1       1.746   3.601  18.387  0.00  0.00    +0.000 C 
BRANCH  25  26
ATOM     26  C   UNL     1       1.103   4.005  19.729  0.00  0.00    +0.000 C 
BRANCH  26  27
ATOM     27  C   UNL     1       1.945   3.631  20.953  0.00  0.00    +0.000 C 
BRANCH  27  28
ATOM     28  O   UNL     1       2.542   4.780  21.532  0.00  0.00    +0.000 OA
ATOM     29  H   UNL     1       1.819   5.357  21.837  0.00  0.00    +0.000 HD
ENDBRANCH  27  28
ENDBRANCH  26  27
ENDBRANCH  25  26
ENDBRANCH  24  25
ENDBRANCH   9  24
TORSDOF 7
ENDMDL
