MODEL 1
REMARK VINA RESULT:      -7.2      0.000      0.000
REMARK  Name = 
REMARK  5 active torsions:
REMARK  status: ('A' for Active; 'I' for Inactive)
REMARK    1  A    between atoms: C_1  and  N_2
REMARK    2  A    between atoms: N_4  and  C_5
REMARK    3  A    between atoms: C_5  and  C_7
REMARK    4  A    between atoms: C_7  and  S_8
REMARK    5  A    between atoms: S_8  and  C_11
REMARK                            x       y       z     vdW  Elec       q    Type
REMARK                         _______ _______ _______ _____ _____    ______ ____
ROOT
ATOM      1  C   UNL     1       3.653   5.771  18.936  0.00  0.00    +0.000 C 
ATOM      2  O   UNL     1       4.633   5.891  19.664  0.00  0.00    +0.000 OA
ENDROOT
BRANCH   1   6
ATOM      3  C   UNL     1       1.384   6.569  20.942  0.00  0.00    +0.000 C 
ATOM      4  N   UNL     1       1.659   7.684  20.060  0.00  0.00    +0.000 N 
ATOM      5  C   UNL     1       2.285   7.617  18.822  0.00  0.00    +0.000 A 
ATOM      6  N   UNL     1       3.072   6.788  18.229  0.00  0.00    +0.000 NA
ATOM      7  S   UNL     1       1.900   9.107  17.877  0.00  0.00    +0.000 S 
ATOM      8  C   UNL     1       1.175   9.863  19.314  0.00  0.00    +0.000 A 
ATOM      9  C   UNL     1       0.709  11.163  19.444  0.00  0.00    +0.000 A 
ATOM     10  C   UNL     1       0.181  11.559  20.675  0.00  0.00    +0.000 A 
ATOM     11  C   UNL     1       0.131  10.660  21.745  0.00  0.00    +0.000 A 
ATOM     12  C   UNL     1       0.604   9.353  21.599  0.00  0.00    +0.000 A 
ATOM     13  C   UNL     1       1.124   8.945  20.374  0.00  0.00    +0.000 A 
ENDBRANCH   1   6
BRANCH   1  14
ATOM     14  C   UNL     1       3.005   4.439  18.761  0.00  0.00    +0.000 C 
BRANCH  14  15
ATOM     15  S   UNL     1       4.227   3.248  18.330  0.00  0.00    +0.000 S 
ATOM     16  O   UNL     1       5.102   3.102  19.480  0.00  0.00    +0.000 OA
ATOM     17  O   UNL     1       3.558   2.080  17.784  0.00  0.00    +0.000 OA
BRANCH  15  18
ATOM     18  C   UNL     1       5.252   3.943  17.045  0.00  0.00    +0.000 A 
ATOM     19  C   UNL     1       6.574   4.304  17.332  0.00  0.00    +0.000 A 
ATOM     20  C   UNL     1       7.396   4.775  16.303  0.00  0.00    +0.000 A 
ATOM     21  C   UNL     1       6.894   4.869  15.009  0.00  0.00    +0.000 A 
ATOM     22  F   UNL     1       7.693   5.300  14.022  0.00  0.00    +0.000 F 
ATOM     23  C   UNL     1       5.583   4.508  14.718  0.00  0.00    +0.000 A 
ATOM     24  C   UNL     1       4.753   4.041  15.739  0.00  0.00    +0.000 A 
ENDBRANCH  15  18
ENDBRANCH  14  15
ENDBRANCH   1  14
TORSDOF 4
ENDMDL
MODEL 2
REMARK VINA RESULT:      -7.0      0.251      1.022
REMARK  Name = 
REMARK  5 active torsions:
REMARK  status: ('A' for Active; 'I' for Inactive)
REMARK    1  A    between atoms: C_1  and  N_2
REMARK    2  A    between atoms: N_4  and  C_5
REMARK    3  A    between atoms: C_5  and  C_7
REMARK    4  A    between atoms: C_7  and  S_8
REMARK    5  A    between atoms: S_8  and  C_11
REMARK                            x       y       z     vdW  Elec       q    Type
REMARK                         _______ _______ _______ _____ _____    ______ ____
ROOT
ATOM      1  C   UNL     1       3.663   5.879  18.705  0.00  0.00    +0.000 C 
ATOM      2  O   UNL     1       4.654   5.960  19.425  0.00  0.00    +0.000 OA
ENDROOT
BRANCH   1   6
ATOM      3  C   UNL     1       1.443   6.442  20.840  0.00  0.00    +0.000 C 
ATOM      4  N   UNL     1       1.666   7.636  20.052  0.00  0.00    +0.000 N 
ATOM      5  C   UNL     1       2.253   7.694  18.795  0.00  0.00    +0.000 A 
ATOM      6  N   UNL     1       3.039   6.940  18.108  0.00  0.00    +0.000 NA
ATOM      7  S   UNL     1       1.806   9.251  17.997  0.00  0.00    +0.000 S 
ATOM      8  C   UNL     1       1.110   9.860  19.517  0.00  0.00    +0.000 A 
ATOM      9  C   UNL     1       0.620  11.131  19.775  0.00  0.00    +0.000 A 
ATOM     10  C   UNL     1       0.124  11.405  21.051  0.00  0.00    +0.000 A 
ATOM     11  C   UNL     1       0.127  10.415  22.038  0.00  0.00    +0.000 A 
ATOM     12  C   UNL     1       0.624   9.138  21.763  0.00  0.00    +0.000 A 
ATOM     13  C   UNL     1       1.113   8.851  20.492  0.00  0.00    +0.000 A 
ENDBRANCH   1   6
BRANCH   1  14
ATOM     14  C   UNL     1       3.053   4.549  18.414  0.00  0.00    +0.000 C 
BRANCH  14  15
ATOM     15  S   UNL     1       4.329   3.356  18.202  0.00  0.00    +0.000 S 
ATOM     16  O   UNL     1       5.168   3.416  19.386  0.00  0.00    +0.000 OA
ATOM     17  O   UNL     1       3.719   2.094  17.818  0.00  0.00    +0.000 OA
BRANCH  15  18
ATOM     18  C   UNL     1       5.373   3.890  16.858  0.00  0.00    +0.000 A 
ATOM     19  C   UNL     1       4.857   3.939  15.556  0.00  0.00    +0.000 A 
ATOM     20  C   UNL     1       5.657   4.432  14.520  0.00  0.00    +0.000 A 
ATOM     21  C   UNL     1       6.947   4.875  14.794  0.00  0.00    +0.000 A 
ATOM     22  F   UNL     1       7.700   5.367  13.801  0.00  0.00    +0.000 F 
ATOM     23  C   UNL     1       7.462   4.831  16.086  0.00  0.00    +0.000 A 
ATOM     24  C   UNL     1       6.674   4.337  17.127  0.00  0.00    +0.000 A 
ENDBRANCH  15  18
ENDBRANCH  14  15
ENDBRANCH   1  14
TORSDOF 4
ENDMDL
MODEL 3
REMARK VINA RESULT:      -6.9      1.545      2.288
REMARK  Name = 
REMARK  5 active torsions:
REMARK  status: ('A' for Active; 'I' for Inactive)
REMARK    1  A    between atoms: C_1  and  N_2
REMARK    2  A    between atoms: N_4  and  C_5
REMARK    3  A    between atoms: C_5  and  C_7
REMARK    4  A    between atoms: C_7  and  S_8
REMARK    5  A    between atoms: S_8  and  C_11
REMARK                            x       y       z     vdW  Elec       q    Type
REMARK                         _______ _______ _______ _____ _____    ______ ____
ROOT
ATOM      1  C   UNL     1       2.785   6.150  18.774  0.00  0.00    +0.000 C 
ATOM      2  O   UNL     1       1.997   5.520  18.075  0.00  0.00    +0.000 OA
ENDROOT
BRANCH   1   6
ATOM      3  C   UNL     1       2.261   9.063  17.751  0.00  0.00    +0.000 C 
ATOM      4  N   UNL     1       1.585   8.869  19.017  0.00  0.00    +0.000 N 
ATOM      5  C   UNL     1       1.877   7.897  19.964  0.00  0.00    +0.000 A 
ATOM      6  N   UNL     1       2.470   6.754  19.960  0.00  0.00    +0.000 NA
ATOM      7  S   UNL     1       1.189   8.390  21.559  0.00  0.00    +0.000 S 
ATOM      8  C   UNL     1       0.293   9.721  20.791  0.00  0.00    +0.000 A 
ATOM      9  C   UNL     1      -0.633  10.569  21.379  0.00  0.00    +0.000 A 
ATOM     10  C   UNL     1      -1.233  11.549  20.585  0.00  0.00    +0.000 A 
ATOM     11  C   UNL     1      -0.901  11.663  19.231  0.00  0.00    +0.000 A 
ATOM     12  C   UNL     1       0.035  10.801  18.653  0.00  0.00    +0.000 A 
ATOM     13  C   UNL     1       0.645   9.826  19.437  0.00  0.00    +0.000 A 
ENDBRANCH   1   6
BRANCH   1  14
ATOM     14  C   UNL     1       4.209   6.296  18.355  0.00  0.00    +0.000 C 
BRANCH  14  15
ATOM     15  S   UNL     1       4.941   4.703  18.208  0.00  0.00    +0.000 S 
ATOM     16  O   UNL     1       6.060   4.663  19.133  0.00  0.00    +0.000 OA
ATOM     17  O   UNL     1       3.891   3.704  18.307  0.00  0.00    +0.000 OA
BRANCH  15  18
ATOM     18  C   UNL     1       5.668   4.573  16.584  0.00  0.00    +0.000 A 
ATOM     19  C   UNL     1       4.876   4.174  15.499  0.00  0.00    +0.000 A 
ATOM     20  C   UNL     1       5.433   4.149  14.216  0.00  0.00    +0.000 A 
ATOM     21  C   UNL     1       6.758   4.528  14.032  0.00  0.00    +0.000 A 
ATOM     22  F   UNL     1       7.279   4.523  12.797  0.00  0.00    +0.000 F 
ATOM     23  C   UNL     1       7.548   4.928  15.105  0.00  0.00    +0.000 A 
ATOM     24  C   UNL     1       7.003   4.953  16.391  0.00  0.00    +0.000 A 
ENDBRANCH  15  18
ENDBRANCH  14  15
ENDBRANCH   1  14
TORSDOF 4
ENDMDL
MODEL 4
REMARK VINA RESULT:      -6.8      2.597      3.422
REMARK  Name = 
REMARK  5 active torsions:
REMARK  status: ('A' for Active; 'I' for Inactive)
REMARK    1  A    between atoms: C_1  and  N_2
REMARK    2  A    between atoms: N_4  and  C_5
REMARK    3  A    between atoms: C_5  and  C_7
REMARK    4  A    between atoms: C_7  and  S_8
REMARK    5  A    between atoms: S_8  and  C_11
REMARK                            x       y       z     vdW  Elec       q    Type
REMARK                         _______ _______ _______ _____ _____    ______ ____
ROOT
ATOM      1  C   UNL     1       4.489   6.655  17.561  0.00  0.00    +0.000 C 
ATOM      2  O   UNL     1       4.968   6.418  18.666  0.00  0.00    +0.000 OA
ENDROOT
BRANCH   1   6
ATOM      3  C   UNL     1       2.416   6.040  19.826  0.00  0.00    +0.000 C 
ATOM      4  N   UNL     1       2.262   7.413  19.394  0.00  0.00    +0.000 N 
ATOM      5  C   UNL     1       2.693   7.948  18.187  0.00  0.00    +0.000 A 
ATOM      6  N   UNL     1       3.569   7.632  17.298  0.00  0.00    +0.000 NA
ATOM      7  S   UNL     1       1.804   9.486  17.864  0.00  0.00    +0.000 S 
ATOM      8  C   UNL     1       1.131   9.474  19.510  0.00  0.00    +0.000 A 
ATOM      9  C   UNL     1       0.372  10.460  20.123  0.00  0.00    +0.000 A 
ATOM     10  C   UNL     1      -0.051  10.251  21.438  0.00  0.00    +0.000 A 
ATOM     11  C   UNL     1       0.291   9.074  22.112  0.00  0.00    +0.000 A 
ATOM     12  C   UNL     1       1.056   8.089  21.481  0.00  0.00    +0.000 A 
ATOM     13  C   UNL     1       1.475   8.283  20.168  0.00  0.00    +0.000 A 
ENDBRANCH   1   6
BRANCH   1  14
ATOM     14  C   UNL     1       4.909   5.855  16.374  0.00  0.00    +0.000 C 
BRANCH  14  15
ATOM     15  S   UNL     1       5.545   4.305  16.910  0.00  0.00    +0.000 S 
ATOM     16  O   UNL     1       5.743   3.493  15.721  0.00  0.00    +0.000 OA
ATOM     17  O   UNL     1       6.662   4.551  17.805  0.00  0.00    +0.000 OA
BRANCH  15  18
ATOM     18  C   UNL     1       4.271   3.472  17.841  0.00  0.00    +0.000 A 
ATOM     19  C   UNL     1       4.531   3.055  19.153  0.00  0.00    +0.000 A 
ATOM     20  C   UNL     1       3.505   2.473  19.904  0.00  0.00    +0.000 A 
ATOM     21  C   UNL     1       2.240   2.324  19.345  0.00  0.00    +0.000 A 
ATOM     22  F   UNL     1       1.255   1.786  20.077  0.00  0.00    +0.000 F 
ATOM     23  C   UNL     1       1.976   2.740  18.044  0.00  0.00    +0.000 A 
ATOM     24  C   UNL     1       2.994   3.318  17.284  0.00  0.00    +0.000 A 
ENDBRANCH  15  18
ENDBRANCH  14  15
ENDBRANCH   1  14
TORSDOF 4
ENDMDL
MODEL 5
REMARK VINA RESULT:      -6.8      1.147      1.435
REMARK  Name = 
REMARK  5 active torsions:
REMARK  status: ('A' for Active; 'I' for Inactive)
REMARK    1  A    between atoms: C_1  and  N_2
REMARK    2  A    between atoms: N_4  and  C_5
REMARK    3  A    between atoms: C_5  and  C_7
REMARK    4  A    between atoms: C_7  and  S_8
REMARK    5  A    between atoms: S_8  and  C_11
REMARK                            x       y       z     vdW  Elec       q    Type
REMARK                         _______ _______ _______ _____ _____    ______ ____
ROOT
ATOM      1  C   UNL     1       3.648   5.720  18.510  0.00  0.00    +0.000 C 
ATOM      2  O   UNL     1       3.188   4.582  18.519  0.00  0.00    +0.000 OA
ENDROOT
BRANCH   1   6
ATOM      3  C   UNL     1       1.511   6.212  20.746  0.00  0.00    +0.000 C 
ATOM      4  N   UNL     1       1.724   7.438  20.007  0.00  0.00    +0.000 N 
ATOM      5  C   UNL     1       2.268   7.547  18.734  0.00  0.00    +0.000 A 
ATOM      6  N   UNL     1       3.019   6.815  17.986  0.00  0.00    +0.000 NA
ATOM      7  S   UNL     1       1.817   9.145  18.025  0.00  0.00    +0.000 S 
ATOM      8  C   UNL     1       1.183   9.692  19.594  0.00  0.00    +0.000 A 
ATOM      9  C   UNL     1       0.720  10.956  19.927  0.00  0.00    +0.000 A 
ATOM     10  C   UNL     1       0.272  11.176  21.231  0.00  0.00    +0.000 A 
ATOM     11  C   UNL     1       0.295  10.141  22.171  0.00  0.00    +0.000 A 
ATOM     12  C   UNL     1       0.764   8.872  21.820  0.00  0.00    +0.000 A 
ATOM     13  C   UNL     1       1.205   8.639  20.521  0.00  0.00    +0.000 A 
ENDBRANCH   1   6
BRANCH   1  14
ATOM     14  C   UNL     1       4.986   5.994  19.111  0.00  0.00    +0.000 C 
BRANCH  14  15
ATOM     15  S   UNL     1       6.091   4.690  18.694  0.00  0.00    +0.000 S 
ATOM     16  O   UNL     1       7.412   5.093  19.146  0.00  0.00    +0.000 OA
ATOM     17  O   UNL     1       5.523   3.439  19.163  0.00  0.00    +0.000 OA
BRANCH  15  18
ATOM     18  C   UNL     1       6.208   4.607  16.916  0.00  0.00    +0.000 A 
ATOM     19  C   UNL     1       7.156   5.391  16.246  0.00  0.00    +0.000 A 
ATOM     20  C   UNL     1       7.296   5.263  14.860  0.00  0.00    +0.000 A 
ATOM     21  C   UNL     1       6.502   4.355  14.167  0.00  0.00    +0.000 A 
ATOM     22  F   UNL     1       6.656   4.221  12.843  0.00  0.00    +0.000 F 
ATOM     23  C   UNL     1       5.561   3.571  14.829  0.00  0.00    +0.000 A 
ATOM     24  C   UNL     1       5.411   3.694  16.212  0.00  0.00    +0.000 A 
ENDBRANCH  15  18
ENDBRANCH  14  15
ENDBRANCH   1  14
TORSDOF 4
ENDMDL
MODEL 6
REMARK VINA RESULT:      -6.8      2.329      2.717
REMARK  Name = 
REMARK  5 active torsions:
REMARK  status: ('A' for Active; 'I' for Inactive)
REMARK    1  A    between atoms: C_1  and  N_2
REMARK    2  A    between atoms: N_4  and  C_5
REMARK    3  A    between atoms: C_5  and  C_7
REMARK    4  A    between atoms: C_7  and  S_8
REMARK    5  A    between atoms: S_8  and  C_11
REMARK                            x       y       z     vdW  Elec       q    Type
REMARK                         _______ _______ _______ _____ _____    ______ ____
ROOT
ATOM      1  C   UNL     1       3.930   5.670  18.330  0.00  0.00    +0.000 C 
ATOM      2  O   UNL     1       4.438   5.603  19.446  0.00  0.00    +0.000 OA
ENDROOT
BRANCH   1   6
ATOM      3  C   UNL     1       1.767   5.962  20.574  0.00  0.00    +0.000 C 
ATOM      4  N   UNL     1       1.914   7.225  19.883  0.00  0.00    +0.000 N 
ATOM      5  C   UNL     1       2.454   7.410  18.617  0.00  0.00    +0.000 A 
ATOM      6  N   UNL     1       3.244   6.749  17.844  0.00  0.00    +0.000 NA
ATOM      7  S   UNL     1       1.918   9.007  17.966  0.00  0.00    +0.000 S 
ATOM      8  C   UNL     1       1.253   9.460  19.553  0.00  0.00    +0.000 A 
ATOM      9  C   UNL     1       0.723  10.684  19.932  0.00  0.00    +0.000 A 
ATOM     10  C   UNL     1       0.262  10.831  21.242  0.00  0.00    +0.000 A 
ATOM     11  C   UNL     1       0.339   9.764  22.142  0.00  0.00    +0.000 A 
ATOM     12  C   UNL     1       0.876   8.536  21.746  0.00  0.00    +0.000 A 
ATOM     13  C   UNL     1       1.331   8.375  20.440  0.00  0.00    +0.000 A 
ENDBRANCH   1   6
BRANCH   1  14
ATOM     14  C   UNL     1       4.045   4.523  17.383  0.00  0.00    +0.000 C 
BRANCH  14  15
ATOM     15  S   UNL     1       5.415   4.786  16.311  0.00  0.00    +0.000 S 
ATOM     16  O   UNL     1       6.094   3.509  16.170  0.00  0.00    +0.000 OA
ATOM     17  O   UNL     1       4.944   5.483  15.126  0.00  0.00    +0.000 OA
BRANCH  15  18
ATOM     18  C   UNL     1       6.579   5.849  17.145  0.00  0.00    +0.000 A 
ATOM     19  C   UNL     1       6.678   7.196  16.774  0.00  0.00    +0.000 A 
ATOM     20  C   UNL     1       7.536   8.042  17.483  0.00  0.00    +0.000 A 
ATOM     21  C   UNL     1       8.272   7.540  18.551  0.00  0.00    +0.000 A 
ATOM     22  F   UNL     1       9.076   8.361  19.241  0.00  0.00    +0.000 F 
ATOM     23  C   UNL     1       8.175   6.203  18.926  0.00  0.00    +0.000 A 
ATOM     24  C   UNL     1       7.324   5.349  18.222  0.00  0.00    +0.000 A 
ENDBRANCH  15  18
ENDBRANCH  14  15
ENDBRANCH   1  14
TORSDOF 4
ENDMDL
MODEL 7
REMARK VINA RESULT:      -6.8      1.120      1.610
REMARK  Name = 
REMARK  5 active torsions:
REMARK  status: ('A' for Active; 'I' for Inactive)
REMARK    1  A    between atoms: C_1  and  N_2
REMARK    2  A    between atoms: N_4  and  C_5
REMARK    3  A    between atoms: C_5  and  C_7
REMARK    4  A    between atoms: C_7  and  S_8
REMARK    5  A    between atoms: S_8  and  C_11
REMARK                            x       y       z     vdW  Elec       q    Type
REMARK                         _______ _______ _______ _____ _____    ______ ____
ROOT
ATOM      1  C   UNL     1       3.608   5.725  18.447  0.00  0.00    +0.000 C 
ATOM      2  O   UNL     1       3.193   4.573  18.374  0.00  0.00    +0.000 OA
ENDROOT
BRANCH   1   6
ATOM      3  C   UNL     1       1.521   6.164  20.739  0.00  0.00    +0.000 C 
ATOM      4  N   UNL     1       1.708   7.404  20.016  0.00  0.00    +0.000 N 
ATOM      5  C   UNL     1       2.221   7.538  18.733  0.00  0.00    +0.000 A 
ATOM      6  N   UNL     1       2.959   6.825  17.955  0.00  0.00    +0.000 NA
ATOM      7  S   UNL     1       1.742   9.144  18.062  0.00  0.00    +0.000 S 
ATOM      8  C   UNL     1       1.141   9.660  19.655  0.00  0.00    +0.000 A 
ATOM      9  C   UNL     1       0.677  10.915  20.020  0.00  0.00    +0.000 A 
ATOM     10  C   UNL     1       0.258  11.110  21.338  0.00  0.00    +0.000 A 
ATOM     11  C   UNL     1       0.311  10.059  22.259  0.00  0.00    +0.000 A 
ATOM     12  C   UNL     1       0.780   8.800  21.876  0.00  0.00    +0.000 A 
ATOM     13  C   UNL     1       1.192   8.591  20.563  0.00  0.00    +0.000 A 
ENDBRANCH   1   6
BRANCH   1  14
ATOM     14  C   UNL     1       4.909   6.014  19.118  0.00  0.00    +0.000 C 
BRANCH  14  15
ATOM     15  S   UNL     1       6.024   4.685  18.827  0.00  0.00    +0.000 S 
ATOM     16  O   UNL     1       7.305   5.074  19.392  0.00  0.00    +0.000 OA
ATOM     17  O   UNL     1       5.392   3.452  19.263  0.00  0.00    +0.000 OA
BRANCH  15  18
ATOM     18  C   UNL     1       6.303   4.566  17.069  0.00  0.00    +0.000 A 
ATOM     19  C   UNL     1       5.603   3.612  16.319  0.00  0.00    +0.000 A 
ATOM     20  C   UNL     1       5.768   3.575  14.931  0.00  0.00    +0.000 A 
ATOM     21  C   UNL     1       6.614   4.490  14.312  0.00  0.00    +0.000 A 
ATOM     22  F   UNL     1       6.750   4.464  12.979  0.00  0.00    +0.000 F 
ATOM     23  C   UNL     1       7.308   5.442  15.052  0.00  0.00    +0.000 A 
ATOM     24  C   UNL     1       7.154   5.484  16.439  0.00  0.00    +0.000 A 
ENDBRANCH  15  18
ENDBRANCH  14  15
ENDBRANCH   1  14
TORSDOF 4
ENDMDL
MODEL 8
REMARK VINA RESULT:      -6.7      1.768      2.519
REMARK  Name = 
REMARK  5 active torsions:
REMARK  status: ('A' for Active; 'I' for Inactive)
REMARK    1  A    between atoms: C_1  and  N_2
REMARK    2  A    between atoms: N_4  and  C_5
REMARK    3  A    between atoms: C_5  and  C_7
REMARK    4  A    between atoms: C_7  and  S_8
REMARK    5  A    between atoms: S_8  and  C_11
REMARK                            x       y       z     vdW  Elec       q    Type
REMARK                         _______ _______ _______ _____ _____    ______ ____
ROOT
ATOM      1  C   UNL     1       2.564   6.686  18.487  0.00  0.00    +0.000 C 
ATOM      2  O   UNL     1       3.399   7.125  17.702  0.00  0.00    +0.000 OA
ENDROOT
BRANCH   1   6
ATOM      3  C   UNL     1       1.867   9.669  17.840  0.00  0.00    +0.000 C 
ATOM      4  N   UNL     1       1.331   9.322  19.139  0.00  0.00    +0.000 N 
ATOM      5  C   UNL     1       1.742   8.266  19.942  0.00  0.00    +0.000 A 
ATOM      6  N   UNL     1       2.359   7.151  19.757  0.00  0.00    +0.000 NA
ATOM      7  S   UNL     1       1.212   8.567  21.642  0.00  0.00    +0.000 S 
ATOM      8  C   UNL     1       0.210   9.938  21.115  0.00  0.00    +0.000 A 
ATOM      9  C   UNL     1      -0.671  10.688  21.880  0.00  0.00    +0.000 A 
ATOM     10  C   UNL     1      -1.373  11.724  21.261  0.00  0.00    +0.000 A 
ATOM     11  C   UNL     1      -1.186  11.989  19.900  0.00  0.00    +0.000 A 
ATOM     12  C   UNL     1      -0.295  11.226  19.142  0.00  0.00    +0.000 A 
ATOM     13  C   UNL     1       0.416  10.196  19.751  0.00  0.00    +0.000 A 
ENDBRANCH   1   6
BRANCH   1  14
ATOM     14  C   UNL     1       1.668   5.564  18.080  0.00  0.00    +0.000 C 
BRANCH  14  15
ATOM     15  S   UNL     1       2.441   4.031  18.463  0.00  0.00    +0.000 S 
ATOM     16  O   UNL     1       2.508   3.940  19.911  0.00  0.00    +0.000 OA
ATOM     17  O   UNL     1       1.779   2.982  17.708  0.00  0.00    +0.000 OA
BRANCH  15  18
ATOM     18  C   UNL     1       4.137   4.111  17.917  0.00  0.00    +0.000 A 
ATOM     19  C   UNL     1       4.437   3.944  16.559  0.00  0.00    +0.000 A 
ATOM     20  C   UNL     1       5.760   4.085  16.126  0.00  0.00    +0.000 A 
ATOM     21  C   UNL     1       6.757   4.397  17.045  0.00  0.00    +0.000 A 
ATOM     22  F   UNL     1       8.018   4.553  16.621  0.00  0.00    +0.000 F 
ATOM     23  C   UNL     1       6.463   4.568  18.394  0.00  0.00    +0.000 A 
ATOM     24  C   UNL     1       5.147   4.425  18.837  0.00  0.00    +0.000 A 
ENDBRANCH  15  18
ENDBRANCH  14  15
ENDBRANCH   1  14
TORSDOF 4
ENDMDL
MODEL 9
REMARK VINA RESULT:      -6.7      2.412      2.700
REMARK  Name = 
REMARK  5 active torsions:
REMARK  status: ('A' for Active; 'I' for Inactive)
REMARK    1  A    between atoms: C_1  and  N_2
REMARK    2  A    between atoms: N_4  and  C_5
REMARK    3  A    between atoms: C_5  and  C_7
REMARK    4  A    between atoms: C_7  and  S_8
REMARK    5  A    between atoms: S_8  and  C_11
REMARK                            x       y       z     vdW  Elec       q    Type
REMARK                         _______ _______ _______ _____ _____    ______ ____
ROOT
ATOM      1  C   UNL     1       3.880   5.718  18.297  0.00  0.00    +0.000 C 
ATOM      2  O   UNL     1       4.343   5.607  19.428  0.00  0.00    +0.000 OA
ENDROOT
BRANCH   1   6
ATOM      3  C   UNL     1       1.757   5.991  20.583  0.00  0.00    +0.000 C 
ATOM      4  N   UNL     1       1.897   7.261  19.903  0.00  0.00    +0.000 N 
ATOM      5  C   UNL     1       2.414   7.459  18.629  0.00  0.00    +0.000 A 
ATOM      6  N   UNL     1       3.188   6.804  17.836  0.00  0.00    +0.000 NA
ATOM      7  S   UNL     1       1.872   9.065  18.007  0.00  0.00    +0.000 S 
ATOM      8  C   UNL     1       1.237   9.501  19.610  0.00  0.00    +0.000 A 
ATOM      9  C   UNL     1       0.717  10.723  20.011  0.00  0.00    +0.000 A 
ATOM     10  C   UNL     1       0.280  10.856  21.331  0.00  0.00    +0.000 A 
ATOM     11  C   UNL     1       0.370   9.779  22.218  0.00  0.00    +0.000 A 
ATOM     12  C   UNL     1       0.895   8.554  21.798  0.00  0.00    +0.000 A 
ATOM     13  C   UNL     1       1.327   8.407  20.483  0.00  0.00    +0.000 A 
ENDBRANCH   1   6
BRANCH   1  14
ATOM     14  C   UNL     1       4.059   4.621  17.302  0.00  0.00    +0.000 C 
BRANCH  14  15
ATOM     15  S   UNL     1       5.492   4.941  16.332  0.00  0.00    +0.000 S 
ATOM     16  O   UNL     1       6.235   3.695  16.249  0.00  0.00    +0.000 OA
ATOM     17  O   UNL     1       5.080   5.614  15.113  0.00  0.00    +0.000 OA
BRANCH  15  18
ATOM     18  C   UNL     1       6.544   6.055  17.245  0.00  0.00    +0.000 A 
ATOM     19  C   UNL     1       7.358   5.557  18.271  0.00  0.00    +0.000 A 
ATOM     20  C   UNL     1       8.237   6.422  18.930  0.00  0.00    +0.000 A 
ATOM     21  C   UNL     1       8.301   7.760  18.554  0.00  0.00    +0.000 A 
ATOM     22  F   UNL     1       9.162   8.579  19.173  0.00  0.00    +0.000 F 
ATOM     23  C   UNL     1       7.498   8.258  17.532  0.00  0.00    +0.000 A 
ATOM     24  C   UNL     1       6.613   7.404  16.871  0.00  0.00    +0.000 A 
ENDBRANCH  15  18
ENDBRANCH  14  15
ENDBRANCH   1  14
TORSDOF 4
ENDMDL
