MODEL 1
REMARK VINA RESULT:      -8.6      0.000      0.000
REMARK  Name = 
REMARK  7 active torsions:
REMARK  status: ('A' for Active; 'I' for Inactive)
REMARK    1  A    between atoms: C_2  and  C_3
REMARK    2  A    between atoms: C_3  and  C_4
REMARK    3  A    between atoms: C_4  and  C_5
REMARK    4  A    between atoms: C_5  and  N_6
REMARK    5  A    between atoms: N_14  and  C_15
REMARK    6  A    between atoms: C_15  and  C_16
REMARK    7  A    between atoms: C_15  and  C_22
REMARK                            x       y       z     vdW  Elec       q    Type
REMARK                         _______ _______ _______ _____ _____    ______ ____
ROOT
ATOM      1  O   UNL     1       2.402   8.650  17.351  0.00  0.00    +0.000 OA
ATOM      2  C   UNL     1       2.198   8.193  18.468  0.00  0.00    +0.000 C 
ATOM      3  N   UNL     1       2.608   6.947  18.876  0.00  0.00    +0.000 N 
ATOM      4  H   UNL     1       2.432   6.657  19.826  0.00  0.00    +0.000 HD
ENDROOT
BRANCH   2   5
ATOM      5  C   UNL     1       1.508   8.974  19.574  0.00  0.00    +0.000 C 
BRANCH   5   6
ATOM      6  C   UNL     1       1.278  10.434  19.190  0.00  0.00    +0.000 C 
BRANCH   6   7
ATOM      7  C   UNL     1      -0.130  10.889  19.578  0.00  0.00    +0.000 C 
BRANCH   7   8
ATOM      8  N   UNL     1      -1.048  10.908  18.437  0.00  0.00    +0.000 N 
ATOM      9  C   UNL     1      -1.711   9.751  18.081  0.00  0.00    +0.000 A 
ATOM     10  C   UNL     1      -2.522   9.700  17.021  0.00  0.00    +0.000 A 
ATOM     11  C   UNL     1      -2.709  10.915  16.213  0.00  0.00    +0.000 A 
ATOM     12  O   UNL     1      -3.376  10.893  15.186  0.00  0.00    +0.000 OA
ATOM     13  N   UNL     1      -2.090  12.039  16.677  0.00  0.00    +0.000 N 
ATOM     14  C   UNL     1      -1.234  12.103  17.747  0.00  0.00    +0.000 A 
ATOM     15  O   UNL     1      -0.678  13.161  18.035  0.00  0.00    +0.000 OA
ATOM     16  H   UNL     1      -2.207  12.884  16.141  0.00  0.00    +0.000 HD
ENDBRANCH   7   8
ENDBRANCH   6   7
ENDBRANCH   5   6
ENDBRANCH   2   5
BRANCH   3  17
ATOM     17  C   UNL     1       3.173   5.952  17.973  0.00  0.00    +0.000 C 
BRANCH  17  18
ATOM     18  C   UNL     1       4.695   5.983  18.077  0.00  0.00    +0.000 A 
ATOM     19  C   UNL     1       5.370   5.405  19.166  0.00  0.00    +0.000 A 
ATOM     20  C   UNL     1       6.760   5.479  19.268  0.00  0.00    +0.000 A 
ATOM     21  C   UNL     1       7.500   6.122  18.278  0.00  0.00    +0.000 A 
ATOM     22  C   UNL     1       6.849   6.692  17.187  0.00  0.00    +0.000 A 
ATOM     23  C   UNL     1       5.457   6.628  17.087  0.00  0.00    +0.000 A 
ENDBRANCH  17  18
BRANCH  17  24
ATOM     24  C   UNL     1       2.586   4.560  18.222  0.00  0.00    +0.000 A 
ATOM     25  C   UNL     1       1.653   4.374  19.258  0.00  0.00    +0.000 A 
ATOM     26  C   UNL     1       1.104   3.114  19.514  0.00  0.00    +0.000 A 
ATOM     27  C   UNL     1       1.472   2.020  18.734  0.00  0.00    +0.000 A 
ATOM     28  C   UNL     1       2.379   2.186  17.693  0.00  0.00    +0.000 A 
ATOM     29  C   UNL     1       2.928   3.443  17.437  0.00  0.00    +0.000 A 
ENDBRANCH  17  24
ENDBRANCH   3  17
TORSDOF 7
ENDMDL
MODEL 2
REMARK VINA RESULT:      -8.4      1.386      3.642
REMARK  Name = 
REMARK  7 active torsions:
REMARK  status: ('A' for Active; 'I' for Inactive)
REMARK    1  A    between atoms: C_2  and  C_3
REMARK    2  A    between atoms: C_3  and  C_4
REMARK    3  A    between atoms: C_4  and  C_5
REMARK    4  A    between atoms: C_5  and  N_6
REMARK    5  A    between atoms: N_14  and  C_15
REMARK    6  A    between atoms: C_15  and  C_16
REMARK    7  A    between atoms: C_15  and  C_22
REMARK                            x       y       z     vdW  Elec       q    Type
REMARK                         _______ _______ _______ _____ _____    ______ ____
ROOT
ATOM      1  O   UNL     1       1.800   8.317  20.064  0.00  0.00    +0.000 OA
ATOM      2  C   UNL     1       1.956   8.297  18.850  0.00  0.00    +0.000 C 
ATOM      3  N   UNL     1       2.625   7.306  18.176  0.00  0.00    +0.000 N 
ATOM      4  H   UNL     1       2.680   7.344  17.170  0.00  0.00    +0.000 HD
ENDROOT
BRANCH   2   5
ATOM      5  C   UNL     1       1.375   9.348  17.919  0.00  0.00    +0.000 C 
BRANCH   5   6
ATOM      6  C   UNL     1       0.789  10.534  18.684  0.00  0.00    +0.000 C 
BRANCH   6   7
ATOM      7  C   UNL     1      -0.501  10.140  19.404  0.00  0.00    +0.000 C 
BRANCH   7   8
ATOM      8  N   UNL     1      -1.700  10.585  18.691  0.00  0.00    +0.000 N 
ATOM      9  C   UNL     1      -2.201   9.816  17.659  0.00  0.00    +0.000 A 
ATOM     10  C   UNL     1      -3.262  10.197  16.945  0.00  0.00    +0.000 A 
ATOM     11  C   UNL     1      -3.913  11.476  17.270  0.00  0.00    +0.000 A 
ATOM     12  O   UNL     1      -4.836  11.905  16.588  0.00  0.00    +0.000 OA
ATOM     13  N   UNL     1      -3.415  12.136  18.355  0.00  0.00    +0.000 N 
ATOM     14  C   UNL     1      -2.312  11.772  19.083  0.00  0.00    +0.000 A 
ATOM     15  O   UNL     1      -1.912  12.483  20.004  0.00  0.00    +0.000 OA
ATOM     16  H   UNL     1      -3.848  13.013  18.598  0.00  0.00    +0.000 HD
ENDBRANCH   7   8
ENDBRANCH   6   7
ENDBRANCH   5   6
ENDBRANCH   2   5
BRANCH   3  17
ATOM     17  C   UNL     1       3.386   6.255  18.842  0.00  0.00    +0.000 C 
BRANCH  17  18
ATOM     18  C   UNL     1       2.461   5.081  19.150  0.00  0.00    +0.000 A 
ATOM     19  C   UNL     1       2.056   4.790  20.465  0.00  0.00    +0.000 A 
ATOM     20  C   UNL     1       1.244   3.688  20.736  0.00  0.00    +0.000 A 
ATOM     21  C   UNL     1       0.815   2.864  19.698  0.00  0.00    +0.000 A 
ATOM     22  C   UNL     1       1.198   3.142  18.389  0.00  0.00    +0.000 A 
ATOM     23  C   UNL     1       2.019   4.240  18.115  0.00  0.00    +0.000 A 
ENDBRANCH  17  18
BRANCH  17  24
ATOM     24  C   UNL     1       4.620   5.847  18.032  0.00  0.00    +0.000 A 
ATOM     25  C   UNL     1       5.643   5.106  18.651  0.00  0.00    +0.000 A 
ATOM     26  C   UNL     1       6.785   4.725  17.940  0.00  0.00    +0.000 A 
ATOM     27  C   UNL     1       6.920   5.071  16.597  0.00  0.00    +0.000 A 
ATOM     28  C   UNL     1       5.912   5.788  15.962  0.00  0.00    +0.000 A 
ATOM     29  C   UNL     1       4.771   6.169  16.671  0.00  0.00    +0.000 A 
ENDBRANCH  17  24
ENDBRANCH   3  17
TORSDOF 7
ENDMDL
MODEL 3
REMARK VINA RESULT:      -8.4      1.247      3.672
REMARK  Name = 
REMARK  7 active torsions:
REMARK  status: ('A' for Active; 'I' for Inactive)
REMARK    1  A    between atoms: C_2  and  C_3
REMARK    2  A    between atoms: C_3  and  C_4
REMARK    3  A    between atoms: C_4  and  C_5
REMARK    4  A    between atoms: C_5  and  N_6
REMARK    5  A    between atoms: N_14  and  C_15
REMARK    6  A    between atoms: C_15  and  C_16
REMARK    7  A    between atoms: C_15  and  C_22
REMARK                            x       y       z     vdW  Elec       q    Type
REMARK                         _______ _______ _______ _____ _____    ______ ____
ROOT
ATOM      1  O   UNL     1       1.713   7.765  21.402  0.00  0.00    +0.000 OA
ATOM      2  C   UNL     1       1.728   8.075  20.218  0.00  0.00    +0.000 C 
ATOM      3  N   UNL     1       2.323   7.325  19.233  0.00  0.00    +0.000 N 
ATOM      4  H   UNL     1       2.261   7.632  18.274  0.00  0.00    +0.000 HD
ENDROOT
BRANCH   2   5
ATOM      5  C   UNL     1       1.034   9.312  19.672  0.00  0.00    +0.000 C 
BRANCH   5   6
ATOM      6  C   UNL     1      -0.233   9.654  20.454  0.00  0.00    +0.000 C 
BRANCH   6   7
ATOM      7  C   UNL     1      -0.773  11.027  20.053  0.00  0.00    +0.000 C 
BRANCH   7   8
ATOM      8  N   UNL     1      -1.437  11.010  18.749  0.00  0.00    +0.000 N 
ATOM      9  C   UNL     1      -2.199   9.916  18.389  0.00  0.00    +0.000 A 
ATOM     10  C   UNL     1      -2.787   9.827  17.194  0.00  0.00    +0.000 A 
ATOM     11  C   UNL     1      -2.614  10.929  16.235  0.00  0.00    +0.000 A 
ATOM     12  O   UNL     1      -3.065  10.853  15.099  0.00  0.00    +0.000 OA
ATOM     13  N   UNL     1      -1.921  12.012  16.693  0.00  0.00    +0.000 N 
ATOM     14  C   UNL     1      -1.290  12.109  17.907  0.00  0.00    +0.000 A 
ATOM     15  O   UNL     1      -0.635  13.112  18.188  0.00  0.00    +0.000 OA
ATOM     16  H   UNL     1      -1.794  12.780  16.054  0.00  0.00    +0.000 HD
ENDBRANCH   7   8
ENDBRANCH   6   7
ENDBRANCH   5   6
ENDBRANCH   2   5
BRANCH   3  17
ATOM     17  C   UNL     1       3.164   6.166  19.505  0.00  0.00    +0.000 C 
BRANCH  17  18
ATOM     18  C   UNL     1       2.295   4.913  19.555  0.00  0.00    +0.000 A 
ATOM     19  C   UNL     1       1.922   4.324  20.776  0.00  0.00    +0.000 A 
ATOM     20  C   UNL     1       1.162   3.154  20.804  0.00  0.00    +0.000 A 
ATOM     21  C   UNL     1       0.752   2.558  19.614  0.00  0.00    +0.000 A 
ATOM     22  C   UNL     1       1.103   3.132  18.395  0.00  0.00    +0.000 A 
ATOM     23  C   UNL     1       1.873   4.299  18.363  0.00  0.00    +0.000 A 
ENDBRANCH  17  18
BRANCH  17  24
ATOM     24  C   UNL     1       4.317   6.053  18.504  0.00  0.00    +0.000 A 
ATOM     25  C   UNL     1       4.275   6.793  17.308  0.00  0.00    +0.000 A 
ATOM     26  C   UNL     1       5.310   6.707  16.373  0.00  0.00    +0.000 A 
ATOM     27  C   UNL     1       6.408   5.885  16.618  0.00  0.00    +0.000 A 
ATOM     28  C   UNL     1       6.478   5.160  17.802  0.00  0.00    +0.000 A 
ATOM     29  C   UNL     1       5.445   5.245  18.738  0.00  0.00    +0.000 A 
ENDBRANCH  17  24
ENDBRANCH   3  17
TORSDOF 7
ENDMDL
MODEL 4
REMARK VINA RESULT:      -8.4      1.000      1.378
REMARK  Name = 
REMARK  7 active torsions:
REMARK  status: ('A' for Active; 'I' for Inactive)
REMARK    1  A    between atoms: C_2  and  C_3
REMARK    2  A    between atoms: C_3  and  C_4
REMARK    3  A    between atoms: C_4  and  C_5
REMARK    4  A    between atoms: C_5  and  N_6
REMARK    5  A    between atoms: N_14  and  C_15
REMARK    6  A    between atoms: C_15  and  C_16
REMARK    7  A    between atoms: C_15  and  C_22
REMARK                            x       y       z     vdW  Elec       q    Type
REMARK                         _______ _______ _______ _____ _____    ______ ____
ROOT
ATOM      1  O   UNL     1       1.615   8.702  17.560  0.00  0.00    +0.000 OA
ATOM      2  C   UNL     1       1.810   8.425  18.736  0.00  0.00    +0.000 C 
ATOM      3  N   UNL     1       2.468   7.297  19.163  0.00  0.00    +0.000 N 
ATOM      4  H   UNL     1       2.620   7.158  20.150  0.00  0.00    +0.000 HD
ENDROOT
BRANCH   2   5
ATOM      5  C   UNL     1       1.396   9.330  19.885  0.00  0.00    +0.000 C 
BRANCH   5   6
ATOM      6  C   UNL     1       0.738  10.618  19.394  0.00  0.00    +0.000 C 
BRANCH   6   7
ATOM      7  C   UNL     1      -0.676  10.762  19.957  0.00  0.00    +0.000 C 
BRANCH   7   8
ATOM      8  N   UNL     1      -1.690  10.874  18.906  0.00  0.00    +0.000 N 
ATOM      9  C   UNL     1      -1.663   9.996  17.841  0.00  0.00    +0.000 A 
ATOM     10  C   UNL     1      -2.533  10.083  16.833  0.00  0.00    +0.000 A 
ATOM     11  C   UNL     1      -3.547  11.148  16.861  0.00  0.00    +0.000 A 
ATOM     12  O   UNL     1      -4.310  11.318  15.918  0.00  0.00    +0.000 OA
ATOM     13  N   UNL     1      -3.565  11.921  17.985  0.00  0.00    +0.000 N 
ATOM     14  C   UNL     1      -2.664  11.862  19.018  0.00  0.00    +0.000 A 
ATOM     15  O   UNL     1      -2.738  12.657  19.953  0.00  0.00    +0.000 OA
ATOM     16  H   UNL     1      -4.254  12.655  18.028  0.00  0.00    +0.000 HD
ENDBRANCH   7   8
ENDBRANCH   6   7
ENDBRANCH   5   6
ENDBRANCH   2   5
BRANCH   3  17
ATOM     17  C   UNL     1       2.851   6.207  18.274  0.00  0.00    +0.000 C 
BRANCH  17  18
ATOM     18  C   UNL     1       4.372   6.129  18.196  0.00  0.00    +0.000 A 
ATOM     19  C   UNL     1       5.086   6.724  17.141  0.00  0.00    +0.000 A 
ATOM     20  C   UNL     1       6.475   6.608  17.061  0.00  0.00    +0.000 A 
ATOM     21  C   UNL     1       7.175   5.906  18.040  0.00  0.00    +0.000 A 
ATOM     22  C   UNL     1       6.486   5.319  19.098  0.00  0.00    +0.000 A 
ATOM     23  C   UNL     1       5.094   5.425  19.175  0.00  0.00    +0.000 A 
ENDBRANCH  17  18
BRANCH  17  24
ATOM     24  C   UNL     1       2.205   4.882  18.689  0.00  0.00    +0.000 A 
ATOM     25  C   UNL     1       1.663   4.748  19.980  0.00  0.00    +0.000 A 
ATOM     26  C   UNL     1       1.073   3.549  20.391  0.00  0.00    +0.000 A 
ATOM     27  C   UNL     1       1.008   2.466  19.516  0.00  0.00    +0.000 A 
ATOM     28  C   UNL     1       1.523   2.583  18.230  0.00  0.00    +0.000 A 
ATOM     29  C   UNL     1       2.112   3.780  17.818  0.00  0.00    +0.000 A 
ENDBRANCH  17  24
ENDBRANCH   3  17
TORSDOF 7
ENDMDL
MODEL 5
REMARK VINA RESULT:      -8.4      1.364      3.778
REMARK  Name = 
REMARK  7 active torsions:
REMARK  status: ('A' for Active; 'I' for Inactive)
REMARK    1  A    between atoms: C_2  and  C_3
REMARK    2  A    between atoms: C_3  and  C_4
REMARK    3  A    between atoms: C_4  and  C_5
REMARK    4  A    between atoms: C_5  and  N_6
REMARK    5  A    between atoms: N_14  and  C_15
REMARK    6  A    between atoms: C_15  and  C_16
REMARK    7  A    between atoms: C_15  and  C_22
REMARK                            x       y       z     vdW  Elec       q    Type
REMARK                         _______ _______ _______ _____ _____    ______ ____
ROOT
ATOM      1  O   UNL     1       1.853   8.292  19.969  0.00  0.00    +0.000 OA
ATOM      2  C   UNL     1       1.987   8.222  18.754  0.00  0.00    +0.000 C 
ATOM      3  N   UNL     1       2.635   7.198  18.108  0.00  0.00    +0.000 N 
ATOM      4  H   UNL     1       2.672   7.195  17.101  0.00  0.00    +0.000 HD
ENDROOT
BRANCH   2   5
ATOM      5  C   UNL     1       1.399   9.241  17.791  0.00  0.00    +0.000 C 
BRANCH   5   6
ATOM      6  C   UNL     1       0.782  10.433  18.521  0.00  0.00    +0.000 C 
BRANCH   6   7
ATOM      7  C   UNL     1      -0.492  10.025  19.260  0.00  0.00    +0.000 C 
BRANCH   7   8
ATOM      8  N   UNL     1      -1.706  10.505  18.596  0.00  0.00    +0.000 N 
ATOM      9  C   UNL     1      -2.285   9.738  17.604  0.00  0.00    +0.000 A 
ATOM     10  C   UNL     1      -3.363  10.149  16.933  0.00  0.00    +0.000 A 
ATOM     11  C   UNL     1      -3.946  11.459  17.262  0.00  0.00    +0.000 A 
ATOM     12  O   UNL     1      -4.883  11.913  16.616  0.00  0.00    +0.000 OA
ATOM     13  N   UNL     1      -3.371  12.119  18.309  0.00  0.00    +0.000 N 
ATOM     14  C   UNL     1      -2.250  11.723  18.992  0.00  0.00    +0.000 A 
ATOM     15  O   UNL     1      -1.779  12.434  19.879  0.00  0.00    +0.000 OA
ATOM     16  H   UNL     1      -3.757  13.017  18.555  0.00  0.00    +0.000 HD
ENDBRANCH   7   8
ENDBRANCH   6   7
ENDBRANCH   5   6
ENDBRANCH   2   5
BRANCH   3  17
ATOM     17  C   UNL     1       3.397   6.167  18.803  0.00  0.00    +0.000 C 
BRANCH  17  18
ATOM     18  C   UNL     1       2.491   4.972  19.083  0.00  0.00    +0.000 A 
ATOM     19  C   UNL     1       2.019   4.148  18.046  0.00  0.00    +0.000 A 
ATOM     20  C   UNL     1       1.156   3.083  18.315  0.00  0.00    +0.000 A 
ATOM     21  C   UNL     1       0.760   2.818  19.623  0.00  0.00    +0.000 A 
ATOM     22  C   UNL     1       1.225   3.617  20.664  0.00  0.00    +0.000 A 
ATOM     23  C   UNL     1       2.081   4.689  20.397  0.00  0.00    +0.000 A 
ENDBRANCH  17  18
BRANCH  17  24
ATOM     24  C   UNL     1       4.667   5.787  18.037  0.00  0.00    +0.000 A 
ATOM     25  C   UNL     1       4.757   6.059  16.660  0.00  0.00    +0.000 A 
ATOM     26  C   UNL     1       5.901   5.719  15.933  0.00  0.00    +0.000 A 
ATOM     27  C   UNL     1       6.978   5.107  16.570  0.00  0.00    +0.000 A 
ATOM     28  C   UNL     1       6.917   4.845  17.934  0.00  0.00    +0.000 A 
ATOM     29  C   UNL     1       5.775   5.184  18.662  0.00  0.00    +0.000 A 
ENDBRANCH  17  24
ENDBRANCH   3  17
TORSDOF 7
ENDMDL
MODEL 6
REMARK VINA RESULT:      -8.3      2.534      8.610
REMARK  Name = 
REMARK  7 active torsions:
REMARK  status: ('A' for Active; 'I' for Inactive)
REMARK    1  A    between atoms: C_2  and  C_3
REMARK    2  A    between atoms: C_3  and  C_4
REMARK    3  A    between atoms: C_4  and  C_5
REMARK    4  A    between atoms: C_5  and  N_6
REMARK    5  A    between atoms: N_14  and  C_15
REMARK    6  A    between atoms: C_15  and  C_16
REMARK    7  A    between atoms: C_15  and  C_22
REMARK                            x       y       z     vdW  Elec       q    Type
REMARK                         _______ _______ _______ _____ _____    ______ ____
ROOT
ATOM      1  O   UNL     1       2.397  11.019  17.961  0.00  0.00    +0.000 OA
ATOM      2  C   UNL     1       1.882   9.909  18.010  0.00  0.00    +0.000 C 
ATOM      3  N   UNL     1       0.586   9.678  18.402  0.00  0.00    +0.000 N 
ATOM      4  H   UNL     1       0.224   8.738  18.381  0.00  0.00    +0.000 HD
ENDROOT
BRANCH   2   5
ATOM      5  C   UNL     1       2.599   8.639  17.585  0.00  0.00    +0.000 C 
BRANCH   5   6
ATOM      6  C   UNL     1       2.480   7.532  18.631  0.00  0.00    +0.000 C 
BRANCH   6   7
ATOM      7  C   UNL     1       2.722   6.158  18.006  0.00  0.00    +0.000 C 
BRANCH   7   8
ATOM      8  N   UNL     1       4.123   5.740  18.094  0.00  0.00    +0.000 N 
ATOM      9  C   UNL     1       5.030   6.210  17.165  0.00  0.00    +0.000 A 
ATOM     10  C   UNL     1       6.308   5.824  17.169  0.00  0.00    +0.000 A 
ATOM     11  C   UNL     1       6.757   4.871  18.195  0.00  0.00    +0.000 A 
ATOM     12  O   UNL     1       7.899   4.425  18.186  0.00  0.00    +0.000 OA
ATOM     13  N   UNL     1       5.826   4.520  19.129  0.00  0.00    +0.000 N 
ATOM     14  C   UNL     1       4.505   4.886  19.125  0.00  0.00    +0.000 A 
ATOM     15  O   UNL     1       3.737   4.453  19.983  0.00  0.00    +0.000 OA
ATOM     16  H   UNL     1       6.113   3.870  19.844  0.00  0.00    +0.000 HD
ENDBRANCH   7   8
ENDBRANCH   6   7
ENDBRANCH   5   6
ENDBRANCH   2   5
BRANCH   3  17
ATOM     17  C   UNL     1      -0.273  10.705  18.980  0.00  0.00    +0.000 C 
BRANCH  17  18
ATOM     18  C   UNL     1      -1.599  10.738  18.227  0.00  0.00    +0.000 A 
ATOM     19  C   UNL     1      -2.648  11.586  18.621  0.00  0.00    +0.000 A 
ATOM     20  C   UNL     1      -3.870  11.574  17.947  0.00  0.00    +0.000 A 
ATOM     21  C   UNL     1      -4.061  10.723  16.861  0.00  0.00    +0.000 A 
ATOM     22  C   UNL     1      -3.029   9.883  16.450  0.00  0.00    +0.000 A 
ATOM     23  C   UNL     1      -1.808   9.886  17.129  0.00  0.00    +0.000 A 
ENDBRANCH  17  18
BRANCH  17  24
ATOM     24  C   UNL     1      -0.448  10.516  20.490  0.00  0.00    +0.000 A 
ATOM     25  C   UNL     1      -0.805  11.615  21.292  0.00  0.00    +0.000 A 
ATOM     26  C   UNL     1      -0.965  11.474  22.673  0.00  0.00    +0.000 A 
ATOM     27  C   UNL     1      -0.778  10.232  23.276  0.00  0.00    +0.000 A 
ATOM     28  C   UNL     1      -0.442   9.129  22.499  0.00  0.00    +0.000 A 
ATOM     29  C   UNL     1      -0.282   9.268  21.119  0.00  0.00    +0.000 A 
ENDBRANCH  17  24
ENDBRANCH   3  17
TORSDOF 7
ENDMDL
MODEL 7
REMARK VINA RESULT:      -8.2      2.453      4.560
REMARK  Name = 
REMARK  7 active torsions:
REMARK  status: ('A' for Active; 'I' for Inactive)
REMARK    1  A    between atoms: C_2  and  C_3
REMARK    2  A    between atoms: C_3  and  C_4
REMARK    3  A    between atoms: C_4  and  C_5
REMARK    4  A    between atoms: C_5  and  N_6
REMARK    5  A    between atoms: N_14  and  C_15
REMARK    6  A    between atoms: C_15  and  C_16
REMARK    7  A    between atoms: C_15  and  C_22
REMARK                            x       y       z     vdW  Elec       q    Type
REMARK                         _______ _______ _______ _____ _____    ______ ____
ROOT
ATOM      1  O   UNL     1       1.806   8.226  20.016  0.00  0.00    +0.000 OA
ATOM      2  C   UNL     1       2.032   8.246  18.813  0.00  0.00    +0.000 C 
ATOM      3  N   UNL     1       2.741   7.277  18.146  0.00  0.00    +0.000 N 
ATOM      4  H   UNL     1       2.854   7.349  17.147  0.00  0.00    +0.000 HD
ENDROOT
BRANCH   2   5
ATOM      5  C   UNL     1       1.504   9.328  17.885  0.00  0.00    +0.000 C 
BRANCH   5   6
ATOM      6  C   UNL     1       0.226   9.972  18.420  0.00  0.00    +0.000 C 
BRANCH   6   7
ATOM      7  C   UNL     1       0.526  11.310  19.096  0.00  0.00    +0.000 C 
BRANCH   7   8
ATOM      8  N   UNL     1      -0.380  11.592  20.211  0.00  0.00    +0.000 N 
ATOM      9  C   UNL     1      -1.621  12.140  19.955  0.00  0.00    +0.000 A 
ATOM     10  C   UNL     1      -2.467  12.461  20.936  0.00  0.00    +0.000 A 
ATOM     11  C   UNL     1      -2.059  12.223  22.329  0.00  0.00    +0.000 A 
ATOM     12  O   UNL     1      -2.767  12.579  23.264  0.00  0.00    +0.000 OA
ATOM     13  N   UNL     1      -0.857  11.600  22.499  0.00  0.00    +0.000 N 
ATOM     14  C   UNL     1       0.034  11.286  21.505  0.00  0.00    +0.000 A 
ATOM     15  O   UNL     1       1.123  10.785  21.782  0.00  0.00    +0.000 OA
ATOM     16  H   UNL     1      -0.559  11.424  23.445  0.00  0.00    +0.000 HD
ENDBRANCH   7   8
ENDBRANCH   6   7
ENDBRANCH   5   6
ENDBRANCH   2   5
BRANCH   3  17
ATOM     17  C   UNL     1       3.463   6.205  18.820  0.00  0.00    +0.000 C 
BRANCH  17  18
ATOM     18  C   UNL     1       2.504   5.054  19.109  0.00  0.00    +0.000 A 
ATOM     19  C   UNL     1       2.060   4.778  20.414  0.00  0.00    +0.000 A 
ATOM     20  C   UNL     1       1.215   3.696  20.668  0.00  0.00    +0.000 A 
ATOM     21  C   UNL     1       0.792   2.879  19.623  0.00  0.00    +0.000 A 
ATOM     22  C   UNL     1       1.214   3.143  18.323  0.00  0.00    +0.000 A 
ATOM     23  C   UNL     1       2.067   4.221  18.066  0.00  0.00    +0.000 A 
ENDBRANCH  17  18
BRANCH  17  24
ATOM     24  C   UNL     1       4.699   5.768  18.028  0.00  0.00    +0.000 A 
ATOM     25  C   UNL     1       4.792   6.076  16.659  0.00  0.00    +0.000 A 
ATOM     26  C   UNL     1       5.905   5.685  15.908  0.00  0.00    +0.000 A 
ATOM     27  C   UNL     1       6.946   4.986  16.514  0.00  0.00    +0.000 A 
ATOM     28  C   UNL     1       6.882   4.687  17.871  0.00  0.00    +0.000 A 
ATOM     29  C   UNL     1       5.772   5.077  18.622  0.00  0.00    +0.000 A 
ENDBRANCH  17  24
ENDBRANCH   3  17
TORSDOF 7
ENDMDL
MODEL 8
REMARK VINA RESULT:      -8.2      2.972      5.627
REMARK  Name = 
REMARK  7 active torsions:
REMARK  status: ('A' for Active; 'I' for Inactive)
REMARK    1  A    between atoms: C_2  and  C_3
REMARK    2  A    between atoms: C_3  and  C_4
REMARK    3  A    between atoms: C_4  and  C_5
REMARK    4  A    between atoms: C_5  and  N_6
REMARK    5  A    between atoms: N_14  and  C_15
REMARK    6  A    between atoms: C_15  and  C_16
REMARK    7  A    between atoms: C_15  and  C_22
REMARK                            x       y       z     vdW  Elec       q    Type
REMARK                         _______ _______ _______ _____ _____    ______ ____
ROOT
ATOM      1  O   UNL     1       4.467   3.146  18.367  0.00  0.00    +0.000 OA
ATOM      2  C   UNL     1       3.921   3.753  17.454  0.00  0.00    +0.000 C 
ATOM      3  N   UNL     1       4.568   4.185  16.322  0.00  0.00    +0.000 N 
ATOM      4  H   UNL     1       4.039   4.648  15.599  0.00  0.00    +0.000 HD
ENDROOT
BRANCH   2   5
ATOM      5  C   UNL     1       2.433   4.060  17.431  0.00  0.00    +0.000 C 
BRANCH   5   6
ATOM      6  C   UNL     1       2.034   5.057  18.518  0.00  0.00    +0.000 C 
BRANCH   6   7
ATOM      7  C   UNL     1       2.771   6.385  18.341  0.00  0.00    +0.000 C 
BRANCH   7   8
ATOM      8  N   UNL     1       2.142   7.479  19.084  0.00  0.00    +0.000 N 
ATOM      9  C   UNL     1       1.809   7.294  20.411  0.00  0.00    +0.000 A 
ATOM     10  C   UNL     1       1.191   8.240  21.122  0.00  0.00    +0.000 A 
ATOM     11  C   UNL     1       0.856   9.514  20.468  0.00  0.00    +0.000 A 
ATOM     12  O   UNL     1       0.215  10.376  21.056  0.00  0.00    +0.000 OA
ATOM     13  N   UNL     1       1.293   9.654  19.183  0.00  0.00    +0.000 N 
ATOM     14  C   UNL     1       1.906   8.685  18.430  0.00  0.00    +0.000 A 
ATOM     15  O   UNL     1       2.197   8.903  17.255  0.00  0.00    +0.000 OA
ATOM     16  H   UNL     1       1.078  10.521  18.716  0.00  0.00    +0.000 HD
ENDBRANCH   7   8
ENDBRANCH   6   7
ENDBRANCH   5   6
ENDBRANCH   2   5
BRANCH   3  17
ATOM     17  C   UNL     1       6.015   4.132  16.155  0.00  0.00    +0.000 C 
BRANCH  17  18
ATOM     18  C   UNL     1       6.355   4.219  14.670  0.00  0.00    +0.000 A 
ATOM     19  C   UNL     1       5.603   3.532  13.702  0.00  0.00    +0.000 A 
ATOM     20  C   UNL     1       5.953   3.587  12.352  0.00  0.00    +0.000 A 
ATOM     21  C   UNL     1       7.052   4.339  11.945  0.00  0.00    +0.000 A 
ATOM     22  C   UNL     1       7.803   5.035  12.888  0.00  0.00    +0.000 A 
ATOM     23  C   UNL     1       7.461   4.974  14.242  0.00  0.00    +0.000 A 
ENDBRANCH  17  18
BRANCH  17  24
ATOM     24  C   UNL     1       6.723   5.200  16.994  0.00  0.00    +0.000 A 
ATOM     25  C   UNL     1       7.505   4.812  18.097  0.00  0.00    +0.000 A 
ATOM     26  C   UNL     1       8.157   5.763  18.886  0.00  0.00    +0.000 A 
ATOM     27  C   UNL     1       8.046   7.119  18.582  0.00  0.00    +0.000 A 
ATOM     28  C   UNL     1       7.293   7.522  17.485  0.00  0.00    +0.000 A 
ATOM     29  C   UNL     1       6.640   6.573  16.696  0.00  0.00    +0.000 A 
ENDBRANCH  17  24
ENDBRANCH   3  17
TORSDOF 7
ENDMDL
MODEL 9
REMARK VINA RESULT:      -8.2      1.458      3.731
REMARK  Name = 
REMARK  7 active torsions:
REMARK  status: ('A' for Active; 'I' for Inactive)
REMARK    1  A    between atoms: C_2  and  C_3
REMARK    2  A    between atoms: C_3  and  C_4
REMARK    3  A    between atoms: C_4  and  C_5
REMARK    4  A    between atoms: C_5  and  N_6
REMARK    5  A    between atoms: N_14  and  C_15
REMARK    6  A    between atoms: C_15  and  C_16
REMARK    7  A    between atoms: C_15  and  C_22
REMARK                            x       y       z     vdW  Elec       q    Type
REMARK                         _______ _______ _______ _____ _____    ______ ____
ROOT
ATOM      1  O   UNL     1       1.998   7.630  20.294  0.00  0.00    +0.000 OA
ATOM      2  C   UNL     1       2.221   7.860  19.113  0.00  0.00    +0.000 C 
ATOM      3  N   UNL     1       2.976   7.049  18.301  0.00  0.00    +0.000 N 
ATOM      4  H   UNL     1       3.085   7.289  17.328  0.00  0.00    +0.000 HD
ENDROOT
BRANCH   2   5
ATOM      5  C   UNL     1       1.641   9.053  18.372  0.00  0.00    +0.000 C 
BRANCH   5   6
ATOM      6  C   UNL     1       0.641   9.830  19.226  0.00  0.00    +0.000 C 
BRANCH   6   7
ATOM      7  C   UNL     1       0.178  11.099  18.511  0.00  0.00    +0.000 C 
BRANCH   7   8
ATOM      8  N   UNL     1      -1.255  11.082  18.208  0.00  0.00    +0.000 N 
ATOM      9  C   UNL     1      -1.769  10.070  17.422  0.00  0.00    +0.000 A 
ATOM     10  C   UNL     1      -3.058  10.032  17.075  0.00  0.00    +0.000 A 
ATOM     11  C   UNL     1      -3.951  11.102  17.545  0.00  0.00    +0.000 A 
ATOM     12  O   UNL     1      -5.120  11.154  17.183  0.00  0.00    +0.000 OA
ATOM     13  N   UNL     1      -3.389  12.017  18.387  0.00  0.00    +0.000 N 
ATOM     14  C   UNL     1      -2.063  12.086  18.733  0.00  0.00    +0.000 A 
ATOM     15  O   UNL     1      -1.655  12.999  19.448  0.00  0.00    +0.000 OA
ATOM     16  H   UNL     1      -3.983  12.758  18.724  0.00  0.00    +0.000 HD
ENDBRANCH   7   8
ENDBRANCH   6   7
ENDBRANCH   5   6
ENDBRANCH   2   5
BRANCH   3  17
ATOM     17  C   UNL     1       3.750   5.915  18.794  0.00  0.00    +0.000 C 
BRANCH  17  18
ATOM     18  C   UNL     1       2.810   4.749  19.079  0.00  0.00    +0.000 A 
ATOM     19  C   UNL     1       2.035   4.163  18.063  0.00  0.00    +0.000 A 
ATOM     20  C   UNL     1       1.148   3.123  18.348  0.00  0.00    +0.000 A 
ATOM     21  C   UNL     1       1.028   2.645  19.650  0.00  0.00    +0.000 A 
ATOM     22  C   UNL     1       1.795   3.206  20.668  0.00  0.00    +0.000 A 
ATOM     23  C   UNL     1       2.677   4.253  20.387  0.00  0.00    +0.000 A 
ENDBRANCH  17  18
BRANCH  17  24
ATOM     24  C   UNL     1       4.888   5.546  17.838  0.00  0.00    +0.000 A 
ATOM     25  C   UNL     1       6.030   4.893  18.337  0.00  0.00    +0.000 A 
ATOM     26  C   UNL     1       7.088   4.549  17.490  0.00  0.00    +0.000 A 
ATOM     27  C   UNL     1       7.020   4.846  16.131  0.00  0.00    +0.000 A 
ATOM     28  C   UNL     1       5.893   5.476  15.615  0.00  0.00    +0.000 A 
ATOM     29  C   UNL     1       4.835   5.820  16.459  0.00  0.00    +0.000 A 
ENDBRANCH  17  24
ENDBRANCH   3  17
TORSDOF 7
ENDMDL
