MODEL 1
REMARK VINA RESULT:      -9.7      0.000      0.000
REMARK  Name = 
REMARK  7 active torsions:
REMARK  status: ('A' for Active; 'I' for Inactive)
REMARK    1  A    between atoms: C_1  and  C_2
REMARK    2  A    between atoms: C_2  and  N_3
REMARK    3  A    between atoms: C_11  and  N_12
REMARK    4  A    between atoms: C_13  and  C_15
REMARK    5  A    between atoms: C_18  and  C_19
REMARK    6  A    between atoms: C_25  and  C_26
REMARK    7  A    between atoms: C_26  and  N_27
REMARK                            x       y       z     vdW  Elec       q    Type
REMARK                         _______ _______ _______ _____ _____    ______ ____
ROOT
ATOM      1  C   UNL     1       0.886   9.530  19.668  0.00  0.00    +0.000 A 
ATOM      2  C   UNL     1       1.117   9.533  21.030  0.00  0.00    +0.000 A 
ATOM      3  C   UNL     1       0.373  10.401  21.840  0.00  0.00    +0.000 A 
ATOM      4  C   UNL     1      -0.587  11.324  21.330  0.00  0.00    +0.000 A 
ATOM      5  C   UNL     1      -0.813  11.313  19.921  0.00  0.00    +0.000 A 
ATOM      6  C   UNL     1      -0.074  10.393  19.139  0.00  0.00    +0.000 A 
ENDROOT
BRANCH   4   7
ATOM      7  C   UNL     1      -1.248  12.247  22.312  0.00  0.00    +0.000 A 
ATOM      8  C   UNL     1      -2.477  11.894  22.914  0.00  0.00    +0.000 A 
ATOM      9  C   UNL     1      -3.149  12.747  23.800  0.00  0.00    +0.000 A 
ATOM     10  C   UNL     1      -2.584  13.963  24.157  0.00  0.00    +0.000 A 
ATOM     11  C   UNL     1      -1.371  14.339  23.598  0.00  0.00    +0.000 A 
ATOM     12  C   UNL     1      -0.741  13.509  22.661  0.00  0.00    +0.000 A 
ENDBRANCH   4   7
BRANCH   1  14
ATOM     13  N   UNL     1       2.005   7.437  19.184  0.00  0.00    +0.000 N 
ATOM     14  C   UNL     1       1.637   8.681  18.708  0.00  0.00    +0.000 C 
ATOM     15  O   UNL     1       1.833   9.129  17.583  0.00  0.00    +0.000 OA
ATOM     16  H   UNL     1       1.717   7.202  20.124  0.00  0.00    +0.000 HD
BRANCH  13  25
ATOM     17  N   UNL     1       5.950   6.146  16.585  0.00  0.00    +0.000 N 
ATOM     18  C   UNL     1       6.584   5.266  15.703  0.00  0.00    +0.000 C 
ATOM     19  O   UNL     1       7.745   5.406  15.315  0.00  0.00    +0.000 OA
ATOM     20  C   UNL     1       5.719   4.171  15.132  0.00  0.00    +0.000 C 
ATOM     21  C   UNL     1       4.916   3.510  16.226  0.00  0.00    +0.000 C 
ATOM     22  C   UNL     1       4.138   4.551  16.975  0.00  0.00    +0.000 A 
ATOM     23  C   UNL     1       2.909   4.204  17.545  0.00  0.00    +0.000 A 
ATOM     24  C   UNL     1       2.186   5.146  18.278  0.00  0.00    +0.000 A 
ATOM     25  C   UNL     1       2.689   6.429  18.468  0.00  0.00    +0.000 A 
ATOM     26  C   UNL     1       3.940   6.757  17.923  0.00  0.00    +0.000 A 
ATOM     27  C   UNL     1       4.677   5.836  17.161  0.00  0.00    +0.000 A 
BRANCH  17  29
ATOM     28  C   UNL     1       7.700   7.073  18.083  0.00  0.00    +0.000 C 
ATOM     29  C   UNL     1       6.694   7.344  16.973  0.00  0.00    +0.000 C 
ENDBRANCH  17  29
ENDBRANCH  13  25
ENDBRANCH   1  14
BRANCH   5  30
ATOM     30  C   UNL     1      -1.796  12.271  19.236  0.00  0.00    +0.000 C 
BRANCH  30  31
ATOM     31  N   UNL     1      -3.184  11.850  18.953  0.00  0.00    +0.000 NA
ATOM     32  C   UNL     1      -4.199  12.603  19.686  0.00  0.00    +0.000 C 
ATOM     33  C   UNL     1      -5.637  12.305  19.261  0.00  0.00    +0.000 C 
ATOM     34  C   UNL     1      -5.786  12.287  17.746  0.00  0.00    +0.000 C 
ATOM     35  C   UNL     1      -4.851  11.235  17.174  0.00  0.00    +0.000 C 
ATOM     36  C   UNL     1      -3.403  11.539  17.539  0.00  0.00    +0.000 C 
ENDBRANCH  30  31
ENDBRANCH   5  30
TORSDOF 6
ENDMDL
MODEL 2
REMARK VINA RESULT:      -9.6      1.203      1.406
REMARK  Name = 
REMARK  7 active torsions:
REMARK  status: ('A' for Active; 'I' for Inactive)
REMARK    1  A    between atoms: C_1  and  C_2
REMARK    2  A    between atoms: C_2  and  N_3
REMARK    3  A    between atoms: C_11  and  N_12
REMARK    4  A    between atoms: C_13  and  C_15
REMARK    5  A    between atoms: C_18  and  C_19
REMARK    6  A    between atoms: C_25  and  C_26
REMARK    7  A    between atoms: C_26  and  N_27
REMARK                            x       y       z     vdW  Elec       q    Type
REMARK                         _______ _______ _______ _____ _____    ______ ____
ROOT
ATOM      1  C   UNL     1       0.872   8.458  21.025  0.00  0.00    +0.000 A 
ATOM      2  C   UNL     1       0.894   8.817  22.359  0.00  0.00    +0.000 A 
ATOM      3  C   UNL     1       0.243   9.991  22.755  0.00  0.00    +0.000 A 
ATOM      4  C   UNL     1      -0.411  10.873  21.846  0.00  0.00    +0.000 A 
ATOM      5  C   UNL     1      -0.424  10.494  20.469  0.00  0.00    +0.000 A 
ATOM      6  C   UNL     1       0.207   9.279  20.112  0.00  0.00    +0.000 A 
ENDROOT
BRANCH   4   7
ATOM      7  C   UNL     1      -0.997  12.137  22.406  0.00  0.00    +0.000 A 
ATOM      8  C   UNL     1      -2.250  12.119  23.060  0.00  0.00    +0.000 A 
ATOM      9  C   UNL     1      -2.851  13.283  23.556  0.00  0.00    +0.000 A 
ATOM     10  C   UNL     1      -2.191  14.500  23.465  0.00  0.00    +0.000 A 
ATOM     11  C   UNL     1      -0.952  14.556  22.844  0.00  0.00    +0.000 A 
ATOM     12  C   UNL     1      -0.391  13.398  22.290  0.00  0.00    +0.000 A 
ENDBRANCH   4   7
BRANCH   1  14
ATOM     13  N   UNL     1       1.963   7.354  19.166  0.00  0.00    +0.000 N 
ATOM     14  C   UNL     1       1.556   7.257  20.483  0.00  0.00    +0.000 C 
ATOM     15  O   UNL     1       1.735   6.311  21.243  0.00  0.00    +0.000 OA
ATOM     16  H   UNL     1       1.784   8.229  18.694  0.00  0.00    +0.000 HD
BRANCH  13  25
ATOM     17  N   UNL     1       5.955   6.169  16.588  0.00  0.00    +0.000 N 
ATOM     18  C   UNL     1       6.607   5.322  15.687  0.00  0.00    +0.000 C 
ATOM     19  O   UNL     1       7.774   5.480  15.322  0.00  0.00    +0.000 OA
ATOM     20  C   UNL     1       5.756   4.244  15.064  0.00  0.00    +0.000 C 
ATOM     21  C   UNL     1       4.939   3.543  16.122  0.00  0.00    +0.000 C 
ATOM     22  C   UNL     1       4.145   4.555  16.894  0.00  0.00    +0.000 A 
ATOM     23  C   UNL     1       2.908   4.183  17.432  0.00  0.00    +0.000 A 
ATOM     24  C   UNL     1       2.169   5.096  18.184  0.00  0.00    +0.000 A 
ATOM     25  C   UNL     1       2.664   6.375  18.426  0.00  0.00    +0.000 A 
ATOM     26  C   UNL     1       3.922   6.726  17.914  0.00  0.00    +0.000 A 
ATOM     27  C   UNL     1       4.674   5.834  17.132  0.00  0.00    +0.000 A 
BRANCH  17  29
ATOM     28  C   UNL     1       7.694   7.046  18.127  0.00  0.00    +0.000 C 
ATOM     29  C   UNL     1       6.688   7.356  17.029  0.00  0.00    +0.000 C 
ENDBRANCH  17  29
ENDBRANCH  13  25
ENDBRANCH   1  14
BRANCH   5  30
ATOM     30  C   UNL     1      -1.067  11.361  19.380  0.00  0.00    +0.000 C 
BRANCH  30  31
ATOM     31  N   UNL     1      -2.187  10.844  18.568  0.00  0.00    +0.000 NA
ATOM     32  C   UNL     1      -3.390  11.671  18.609  0.00  0.00    +0.000 C 
ATOM     33  C   UNL     1      -4.483  11.247  17.627  0.00  0.00    +0.000 C 
ATOM     34  C   UNL     1      -3.920  10.960  16.243  0.00  0.00    +0.000 C 
ATOM     35  C   UNL     1      -2.875   9.863  16.357  0.00  0.00    +0.000 C 
ATOM     36  C   UNL     1      -1.745  10.282  17.290  0.00  0.00    +0.000 C 
ENDBRANCH  30  31
ENDBRANCH   5  30
TORSDOF 6
ENDMDL
MODEL 3
REMARK VINA RESULT:      -9.5      3.204     10.531
REMARK  Name = 
REMARK  7 active torsions:
REMARK  status: ('A' for Active; 'I' for Inactive)
REMARK    1  A    between atoms: C_1  and  C_2
REMARK    2  A    between atoms: C_2  and  N_3
REMARK    3  A    between atoms: C_11  and  N_12
REMARK    4  A    between atoms: C_13  and  C_15
REMARK    5  A    between atoms: C_18  and  C_19
REMARK    6  A    between atoms: C_25  and  C_26
REMARK    7  A    between atoms: C_26  and  N_27
REMARK                            x       y       z     vdW  Elec       q    Type
REMARK                         _______ _______ _______ _____ _____    ______ ____
ROOT
ATOM      1  C   UNL     1       1.678   8.694  18.908  0.00  0.00    +0.000 A 
ATOM      2  C   UNL     1       2.359   8.906  17.724  0.00  0.00    +0.000 A 
ATOM      3  C   UNL     1       3.300   7.958  17.305  0.00  0.00    +0.000 A 
ATOM      4  C   UNL     1       3.634   6.795  18.060  0.00  0.00    +0.000 A 
ATOM      5  C   UNL     1       2.926   6.589  19.283  0.00  0.00    +0.000 A 
ATOM      6  C   UNL     1       1.952   7.546  19.653  0.00  0.00    +0.000 A 
ENDROOT
BRANCH   4   7
ATOM      7  C   UNL     1       4.721   5.910  17.523  0.00  0.00    +0.000 A 
ATOM      8  C   UNL     1       6.047   6.035  17.995  0.00  0.00    +0.000 A 
ATOM      9  C   UNL     1       7.098   5.260  17.486  0.00  0.00    +0.000 A 
ATOM     10  C   UNL     1       6.847   4.291  16.526  0.00  0.00    +0.000 A 
ATOM     11  C   UNL     1       5.554   4.128  16.048  0.00  0.00    +0.000 A 
ATOM     12  C   UNL     1       4.523   4.954  16.513  0.00  0.00    +0.000 A 
ENDBRANCH   4   7
BRANCH   1  14
ATOM     13  N   UNL     1       0.892  10.003  20.788  0.00  0.00    +0.000 N 
ATOM     14  C   UNL     1       0.685   9.646  19.469  0.00  0.00    +0.000 C 
ATOM     15  O   UNL     1      -0.196  10.057  18.722  0.00  0.00    +0.000 OA
ATOM     16  H   UNL     1       1.702   9.611  21.248  0.00  0.00    +0.000 HD
BRANCH  13  25
ATOM     17  N   UNL     1      -0.159  14.666  21.851  0.00  0.00    +0.000 N 
ATOM     18  C   UNL     1      -0.740  15.614  22.700  0.00  0.00    +0.000 C 
ATOM     19  O   UNL     1      -0.738  16.825  22.475  0.00  0.00    +0.000 OA
ATOM     20  C   UNL     1      -1.277  15.084  24.006  0.00  0.00    +0.000 C 
ATOM     21  C   UNL     1      -2.105  13.846  23.771  0.00  0.00    +0.000 C 
ATOM     22  C   UNL     1      -1.295  12.838  23.010  0.00  0.00    +0.000 A 
ATOM     23  C   UNL     1      -1.536  11.476  23.215  0.00  0.00    +0.000 A 
ATOM     24  C   UNL     1      -0.821  10.521  22.491  0.00  0.00    +0.000 A 
ATOM     25  C   UNL     1       0.121  10.914  21.545  0.00  0.00    +0.000 A 
ATOM     26  C   UNL     1       0.330  12.283  21.320  0.00  0.00    +0.000 A 
ATOM     27  C   UNL     1      -0.359  13.264  22.052  0.00  0.00    +0.000 A 
BRANCH  17  29
ATOM     28  C   UNL     1      -0.306  15.292  19.453  0.00  0.00    +0.000 C 
ATOM     29  C   UNL     1       0.571  15.178  20.691  0.00  0.00    +0.000 C 
ENDBRANCH  17  29
ENDBRANCH  13  25
ENDBRANCH   1  14
BRANCH   5  30
ATOM     30  C   UNL     1       3.205   5.396  20.206  0.00  0.00    +0.000 C 
BRANCH  30  31
ATOM     31  N   UNL     1       2.832   4.026  19.799  0.00  0.00    +0.000 NA
ATOM     32  C   UNL     1       1.656   3.957  18.936  0.00  0.00    +0.000 C 
ATOM     33  C   UNL     1       1.376   2.568  18.358  0.00  0.00    +0.000 C 
ATOM     34  C   UNL     1       2.640   1.917  17.815  0.00  0.00    +0.000 C 
ATOM     35  C   UNL     1       3.659   1.813  18.938  0.00  0.00    +0.000 C 
ATOM     36  C   UNL     1       3.995   3.190  19.496  0.00  0.00    +0.000 C 
ENDBRANCH  30  31
ENDBRANCH   5  30
TORSDOF 6
ENDMDL
MODEL 4
REMARK VINA RESULT:      -9.3      0.719      1.403
REMARK  Name = 
REMARK  7 active torsions:
REMARK  status: ('A' for Active; 'I' for Inactive)
REMARK    1  A    between atoms: C_1  and  C_2
REMARK    2  A    between atoms: C_2  and  N_3
REMARK    3  A    between atoms: C_11  and  N_12
REMARK    4  A    between atoms: C_13  and  C_15
REMARK    5  A    between atoms: C_18  and  C_19
REMARK    6  A    between atoms: C_25  and  C_26
REMARK    7  A    between atoms: C_26  and  N_27
REMARK                            x       y       z     vdW  Elec       q    Type
REMARK                         _______ _______ _______ _____ _____    ______ ____
ROOT
ATOM      1  C   UNL     1       1.006   9.434  19.626  0.00  0.00    +0.000 A 
ATOM      2  C   UNL     1       1.039   9.323  21.003  0.00  0.00    +0.000 A 
ATOM      3  C   UNL     1       0.317  10.244  21.773  0.00  0.00    +0.000 A 
ATOM      4  C   UNL     1      -0.420  11.329  21.215  0.00  0.00    +0.000 A 
ATOM      5  C   UNL     1      -0.443  11.435  19.791  0.00  0.00    +0.000 A 
ATOM      6  C   UNL     1       0.262  10.461  19.044  0.00  0.00    +0.000 A 
ENDROOT
BRANCH   4   7
ATOM      7  C   UNL     1      -1.078  12.282  22.170  0.00  0.00    +0.000 A 
ATOM      8  C   UNL     1      -0.497  13.541  22.443  0.00  0.00    +0.000 A 
ATOM      9  C   UNL     1      -1.055  14.439  23.362  0.00  0.00    +0.000 A 
ATOM     10  C   UNL     1      -2.249  14.132  23.998  0.00  0.00    +0.000 A 
ATOM     11  C   UNL     1      -2.858  12.912  23.746  0.00  0.00    +0.000 A 
ATOM     12  C   UNL     1      -2.256  11.991  22.878  0.00  0.00    +0.000 A 
ENDBRANCH   4   7
BRANCH   1  14
ATOM     13  N   UNL     1       1.988   7.263  19.190  0.00  0.00    +0.000 N 
ATOM     14  C   UNL     1       1.759   8.539  18.710  0.00  0.00    +0.000 C 
ATOM     15  O   UNL     1       2.076   8.984  17.612  0.00  0.00    +0.000 OA
ATOM     16  H   UNL     1       1.612   7.041  20.100  0.00  0.00    +0.000 HD
BRANCH  13  25
ATOM     17  N   UNL     1       6.195   5.380  17.535  0.00  0.00    +0.000 N 
ATOM     18  C   UNL     1       6.878   4.484  16.706  0.00  0.00    +0.000 C 
ATOM     19  O   UNL     1       8.105   4.386  16.671  0.00  0.00    +0.000 OA
ATOM     20  C   UNL     1       6.025   3.704  15.737  0.00  0.00    +0.000 C 
ATOM     21  C   UNL     1       4.820   3.131  16.441  0.00  0.00    +0.000 C 
ATOM     22  C   UNL     1       4.074   4.232  17.136  0.00  0.00    +0.000 A 
ATOM     23  C   UNL     1       2.688   4.125  17.288  0.00  0.00    +0.000 A 
ATOM     24  C   UNL     1       1.979   5.119  17.962  0.00  0.00    +0.000 A 
ATOM     25  C   UNL     1       2.644   6.213  18.508  0.00  0.00    +0.000 A 
ATOM     26  C   UNL     1       4.039   6.293  18.383  0.00  0.00    +0.000 A 
ATOM     27  C   UNL     1       4.773   5.319  17.688  0.00  0.00    +0.000 A 
BRANCH  17  29
ATOM     28  C   UNL     1       7.436   7.530  17.514  0.00  0.00    +0.000 C 
ATOM     29  C   UNL     1       7.010   6.310  18.317  0.00  0.00    +0.000 C 
ENDBRANCH  17  29
ENDBRANCH  13  25
ENDBRANCH   1  14
BRANCH   5  30
ATOM     30  C   UNL     1      -1.174  12.568  19.060  0.00  0.00    +0.000 C 
BRANCH  30  31
ATOM     31  N   UNL     1      -2.513  12.348  18.478  0.00  0.00    +0.000 NA
ATOM     32  C   UNL     1      -2.534  11.407  17.360  0.00  0.00    +0.000 C 
ATOM     33  C   UNL     1      -3.934  11.030  16.876  0.00  0.00    +0.000 C 
ATOM     34  C   UNL     1      -4.865  10.706  18.035  0.00  0.00    +0.000 C 
ATOM     35  C   UNL     1      -4.944  11.914  18.954  0.00  0.00    +0.000 C 
ATOM     36  C   UNL     1      -3.566  12.279  19.492  0.00  0.00    +0.000 C 
ENDBRANCH  30  31
ENDBRANCH   5  30
TORSDOF 6
ENDMDL
MODEL 5
REMARK VINA RESULT:      -9.3      2.154      3.367
REMARK  Name = 
REMARK  7 active torsions:
REMARK  status: ('A' for Active; 'I' for Inactive)
REMARK    1  A    between atoms: C_1  and  C_2
REMARK    2  A    between atoms: C_2  and  N_3
REMARK    3  A    between atoms: C_11  and  N_12
REMARK    4  A    between atoms: C_13  and  C_15
REMARK    5  A    between atoms: C_18  and  C_19
REMARK    6  A    between atoms: C_25  and  C_26
REMARK    7  A    between atoms: C_26  and  N_27
REMARK                            x       y       z     vdW  Elec       q    Type
REMARK                         _______ _______ _______ _____ _____    ______ ____
ROOT
ATOM      1  C   UNL     1      -0.028  10.022  21.722  0.00  0.00    +0.000 A 
ATOM      2  C   UNL     1      -0.535  10.102  23.005  0.00  0.00    +0.000 A 
ATOM      3  C   UNL     1      -1.511  11.065  23.287  0.00  0.00    +0.000 A 
ATOM      4  C   UNL     1      -1.985  12.009  22.330  0.00  0.00    +0.000 A 
ATOM      5  C   UNL     1      -1.450  11.919  21.009  0.00  0.00    +0.000 A 
ATOM      6  C   UNL     1      -0.497  10.905  20.749  0.00  0.00    +0.000 A 
ENDROOT
BRANCH   4   7
ATOM      7  C   UNL     1      -2.975  13.035  22.800  0.00  0.00    +0.000 A 
ATOM      8  C   UNL     1      -2.544  14.175  23.515  0.00  0.00    +0.000 A 
ATOM      9  C   UNL     1      -3.440  15.131  24.011  0.00  0.00    +0.000 A 
ATOM     10  C   UNL     1      -4.799  15.008  23.757  0.00  0.00    +0.000 A 
ATOM     11  C   UNL     1      -5.260  13.910  23.046  0.00  0.00    +0.000 A 
ATOM     12  C   UNL     1      -4.363  12.924  22.614  0.00  0.00    +0.000 A 
ENDBRANCH   4   7
BRANCH   1  14
ATOM     13  N   UNL     1       1.039   8.728  19.974  0.00  0.00    +0.000 N 
ATOM     14  C   UNL     1       1.034   9.067  21.315  0.00  0.00    +0.000 C 
ATOM     15  O   UNL     1       1.825   8.693  22.174  0.00  0.00    +0.000 OA
ATOM     16  H   UNL     1       0.345   9.168  19.387  0.00  0.00    +0.000 HD
BRANCH  13  25
ATOM     17  N   UNL     1       3.398   4.436  19.932  0.00  0.00    +0.000 N 
ATOM     18  C   UNL     1       4.437   3.629  19.456  0.00  0.00    +0.000 C 
ATOM     19  O   UNL     1       4.605   2.459  19.800  0.00  0.00    +0.000 OA
ATOM     20  C   UNL     1       5.447   4.314  18.569  0.00  0.00    +0.000 C 
ATOM     21  C   UNL     1       4.749   5.142  17.519  0.00  0.00    +0.000 C 
ATOM     22  C   UNL     1       3.798   6.095  18.181  0.00  0.00    +0.000 A 
ATOM     23  C   UNL     1       3.538   7.329  17.576  0.00  0.00    +0.000 A 
ATOM     24  C   UNL     1       2.631   8.216  18.155  0.00  0.00    +0.000 A 
ATOM     25  C   UNL     1       1.959   7.873  19.325  0.00  0.00    +0.000 A 
ATOM     26  C   UNL     1       2.199   6.618  19.905  0.00  0.00    +0.000 A 
ATOM     27  C   UNL     1       3.126   5.718  19.356  0.00  0.00    +0.000 A 
BRANCH  17  29
ATOM     28  C   UNL     1       1.273   3.242  20.403  0.00  0.00    +0.000 C 
ATOM     29  C   UNL     1       2.540   3.865  20.970  0.00  0.00    +0.000 C 
ENDBRANCH  17  29
ENDBRANCH  13  25
ENDBRANCH   1  14
BRANCH   5  30
ATOM     30  C   UNL     1      -1.850  12.888  19.889  0.00  0.00    +0.000 C 
BRANCH  30  31
ATOM     31  N   UNL     1      -2.574  12.402  18.696  0.00  0.00    +0.000 NA
ATOM     32  C   UNL     1      -1.727  11.728  17.715  0.00  0.00    +0.000 C 
ATOM     33  C   UNL     1      -2.493  11.059  16.572  0.00  0.00    +0.000 C 
ATOM     34  C   UNL     1      -3.686  10.263  17.081  0.00  0.00    +0.000 C 
ATOM     35  C   UNL     1      -4.610  11.198  17.844  0.00  0.00    +0.000 C 
ATOM     36  C   UNL     1      -3.885  11.838  19.021  0.00  0.00    +0.000 C 
ENDBRANCH  30  31
ENDBRANCH   5  30
TORSDOF 6
ENDMDL
MODEL 6
REMARK VINA RESULT:      -9.2      1.553      2.275
REMARK  Name = 
REMARK  7 active torsions:
REMARK  status: ('A' for Active; 'I' for Inactive)
REMARK    1  A    between atoms: C_1  and  C_2
REMARK    2  A    between atoms: C_2  and  N_3
REMARK    3  A    between atoms: C_11  and  N_12
REMARK    4  A    between atoms: C_13  and  C_15
REMARK    5  A    between atoms: C_18  and  C_19
REMARK    6  A    between atoms: C_25  and  C_26
REMARK    7  A    between atoms: C_26  and  N_27
REMARK                            x       y       z     vdW  Elec       q    Type
REMARK                         _______ _______ _______ _____ _____    ______ ____
ROOT
ATOM      1  C   UNL     1       0.444   9.237  21.156  0.00  0.00    +0.000 A 
ATOM      2  C   UNL     1       0.176   9.204  22.512  0.00  0.00    +0.000 A 
ATOM      3  C   UNL     1      -0.583  10.236  23.076  0.00  0.00    +0.000 A 
ATOM      4  C   UNL     1      -1.062  11.356  22.335  0.00  0.00    +0.000 A 
ATOM      5  C   UNL     1      -0.775  11.380  20.937  0.00  0.00    +0.000 A 
ATOM      6  C   UNL     1      -0.042  10.298  20.393  0.00  0.00    +0.000 A 
ENDROOT
BRANCH   4   7
ATOM      7  C   UNL     1      -1.795  12.425  23.093  0.00  0.00    +0.000 A 
ATOM      8  C   UNL     1      -1.153  13.640  23.420  0.00  0.00    +0.000 A 
ATOM      9  C   UNL     1      -1.786  14.644  24.166  0.00  0.00    +0.000 A 
ATOM     10  C   UNL     1      -3.107  14.488  24.560  0.00  0.00    +0.000 A 
ATOM     11  C   UNL     1      -3.776  13.315  24.245  0.00  0.00    +0.000 A 
ATOM     12  C   UNL     1      -3.112  12.289  23.560  0.00  0.00    +0.000 A 
ENDBRANCH   4   7
BRANCH   1  14
ATOM     13  N   UNL     1       1.284   6.967  21.043  0.00  0.00    +0.000 N 
ATOM     14  C   UNL     1       1.267   8.219  20.455  0.00  0.00    +0.000 C 
ATOM     15  O   UNL     1       1.823   8.553  19.414  0.00  0.00    +0.000 OA
ATOM     16  H   UNL     1       0.726   6.845  21.876  0.00  0.00    +0.000 HD
BRANCH  13  25
ATOM     17  N   UNL     1       4.096   4.952  17.577  0.00  0.00    +0.000 N 
ATOM     18  C   UNL     1       4.614   3.817  16.946  0.00  0.00    +0.000 C 
ATOM     19  O   UNL     1       5.398   3.860  15.997  0.00  0.00    +0.000 OA
ATOM     20  C   UNL     1       4.056   2.495  17.411  0.00  0.00    +0.000 C 
ATOM     21  C   UNL     1       4.037   2.434  18.919  0.00  0.00    +0.000 C 
ATOM     22  C   UNL     1       3.289   3.617  19.459  0.00  0.00    +0.000 A 
ATOM     23  C   UNL     1       2.592   3.489  20.665  0.00  0.00    +0.000 A 
ATOM     24  C   UNL     1       1.919   4.585  21.204  0.00  0.00    +0.000 A 
ATOM     25  C   UNL     1       1.954   5.820  20.562  0.00  0.00    +0.000 A 
ATOM     26  C   UNL     1       2.686   5.948  19.372  0.00  0.00    +0.000 A 
ATOM     27  C   UNL     1       3.351   4.854  18.795  0.00  0.00    +0.000 A 
BRANCH  17  29
ATOM     28  C   UNL     1       5.830   6.722  17.406  0.00  0.00    +0.000 C 
ATOM     29  C   UNL     1       4.443   6.248  16.994  0.00  0.00    +0.000 C 
ENDBRANCH  17  29
ENDBRANCH  13  25
ENDBRANCH   1  14
BRANCH   5  30
ATOM     30  C   UNL     1      -1.207  12.536  20.026  0.00  0.00    +0.000 C 
BRANCH  30  31
ATOM     31  N   UNL     1      -2.305  12.361  19.055  0.00  0.00    +0.000 NA
ATOM     32  C   UNL     1      -1.969  11.507  17.918  0.00  0.00    +0.000 C 
ATOM     33  C   UNL     1      -3.152  11.167  17.010  0.00  0.00    +0.000 C 
ATOM     34  C   UNL     1      -4.380  10.757  17.811  0.00  0.00    +0.000 C 
ATOM     35  C   UNL     1      -4.757  11.894  18.747  0.00  0.00    +0.000 C 
ATOM     36  C   UNL     1      -3.612  12.216  19.699  0.00  0.00    +0.000 C 
ENDBRANCH  30  31
ENDBRANCH   5  30
TORSDOF 6
ENDMDL
MODEL 7
REMARK VINA RESULT:      -9.1      2.503     10.588
REMARK  Name = 
REMARK  7 active torsions:
REMARK  status: ('A' for Active; 'I' for Inactive)
REMARK    1  A    between atoms: C_1  and  C_2
REMARK    2  A    between atoms: C_2  and  N_3
REMARK    3  A    between atoms: C_11  and  N_12
REMARK    4  A    between atoms: C_13  and  C_15
REMARK    5  A    between atoms: C_18  and  C_19
REMARK    6  A    between atoms: C_25  and  C_26
REMARK    7  A    between atoms: C_26  and  N_27
REMARK                            x       y       z     vdW  Elec       q    Type
REMARK                         _______ _______ _______ _____ _____    ______ ____
ROOT
ATOM      1  C   UNL     1       1.657   8.595  19.054  0.00  0.00    +0.000 A 
ATOM      2  C   UNL     1       2.271   8.900  17.854  0.00  0.00    +0.000 A 
ATOM      3  C   UNL     1       3.241   8.025  17.349  0.00  0.00    +0.000 A 
ATOM      4  C   UNL     1       3.671   6.850  18.032  0.00  0.00    +0.000 A 
ATOM      5  C   UNL     1       3.032   6.548  19.273  0.00  0.00    +0.000 A 
ATOM      6  C   UNL     1       2.026   7.432  19.730  0.00  0.00    +0.000 A 
ENDROOT
BRANCH   4   7
ATOM      7  C   UNL     1       4.779   6.052  17.406  0.00  0.00    +0.000 A 
ATOM      8  C   UNL     1       4.487   4.996  16.514  0.00  0.00    +0.000 A 
ATOM      9  C   UNL     1       5.489   4.198  15.946  0.00  0.00    +0.000 A 
ATOM     10  C   UNL     1       6.825   4.469  16.206  0.00  0.00    +0.000 A 
ATOM     11  C   UNL     1       7.152   5.507  17.065  0.00  0.00    +0.000 A 
ATOM     12  C   UNL     1       6.141   6.255  17.683  0.00  0.00    +0.000 A 
ENDBRANCH   4   7
BRANCH   1  14
ATOM     13  N   UNL     1      -0.241  10.085  18.839  0.00  0.00    +0.000 N 
ATOM     14  C   UNL     1       0.642   9.464  19.703  0.00  0.00    +0.000 C 
ATOM     15  O   UNL     1       0.646   9.529  20.927  0.00  0.00    +0.000 OA
ATOM     16  H   UNL     1      -0.139   9.883  17.855  0.00  0.00    +0.000 HD
BRANCH  13  25
ATOM     17  N   UNL     1      -2.181  13.175  22.105  0.00  0.00    +0.000 N 
ATOM     18  C   UNL     1      -3.287  13.866  22.612  0.00  0.00    +0.000 C 
ATOM     19  O   UNL     1      -3.232  14.631  23.575  0.00  0.00    +0.000 OA
ATOM     20  C   UNL     1      -4.616  13.527  21.984  0.00  0.00    +0.000 C 
ATOM     21  C   UNL     1      -4.501  13.521  20.480  0.00  0.00    +0.000 C 
ATOM     22  C   UNL     1      -3.396  12.594  20.065  0.00  0.00    +0.000 A 
ATOM     23  C   UNL     1      -3.489  11.929  18.839  0.00  0.00    +0.000 A 
ATOM     24  C   UNL     1      -2.457  11.092  18.416  0.00  0.00    +0.000 A 
ATOM     25  C   UNL     1      -1.317  10.928  19.198  0.00  0.00    +0.000 A 
ATOM     26  C   UNL     1      -1.216  11.628  20.409  0.00  0.00    +0.000 A 
ATOM     27  C   UNL     1      -2.252  12.458  20.869  0.00  0.00    +0.000 A 
BRANCH  17  29
ATOM     28  C   UNL     1      -0.051  14.435  22.305  0.00  0.00    +0.000 C 
ATOM     29  C   UNL     1      -0.924  13.310  22.842  0.00  0.00    +0.000 C 
ENDBRANCH  17  29
ENDBRANCH  13  25
ENDBRANCH   1  14
BRANCH   5  30
ATOM     30  C   UNL     1       3.416   5.332  20.124  0.00  0.00    +0.000 C 
BRANCH  30  31
ATOM     31  N   UNL     1       2.970   3.976  19.744  0.00  0.00    +0.000 NA
ATOM     32  C   UNL     1       1.742   3.949  18.954  0.00  0.00    +0.000 C 
ATOM     33  C   UNL     1       1.377   2.571  18.398  0.00  0.00    +0.000 C 
ATOM     34  C   UNL     1       2.581   1.874  17.782  0.00  0.00    +0.000 C 
ATOM     35  C   UNL     1       3.663   1.734  18.840  0.00  0.00    +0.000 C 
ATOM     36  C   UNL     1       4.082   3.098  19.373  0.00  0.00    +0.000 C 
ENDBRANCH  30  31
ENDBRANCH   5  30
TORSDOF 6
ENDMDL
MODEL 8
REMARK VINA RESULT:      -9.1      2.489     10.755
REMARK  Name = 
REMARK  7 active torsions:
REMARK  status: ('A' for Active; 'I' for Inactive)
REMARK    1  A    between atoms: C_1  and  C_2
REMARK    2  A    between atoms: C_2  and  N_3
REMARK    3  A    between atoms: C_11  and  N_12
REMARK    4  A    between atoms: C_13  and  C_15
REMARK    5  A    between atoms: C_18  and  C_19
REMARK    6  A    between atoms: C_25  and  C_26
REMARK    7  A    between atoms: C_26  and  N_27
REMARK                            x       y       z     vdW  Elec       q    Type
REMARK                         _______ _______ _______ _____ _____    ______ ____
ROOT
ATOM      1  C   UNL     1       1.567   8.524  19.368  0.00  0.00    +0.000 A 
ATOM      2  C   UNL     1       2.060   8.937  18.144  0.00  0.00    +0.000 A 
ATOM      3  C   UNL     1       3.017   8.145  17.498  0.00  0.00    +0.000 A 
ATOM      4  C   UNL     1       3.553   6.947  18.056  0.00  0.00    +0.000 A 
ATOM      5  C   UNL     1       3.038   6.533  19.322  0.00  0.00    +0.000 A 
ATOM      6  C   UNL     1       2.041   7.336  19.925  0.00  0.00    +0.000 A 
ENDROOT
BRANCH   4   7
ATOM      7  C   UNL     1       4.632   6.246  17.283  0.00  0.00    +0.000 A 
ATOM      8  C   UNL     1       5.977   6.667  17.385  0.00  0.00    +0.000 A 
ATOM      9  C   UNL     1       7.006   6.070  16.645  0.00  0.00    +0.000 A 
ATOM     10  C   UNL     1       6.733   4.989  15.820  0.00  0.00    +0.000 A 
ATOM     11  C   UNL     1       5.426   4.536  15.705  0.00  0.00    +0.000 A 
ATOM     12  C   UNL     1       4.394   5.185  16.395  0.00  0.00    +0.000 A 
ENDBRANCH   4   7
BRANCH   1  14
ATOM     13  N   UNL     1       0.234  10.529  19.633  0.00  0.00    +0.000 N 
ATOM     14  C   UNL     1       0.578   9.298  20.161  0.00  0.00    +0.000 C 
ATOM     15  O   UNL     1       0.130   8.778  21.177  0.00  0.00    +0.000 OA
ATOM     16  H   UNL     1       0.659  10.786  18.754  0.00  0.00    +0.000 HD
BRANCH  13  25
ATOM     17  N   UNL     1      -4.283  12.412  19.459  0.00  0.00    +0.000 N 
ATOM     18  C   UNL     1      -5.190  13.420  19.804  0.00  0.00    +0.000 C 
ATOM     19  O   UNL     1      -6.376  13.414  19.473  0.00  0.00    +0.000 OA
ATOM     20  C   UNL     1      -4.604  14.615  20.514  0.00  0.00    +0.000 C 
ATOM     21  C   UNL     1      -3.692  14.168  21.630  0.00  0.00    +0.000 C 
ATOM     22  C   UNL     1      -2.652  13.234  21.084  0.00  0.00    +0.000 A 
ATOM     23  C   UNL     1      -1.390  13.195  21.684  0.00  0.00    +0.000 A 
ATOM     24  C   UNL     1      -0.420  12.309  21.217  0.00  0.00    +0.000 A 
ATOM     25  C   UNL     1      -0.705  11.441  20.167  0.00  0.00    +0.000 A 
ATOM     26  C   UNL     1      -1.986  11.462  19.595  0.00  0.00    +0.000 A 
ATOM     27  C   UNL     1      -2.972  12.361  20.030  0.00  0.00    +0.000 A 
BRANCH  17  29
ATOM     28  C   UNL     1      -4.590  11.696  17.102  0.00  0.00    +0.000 C 
ATOM     29  C   UNL     1      -4.775  11.356  18.574  0.00  0.00    +0.000 C 
ENDBRANCH  17  29
ENDBRANCH  13  25
ENDBRANCH   1  14
BRANCH   5  30
ATOM     30  C   UNL     1       3.544   5.281  20.049  0.00  0.00    +0.000 C 
BRANCH  30  31
ATOM     31  N   UNL     1       3.044   3.941  19.679  0.00  0.00    +0.000 NA
ATOM     32  C   UNL     1       1.736   3.949  19.029  0.00  0.00    +0.000 C 
ATOM     33  C   UNL     1       1.296   2.593  18.475  0.00  0.00    +0.000 C 
ATOM     34  C   UNL     1       2.417   1.907  17.707  0.00  0.00    +0.000 C 
ATOM     35  C   UNL     1       3.607   1.725  18.634  0.00  0.00    +0.000 C 
ATOM     36  C   UNL     1       4.098   3.068  19.160  0.00  0.00    +0.000 C 
ENDBRANCH  30  31
ENDBRANCH   5  30
TORSDOF 6
ENDMDL
MODEL 9
REMARK VINA RESULT:      -9.1      1.978      3.059
REMARK  Name = 
REMARK  7 active torsions:
REMARK  status: ('A' for Active; 'I' for Inactive)
REMARK    1  A    between atoms: C_1  and  C_2
REMARK    2  A    between atoms: C_2  and  N_3
REMARK    3  A    between atoms: C_11  and  N_12
REMARK    4  A    between atoms: C_13  and  C_15
REMARK    5  A    between atoms: C_18  and  C_19
REMARK    6  A    between atoms: C_25  and  C_26
REMARK    7  A    between atoms: C_26  and  N_27
REMARK                            x       y       z     vdW  Elec       q    Type
REMARK                         _______ _______ _______ _____ _____    ______ ____
ROOT
ATOM      1  C   UNL     1       0.328   9.250  21.366  0.00  0.00    +0.000 A 
ATOM      2  C   UNL     1      -0.032   9.330  22.698  0.00  0.00    +0.000 A 
ATOM      3  C   UNL     1      -0.792  10.423  23.129  0.00  0.00    +0.000 A 
ATOM      4  C   UNL     1      -1.183  11.496  22.274  0.00  0.00    +0.000 A 
ATOM      5  C   UNL     1      -0.801  11.404  20.901  0.00  0.00    +0.000 A 
ATOM      6  C   UNL     1      -0.070  10.263  20.493  0.00  0.00    +0.000 A 
ENDROOT
BRANCH   4   7
ATOM      7  C   UNL     1      -1.928  12.641  22.897  0.00  0.00    +0.000 A 
ATOM      8  C   UNL     1      -1.229  13.737  23.449  0.00  0.00    +0.000 A 
ATOM      9  C   UNL     1      -1.885  14.803  24.080  0.00  0.00    +0.000 A 
ATOM     10  C   UNL     1      -3.272  14.835  24.128  0.00  0.00    +0.000 A 
ATOM     11  C   UNL     1      -3.994  13.783  23.584  0.00  0.00    +0.000 A 
ATOM     12  C   UNL     1      -3.327  12.690  23.017  0.00  0.00    +0.000 A 
ENDBRANCH   4   7
BRANCH   1  14
ATOM     13  N   UNL     1       1.553   8.334  19.488  0.00  0.00    +0.000 N 
ATOM     14  C   UNL     1       1.162   8.158  20.802  0.00  0.00    +0.000 C 
ATOM     15  O   UNL     1       1.460   7.228  21.543  0.00  0.00    +0.000 OA
ATOM     16  H   UNL     1       1.263   9.188  19.033  0.00  0.00    +0.000 HD
BRANCH  13  25
ATOM     17  N   UNL     1       2.855   3.738  18.412  0.00  0.00    +0.000 N 
ATOM     18  C   UNL     1       3.763   2.837  17.847  0.00  0.00    +0.000 C 
ATOM     19  O   UNL     1       3.592   1.617  17.825  0.00  0.00    +0.000 OA
ATOM     20  C   UNL     1       5.062   3.431  17.361  0.00  0.00    +0.000 C 
ATOM     21  C   UNL     1       4.799   4.669  16.541  0.00  0.00    +0.000 C 
ATOM     22  C   UNL     1       3.968   5.632  17.338  0.00  0.00    +0.000 A 
ATOM     23  C   UNL     1       4.120   7.005  17.122  0.00  0.00    +0.000 A 
ATOM     24  C   UNL     1       3.332   7.916  17.825  0.00  0.00    +0.000 A 
ATOM     25  C   UNL     1       2.374   7.469  18.730  0.00  0.00    +0.000 A 
ATOM     26  C   UNL     1       2.203   6.088  18.913  0.00  0.00    +0.000 A 
ATOM     27  C   UNL     1       3.000   5.151  18.237  0.00  0.00    +0.000 A 
BRANCH  17  29
ATOM     28  C   UNL     1       1.955   2.912  20.573  0.00  0.00    +0.000 C 
ATOM     29  C   UNL     1       1.695   3.166  19.096  0.00  0.00    +0.000 C 
ENDBRANCH  17  29
ENDBRANCH  13  25
ENDBRANCH   1  14
BRANCH   5  30
ATOM     30  C   UNL     1      -1.131  12.499  19.879  0.00  0.00    +0.000 C 
BRANCH  30  31
ATOM     31  N   UNL     1      -2.117  12.256  18.806  0.00  0.00    +0.000 NA
ATOM     32  C   UNL     1      -1.583  11.533  17.654  0.00  0.00    +0.000 C 
ATOM     33  C   UNL     1      -2.635  11.113  16.627  0.00  0.00    +0.000 C 
ATOM     34  C   UNL     1      -3.857  10.495  17.292  0.00  0.00    +0.000 C 
ATOM     35  C   UNL     1      -4.454  11.506  18.258  0.00  0.00    +0.000 C 
ATOM     36  C   UNL     1      -3.440  11.902  19.324  0.00  0.00    +0.000 C 
ENDBRANCH  30  31
ENDBRANCH   5  30
TORSDOF 6
ENDMDL
