MODEL 1
REMARK VINA RESULT:      -7.3      0.000      0.000
REMARK  Name = 
REMARK  8 active torsions:
REMARK  status: ('A' for Active; 'I' for Inactive)
REMARK    1  A    between atoms: C_1  and  C_2
REMARK    2  A    between atoms: C_2  and  C_3
REMARK    3  A    between atoms: C_6  and  N_7
REMARK    4  A    between atoms: C_8  and  C_10
REMARK    5  A    between atoms: C_10  and  C_11
REMARK    6  A    between atoms: N_15  and  C_16
REMARK    7  A    between atoms: C_20  and  N_21
REMARK    8  A    between atoms: N_25  and  C_26
REMARK                            x       y       z     vdW  Elec       q    Type
REMARK                         _______ _______ _______ _____ _____    ______ ____
ROOT
ATOM      1  C   UNL     1       1.089  10.247  19.592  0.00  0.00    +0.000 A 
ATOM      2  C   UNL     1       1.414  10.342  18.289  0.00  0.00    +0.000 A 
ATOM      3  S   UNL     1       1.910   8.818  17.631  0.00  0.00    +0.000 S 
ATOM      4  C   UNL     1       1.893   8.056  19.256  0.00  0.00    +0.000 A 
ATOM      5  N   UNL     1       2.389   6.894  19.568  0.00  0.00    +0.000 NA
ATOM      6  N   UNL     1       1.285   8.960  20.133  0.00  0.00    +0.000 N 
ATOM      7  C   UNL     1       0.993   8.595  21.505  0.00  0.00    +0.000 C 
ENDROOT
BRANCH   5   8
ATOM      8  C   UNL     1       3.078   6.073  18.655  0.00  0.00    +0.000 A 
ATOM      9  C   UNL     1       2.581   4.795  18.383  0.00  0.00    +0.000 A 
ATOM     10  C   UNL     1       3.230   3.940  17.479  0.00  0.00    +0.000 A 
ATOM     11  C   UNL     1       4.372   4.374  16.806  0.00  0.00    +0.000 A 
ATOM     12  C   UNL     1       4.887   5.641  17.097  0.00  0.00    +0.000 A 
ATOM     13  C   UNL     1       4.290   6.449  18.066  0.00  0.00    +0.000 A 
BRANCH  12  14
ATOM     14  N   UNL     1       6.037   6.163  16.345  0.00  0.00    +0.000 N 
ATOM     15  O   UNL     1       6.190   5.762  15.184  0.00  0.00    +0.000 OA
ATOM     16  O   UNL     1       6.783   6.983  16.914  0.00  0.00    +0.000 OA
ENDBRANCH  12  14
ENDBRANCH   5   8
BRANCH   1  17
ATOM     17  C   UNL     1       0.556  11.409  20.375  0.00  0.00    +0.000 C 
BRANCH  17  19
ATOM     18  N   UNL     1      -1.752  11.260  19.604  0.00  0.00    +0.000 N 
ATOM     19  C   UNL     1      -0.615  12.060  19.650  0.00  0.00    +0.000 C 
ATOM     20  O   UNL     1      -0.505  13.180  19.161  0.00  0.00    +0.000 OA
ATOM     21  H   UNL     1      -1.765  10.424  20.171  0.00  0.00    +0.000 HD
BRANCH  18  25
ATOM     22  C   UNL     1      -5.396  12.321  17.739  0.00  0.00    +0.000 A 
ATOM     23  C   UNL     1      -4.428  11.615  17.020  0.00  0.00    +0.000 A 
ATOM     24  C   UNL     1      -3.221  11.254  17.622  0.00  0.00    +0.000 A 
ATOM     25  C   UNL     1      -2.962  11.585  18.953  0.00  0.00    +0.000 A 
ATOM     26  C   UNL     1      -3.943  12.259  19.685  0.00  0.00    +0.000 A 
ATOM     27  C   UNL     1      -5.147  12.637  19.079  0.00  0.00    +0.000 A 
BRANCH  22  29
ATOM     28  C   UNL     1      -6.836  14.181  16.911  0.00  0.00    +0.000 C 
ATOM     29  C   UNL     1      -6.705  12.677  17.085  0.00  0.00    +0.000 C 
ENDBRANCH  22  29
ENDBRANCH  18  25
ENDBRANCH  17  19
ENDBRANCH   1  17
TORSDOF 6
ENDMDL
MODEL 2
REMARK VINA RESULT:      -7.3      1.313      1.678
REMARK  Name = 
REMARK  8 active torsions:
REMARK  status: ('A' for Active; 'I' for Inactive)
REMARK    1  A    between atoms: C_1  and  C_2
REMARK    2  A    between atoms: C_2  and  C_3
REMARK    3  A    between atoms: C_6  and  N_7
REMARK    4  A    between atoms: C_8  and  C_10
REMARK    5  A    between atoms: C_10  and  C_11
REMARK    6  A    between atoms: N_15  and  C_16
REMARK    7  A    between atoms: C_20  and  N_21
REMARK    8  A    between atoms: N_25  and  C_26
REMARK                            x       y       z     vdW  Elec       q    Type
REMARK                         _______ _______ _______ _____ _____    ______ ____
ROOT
ATOM      1  C   UNL     1       1.546   9.688  19.381  0.00  0.00    +0.000 A 
ATOM      2  C   UNL     1       1.862   9.763  18.073  0.00  0.00    +0.000 A 
ATOM      3  S   UNL     1       2.401   8.239  17.449  0.00  0.00    +0.000 S 
ATOM      4  C   UNL     1       2.414   7.515  19.091  0.00  0.00    +0.000 A 
ATOM      5  N   UNL     1       2.947   6.376  19.427  0.00  0.00    +0.000 NA
ATOM      6  N   UNL     1       1.783   8.421  19.949  0.00  0.00    +0.000 N 
ATOM      7  C   UNL     1       1.507   8.079  21.331  0.00  0.00    +0.000 C 
ENDROOT
BRANCH   5   8
ATOM      8  C   UNL     1       3.657   5.556  18.531  0.00  0.00    +0.000 A 
ATOM      9  C   UNL     1       2.985   4.511  17.889  0.00  0.00    +0.000 A 
ATOM     10  C   UNL     1       3.647   3.667  16.985  0.00  0.00    +0.000 A 
ATOM     11  C   UNL     1       4.991   3.886  16.683  0.00  0.00    +0.000 A 
ATOM     12  C   UNL     1       5.673   4.913  17.344  0.00  0.00    +0.000 A 
ATOM     13  C   UNL     1       5.032   5.687  18.312  0.00  0.00    +0.000 A 
BRANCH  12  14
ATOM     14  N   UNL     1       7.065   5.225  16.989  0.00  0.00    +0.000 N 
ATOM     15  O   UNL     1       7.288   6.327  16.472  0.00  0.00    +0.000 OA
ATOM     16  O   UNL     1       7.936   4.370  17.238  0.00  0.00    +0.000 OA
ENDBRANCH  12  14
ENDBRANCH   5   8
BRANCH   1  17
ATOM     17  C   UNL     1       0.980  10.851  20.139  0.00  0.00    +0.000 C 
BRANCH  17  19
ATOM     18  N   UNL     1      -1.156  11.403  19.103  0.00  0.00    +0.000 N 
ATOM     19  C   UNL     1      -0.541  10.781  20.185  0.00  0.00    +0.000 C 
ATOM     20  O   UNL     1      -1.115  10.227  21.116  0.00  0.00    +0.000 OA
ATOM     21  H   UNL     1      -0.575  11.690  18.329  0.00  0.00    +0.000 HD
BRANCH  18  25
ATOM     22  C   UNL     1      -5.329  11.692  18.481  0.00  0.00    +0.000 A 
ATOM     23  C   UNL     1      -4.714  12.493  19.446  0.00  0.00    +0.000 A 
ATOM     24  C   UNL     1      -3.337  12.413  19.661  0.00  0.00    +0.000 A 
ATOM     25  C   UNL     1      -2.549  11.537  18.914  0.00  0.00    +0.000 A 
ATOM     26  C   UNL     1      -3.156  10.760  17.923  0.00  0.00    +0.000 A 
ATOM     27  C   UNL     1      -4.539  10.827  17.716  0.00  0.00    +0.000 A 
BRANCH  22  29
ATOM     28  C   UNL     1      -7.583  11.762  19.547  0.00  0.00    +0.000 C 
ATOM     29  C   UNL     1      -6.811  11.812  18.239  0.00  0.00    +0.000 C 
ENDBRANCH  22  29
ENDBRANCH  18  25
ENDBRANCH  17  19
ENDBRANCH   1  17
TORSDOF 6
ENDMDL
MODEL 3
REMARK VINA RESULT:      -7.2      2.324      2.877
REMARK  Name = 
REMARK  8 active torsions:
REMARK  status: ('A' for Active; 'I' for Inactive)
REMARK    1  A    between atoms: C_1  and  C_2
REMARK    2  A    between atoms: C_2  and  C_3
REMARK    3  A    between atoms: C_6  and  N_7
REMARK    4  A    between atoms: C_8  and  C_10
REMARK    5  A    between atoms: C_10  and  C_11
REMARK    6  A    between atoms: N_15  and  C_16
REMARK    7  A    between atoms: C_20  and  N_21
REMARK    8  A    between atoms: N_25  and  C_26
REMARK                            x       y       z     vdW  Elec       q    Type
REMARK                         _______ _______ _______ _____ _____    ______ ____
ROOT
ATOM      1  C   UNL     1       1.345  10.161  19.603  0.00  0.00    +0.000 A 
ATOM      2  C   UNL     1       1.667  10.089  18.297  0.00  0.00    +0.000 A 
ATOM      3  S   UNL     1       1.986   8.462  17.796  0.00  0.00    +0.000 S 
ATOM      4  C   UNL     1       1.900   7.872  19.490  0.00  0.00    +0.000 A 
ATOM      5  N   UNL     1       2.268   6.699  19.917  0.00  0.00    +0.000 NA
ATOM      6  N   UNL     1       1.403   8.921  20.270  0.00  0.00    +0.000 N 
ATOM      7  C   UNL     1       1.085   8.729  21.671  0.00  0.00    +0.000 C 
ENDROOT
BRANCH   5   8
ATOM      8  C   UNL     1       2.855   5.721  19.093  0.00  0.00    +0.000 A 
ATOM      9  C   UNL     1       2.026   4.866  18.360  0.00  0.00    +0.000 A 
ATOM     10  C   UNL     1       2.562   3.876  17.522  0.00  0.00    +0.000 A 
ATOM     11  C   UNL     1       3.944   3.756  17.380  0.00  0.00    +0.000 A 
ATOM     12  C   UNL     1       4.776   4.592  18.133  0.00  0.00    +0.000 A 
ATOM     13  C   UNL     1       4.236   5.510  19.035  0.00  0.00    +0.000 A 
BRANCH  12  14
ATOM     14  N   UNL     1       6.233   4.550  17.945  0.00  0.00    +0.000 N 
ATOM     15  O   UNL     1       6.656   4.460  16.786  0.00  0.00    +0.000 OA
ATOM     16  O   UNL     1       6.954   4.617  18.959  0.00  0.00    +0.000 OA
ENDBRANCH  12  14
ENDBRANCH   5   8
BRANCH   1  17
ATOM     17  C   UNL     1       0.950  11.447  20.264  0.00  0.00    +0.000 C 
BRANCH  17  19
ATOM     18  N   UNL     1      -0.947  12.356  21.497  0.00  0.00    +0.000 N 
ATOM     19  C   UNL     1      -0.559  11.516  20.458  0.00  0.00    +0.000 C 
ATOM     20  O   UNL     1      -1.313  10.862  19.745  0.00  0.00    +0.000 OA
ATOM     21  H   UNL     1      -0.244  12.951  21.910  0.00  0.00    +0.000 HD
BRANCH  18  25
ATOM     22  C   UNL     1      -4.955  12.991  22.686  0.00  0.00    +0.000 A 
ATOM     23  C   UNL     1      -4.029  12.493  23.606  0.00  0.00    +0.000 A 
ATOM     24  C   UNL     1      -2.701  12.282  23.231  0.00  0.00    +0.000 A 
ATOM     25  C   UNL     1      -2.273  12.568  21.933  0.00  0.00    +0.000 A 
ATOM     26  C   UNL     1      -3.189  13.100  21.021  0.00  0.00    +0.000 A 
ATOM     27  C   UNL     1      -4.524  13.298  21.390  0.00  0.00    +0.000 A 
BRANCH  22  29
ATOM     28  C   UNL     1      -7.334  12.296  22.408  0.00  0.00    +0.000 C 
ATOM     29  C   UNL     1      -6.377  13.243  23.114  0.00  0.00    +0.000 C 
ENDBRANCH  22  29
ENDBRANCH  18  25
ENDBRANCH  17  19
ENDBRANCH   1  17
TORSDOF 6
ENDMDL
MODEL 4
REMARK VINA RESULT:      -7.2      3.260      4.152
REMARK  Name = 
REMARK  8 active torsions:
REMARK  status: ('A' for Active; 'I' for Inactive)
REMARK    1  A    between atoms: C_1  and  C_2
REMARK    2  A    between atoms: C_2  and  C_3
REMARK    3  A    between atoms: C_6  and  N_7
REMARK    4  A    between atoms: C_8  and  C_10
REMARK    5  A    between atoms: C_10  and  C_11
REMARK    6  A    between atoms: N_15  and  C_16
REMARK    7  A    between atoms: C_20  and  N_21
REMARK    8  A    between atoms: N_25  and  C_26
REMARK                            x       y       z     vdW  Elec       q    Type
REMARK                         _______ _______ _______ _____ _____    ______ ____
ROOT
ATOM      1  C   UNL     1       1.267   9.744  19.610  0.00  0.00    +0.000 A 
ATOM      2  C   UNL     1       1.713   9.858  18.344  0.00  0.00    +0.000 A 
ATOM      3  S   UNL     1       2.304   8.351  17.727  0.00  0.00    +0.000 S 
ATOM      4  C   UNL     1       2.148   7.573  19.338  0.00  0.00    +0.000 A 
ATOM      5  N   UNL     1       2.638   6.419  19.687  0.00  0.00    +0.000 NA
ATOM      6  N   UNL     1       1.439   8.457  20.158  0.00  0.00    +0.000 N 
ATOM      7  C   UNL     1       1.025   8.073  21.493  0.00  0.00    +0.000 C 
ENDROOT
BRANCH   5   8
ATOM      8  C   UNL     1       3.430   5.622  18.840  0.00  0.00    +0.000 A 
ATOM      9  C   UNL     1       2.802   4.716  17.980  0.00  0.00    +0.000 A 
ATOM     10  C   UNL     1       3.546   3.901  17.114  0.00  0.00    +0.000 A 
ATOM     11  C   UNL     1       4.936   4.013  17.073  0.00  0.00    +0.000 A 
ATOM     12  C   UNL     1       5.568   4.899  17.952  0.00  0.00    +0.000 A 
ATOM     13  C   UNL     1       4.828   5.637  18.876  0.00  0.00    +0.000 A 
BRANCH  12  14
ATOM     14  N   UNL     1       7.022   5.103  17.877  0.00  0.00    +0.000 N 
ATOM     15  O   UNL     1       7.497   5.428  16.782  0.00  0.00    +0.000 OA
ATOM     16  O   UNL     1       7.687   4.949  18.920  0.00  0.00    +0.000 OA
ENDBRANCH  12  14
ENDBRANCH   5   8
BRANCH   1  17
ATOM     17  C   UNL     1       0.635  10.887  20.346  0.00  0.00    +0.000 C 
BRANCH  17  19
ATOM     18  N   UNL     1       1.300  13.171  19.815  0.00  0.00    +0.000 N 
ATOM     19  C   UNL     1       0.492  12.103  19.440  0.00  0.00    +0.000 C 
ATOM     20  O   UNL     1      -0.286  12.090  18.492  0.00  0.00    +0.000 OA
ATOM     21  H   UNL     1       2.004  13.007  20.521  0.00  0.00    +0.000 HD
BRANCH  18  25
ATOM     22  C   UNL     1       1.301  16.997  18.013  0.00  0.00    +0.000 A 
ATOM     23  C   UNL     1       2.466  16.226  18.006  0.00  0.00    +0.000 A 
ATOM     24  C   UNL     1       2.482  14.959  18.592  0.00  0.00    +0.000 A 
ATOM     25  C   UNL     1       1.334  14.437  19.191  0.00  0.00    +0.000 A 
ATOM     26  C   UNL     1       0.158  15.191  19.169  0.00  0.00    +0.000 A 
ATOM     27  C   UNL     1       0.143  16.468  18.595  0.00  0.00    +0.000 A 
BRANCH  22  29
ATOM     28  C   UNL     1       0.072  18.506  16.453  0.00  0.00    +0.000 C 
ATOM     29  C   UNL     1       1.290  18.348  17.349  0.00  0.00    +0.000 C 
ENDBRANCH  22  29
ENDBRANCH  18  25
ENDBRANCH  17  19
ENDBRANCH   1  17
TORSDOF 6
ENDMDL
MODEL 5
REMARK VINA RESULT:      -7.2      1.550      1.754
REMARK  Name = 
REMARK  8 active torsions:
REMARK  status: ('A' for Active; 'I' for Inactive)
REMARK    1  A    between atoms: C_1  and  C_2
REMARK    2  A    between atoms: C_2  and  C_3
REMARK    3  A    between atoms: C_6  and  N_7
REMARK    4  A    between atoms: C_8  and  C_10
REMARK    5  A    between atoms: C_10  and  C_11
REMARK    6  A    between atoms: N_15  and  C_16
REMARK    7  A    between atoms: C_20  and  N_21
REMARK    8  A    between atoms: N_25  and  C_26
REMARK                            x       y       z     vdW  Elec       q    Type
REMARK                         _______ _______ _______ _____ _____    ______ ____
ROOT
ATOM      1  C   UNL     1       1.385  10.482  19.149  0.00  0.00    +0.000 A 
ATOM      2  C   UNL     1       1.749   9.936  17.973  0.00  0.00    +0.000 A 
ATOM      3  S   UNL     1       1.819   8.207  18.054  0.00  0.00    +0.000 S 
ATOM      4  C   UNL     1       1.561   8.231  19.830  0.00  0.00    +0.000 A 
ATOM      5  N   UNL     1       1.712   7.227  20.644  0.00  0.00    +0.000 NA
ATOM      6  N   UNL     1       1.208   9.538  20.181  0.00  0.00    +0.000 N 
ATOM      7  C   UNL     1       0.800   9.868  21.532  0.00  0.00    +0.000 C 
ENDROOT
BRANCH   5   8
ATOM      8  C   UNL     1       2.167   5.959  20.238  0.00  0.00    +0.000 A 
ATOM      9  C   UNL     1       1.359   4.842  20.471  0.00  0.00    +0.000 A 
ATOM     10  C   UNL     1       1.766   3.556  20.083  0.00  0.00    +0.000 A 
ATOM     11  C   UNL     1       2.980   3.380  19.418  0.00  0.00    +0.000 A 
ATOM     12  C   UNL     1       3.803   4.492  19.208  0.00  0.00    +0.000 A 
ATOM     13  C   UNL     1       3.434   5.752  19.682  0.00  0.00    +0.000 A 
BRANCH  12  14
ATOM     14  N   UNL     1       5.047   4.356  18.438  0.00  0.00    +0.000 N 
ATOM     15  O   UNL     1       4.964   4.416  17.204  0.00  0.00    +0.000 OA
ATOM     16  O   UNL     1       6.110   4.201  19.069  0.00  0.00    +0.000 OA
ENDBRANCH  12  14
ENDBRANCH   5   8
BRANCH   1  17
ATOM     17  C   UNL     1       1.176  11.956  19.322  0.00  0.00    +0.000 C 
BRANCH  17  19
ATOM     18  N   UNL     1      -1.210  11.490  19.150  0.00  0.00    +0.000 N 
ATOM     19  C   UNL     1      -0.194  12.374  18.804  0.00  0.00    +0.000 C 
ATOM     20  O   UNL     1      -0.329  13.396  18.140  0.00  0.00    +0.000 OA
ATOM     21  H   UNL     1      -0.999  10.767  19.823  0.00  0.00    +0.000 HD
BRANCH  18  25
ATOM     22  C   UNL     1      -5.275  11.910  18.062  0.00  0.00    +0.000 A 
ATOM     23  C   UNL     1      -4.409  11.183  17.242  0.00  0.00    +0.000 A 
ATOM     24  C   UNL     1      -3.065  11.031  17.589  0.00  0.00    +0.000 A 
ATOM     25  C   UNL     1      -2.564  11.597  18.762  0.00  0.00    +0.000 A 
ATOM     26  C   UNL     1      -3.436  12.294  19.602  0.00  0.00    +0.000 A 
ATOM     27  C   UNL     1      -4.780  12.461  19.250  0.00  0.00    +0.000 A 
BRANCH  22  29
ATOM     28  C   UNL     1      -7.531  12.647  18.831  0.00  0.00    +0.000 C 
ATOM     29  C   UNL     1      -6.729  12.039  17.691  0.00  0.00    +0.000 C 
ENDBRANCH  22  29
ENDBRANCH  18  25
ENDBRANCH  17  19
ENDBRANCH   1  17
TORSDOF 6
ENDMDL
MODEL 6
REMARK VINA RESULT:      -7.2      2.060      2.515
REMARK  Name = 
REMARK  8 active torsions:
REMARK  status: ('A' for Active; 'I' for Inactive)
REMARK    1  A    between atoms: C_1  and  C_2
REMARK    2  A    between atoms: C_2  and  C_3
REMARK    3  A    between atoms: C_6  and  N_7
REMARK    4  A    between atoms: C_8  and  C_10
REMARK    5  A    between atoms: C_10  and  C_11
REMARK    6  A    between atoms: N_15  and  C_16
REMARK    7  A    between atoms: C_20  and  N_21
REMARK    8  A    between atoms: N_25  and  C_26
REMARK                            x       y       z     vdW  Elec       q    Type
REMARK                         _______ _______ _______ _____ _____    ______ ____
ROOT
ATOM      1  C   UNL     1       1.094  10.613  19.576  0.00  0.00    +0.000 A 
ATOM      2  C   UNL     1       1.454  10.475  18.285  0.00  0.00    +0.000 A 
ATOM      3  S   UNL     1       1.804   8.826  17.883  0.00  0.00    +0.000 S 
ATOM      4  C   UNL     1       1.675   8.328  19.603  0.00  0.00    +0.000 A 
ATOM      5  N   UNL     1       2.041   7.184  20.103  0.00  0.00    +0.000 NA
ATOM      6  N   UNL     1       1.145   9.411  20.310  0.00  0.00    +0.000 N 
ATOM      7  C   UNL     1       0.787   9.291  21.710  0.00  0.00    +0.000 C 
ENDROOT
BRANCH   5   8
ATOM      8  C   UNL     1       2.661   6.169  19.351  0.00  0.00    +0.000 A 
ATOM      9  C   UNL     1       3.989   6.340  18.947  0.00  0.00    +0.000 A 
ATOM     10  C   UNL     1       4.654   5.356  18.198  0.00  0.00    +0.000 A 
ATOM     11  C   UNL     1       4.001   4.167  17.875  0.00  0.00    +0.000 A 
ATOM     12  C   UNL     1       2.664   4.005  18.254  0.00  0.00    +0.000 A 
ATOM     13  C   UNL     1       1.982   5.027  18.916  0.00  0.00    +0.000 A 
BRANCH  12  14
ATOM     14  N   UNL     1       1.973   2.732  18.004  0.00  0.00    +0.000 N 
ATOM     15  O   UNL     1       2.637   1.809  17.517  0.00  0.00    +0.000 OA
ATOM     16  O   UNL     1       0.767   2.654  18.306  0.00  0.00    +0.000 OA
ENDBRANCH  12  14
ENDBRANCH   5   8
BRANCH   1  17
ATOM     17  C   UNL     1       0.666  11.928  20.155  0.00  0.00    +0.000 C 
BRANCH  17  19
ATOM     18  N   UNL     1      -1.728  11.692  19.767  0.00  0.00    +0.000 N 
ATOM     19  C   UNL     1      -0.594  12.439  19.468  0.00  0.00    +0.000 C 
ATOM     20  O   UNL     1      -0.552  13.413  18.724  0.00  0.00    +0.000 OA
ATOM     21  H   UNL     1      -1.663  11.008  20.507  0.00  0.00    +0.000 HD
BRANCH  18  25
ATOM     22  C   UNL     1      -5.573  12.228  18.089  0.00  0.00    +0.000 A 
ATOM     23  C   UNL     1      -5.285  12.760  19.348  0.00  0.00    +0.000 A 
ATOM     24  C   UNL     1      -4.019  12.596  19.915  0.00  0.00    +0.000 A 
ATOM     25  C   UNL     1      -3.018  11.903  19.232  0.00  0.00    +0.000 A 
ATOM     26  C   UNL     1      -3.293  11.400  17.958  0.00  0.00    +0.000 A 
ATOM     27  C   UNL     1      -4.565  11.550  17.394  0.00  0.00    +0.000 A 
BRANCH  22  29
ATOM     28  C   UNL     1      -7.052  13.834  16.883  0.00  0.00    +0.000 C 
ATOM     29  C   UNL     1      -6.933  12.440  17.478  0.00  0.00    +0.000 C 
ENDBRANCH  22  29
ENDBRANCH  18  25
ENDBRANCH  17  19
ENDBRANCH   1  17
TORSDOF 6
ENDMDL
MODEL 7
REMARK VINA RESULT:      -7.1      4.048      6.615
REMARK  Name = 
REMARK  8 active torsions:
REMARK  status: ('A' for Active; 'I' for Inactive)
REMARK    1  A    between atoms: C_1  and  C_2
REMARK    2  A    between atoms: C_2  and  C_3
REMARK    3  A    between atoms: C_6  and  N_7
REMARK    4  A    between atoms: C_8  and  C_10
REMARK    5  A    between atoms: C_10  and  C_11
REMARK    6  A    between atoms: N_15  and  C_16
REMARK    7  A    between atoms: C_20  and  N_21
REMARK    8  A    between atoms: N_25  and  C_26
REMARK                            x       y       z     vdW  Elec       q    Type
REMARK                         _______ _______ _______ _____ _____    ______ ____
ROOT
ATOM      1  C   UNL     1       4.223   4.123  18.588  0.00  0.00    +0.000 A 
ATOM      2  C   UNL     1       3.528   3.463  17.642  0.00  0.00    +0.000 A 
ATOM      3  S   UNL     1       4.427   3.303  16.170  0.00  0.00    +0.000 S 
ATOM      4  C   UNL     1       5.724   4.379  16.788  0.00  0.00    +0.000 A 
ATOM      5  N   UNL     1       6.689   4.903  16.089  0.00  0.00    +0.000 NA
ATOM      6  N   UNL     1       5.481   4.583  18.150  0.00  0.00    +0.000 N 
ATOM      7  C   UNL     1       6.426   5.302  18.981  0.00  0.00    +0.000 C 
ENDROOT
BRANCH   5   8
ATOM      8  C   UNL     1       6.820   4.737  14.698  0.00  0.00    +0.000 A 
ATOM      9  C   UNL     1       7.840   5.418  14.026  0.00  0.00    +0.000 A 
ATOM     10  C   UNL     1       8.014   5.284  12.640  0.00  0.00    +0.000 A 
ATOM     11  C   UNL     1       7.184   4.431  11.913  0.00  0.00    +0.000 A 
ATOM     12  C   UNL     1       6.146   3.770  12.577  0.00  0.00    +0.000 A 
ATOM     13  C   UNL     1       5.921   3.982  13.938  0.00  0.00    +0.000 A 
BRANCH  12  14
ATOM     14  N   UNL     1       5.307   2.800  11.859  0.00  0.00    +0.000 N 
ATOM     15  O   UNL     1       4.149   3.138  11.587  0.00  0.00    +0.000 OA
ATOM     16  O   UNL     1       5.814   1.702  11.556  0.00  0.00    +0.000 OA
ENDBRANCH  12  14
ENDBRANCH   5   8
BRANCH   1  17
ATOM     17  C   UNL     1       3.697   4.327  19.977  0.00  0.00    +0.000 C 
BRANCH  17  19
ATOM     18  N   UNL     1       2.874   6.619  19.895  0.00  0.00    +0.000 N 
ATOM     19  C   UNL     1       2.509   5.279  19.973  0.00  0.00    +0.000 C 
ATOM     20  O   UNL     1       1.362   4.852  20.046  0.00  0.00    +0.000 OA
ATOM     21  H   UNL     1       3.839   6.835  19.690  0.00  0.00    +0.000 HD
BRANCH  18  25
ATOM     22  C   UNL     1       0.209   9.903  19.865  0.00  0.00    +0.000 A 
ATOM     23  C   UNL     1       0.411   9.183  21.046  0.00  0.00    +0.000 A 
ATOM     24  C   UNL     1       1.291   8.100  21.074  0.00  0.00    +0.000 A 
ATOM     25  C   UNL     1       1.988   7.718  19.927  0.00  0.00    +0.000 A 
ATOM     26  C   UNL     1       1.815   8.458  18.754  0.00  0.00    +0.000 A 
ATOM     27  C   UNL     1       0.922   9.535  18.719  0.00  0.00    +0.000 A 
BRANCH  22  29
ATOM     28  C   UNL     1      -0.498  11.961  21.084  0.00  0.00    +0.000 C 
ATOM     29  C   UNL     1      -0.720  11.088  19.858  0.00  0.00    +0.000 C 
ENDBRANCH  22  29
ENDBRANCH  18  25
ENDBRANCH  17  19
ENDBRANCH   1  17
TORSDOF 6
ENDMDL
MODEL 8
REMARK VINA RESULT:      -7.1      3.067      4.083
REMARK  Name = 
REMARK  8 active torsions:
REMARK  status: ('A' for Active; 'I' for Inactive)
REMARK    1  A    between atoms: C_1  and  C_2
REMARK    2  A    between atoms: C_2  and  C_3
REMARK    3  A    between atoms: C_6  and  N_7
REMARK    4  A    between atoms: C_8  and  C_10
REMARK    5  A    between atoms: C_10  and  C_11
REMARK    6  A    between atoms: N_15  and  C_16
REMARK    7  A    between atoms: C_20  and  N_21
REMARK    8  A    between atoms: N_25  and  C_26
REMARK                            x       y       z     vdW  Elec       q    Type
REMARK                         _______ _______ _______ _____ _____    ______ ____
ROOT
ATOM      1  C   UNL     1       1.129   9.785  19.569  0.00  0.00    +0.000 A 
ATOM      2  C   UNL     1       1.521   9.975  18.295  0.00  0.00    +0.000 A 
ATOM      3  S   UNL     1       2.202   8.540  17.604  0.00  0.00    +0.000 S 
ATOM      4  C   UNL     1       2.162   7.699  19.189  0.00  0.00    +0.000 A 
ATOM      5  N   UNL     1       2.749   6.575  19.480  0.00  0.00    +0.000 NA
ATOM      6  N   UNL     1       1.417   8.497  20.063  0.00  0.00    +0.000 N 
ATOM      7  C   UNL     1       1.080   8.037  21.396  0.00  0.00    +0.000 C 
ENDROOT
BRANCH   5   8
ATOM      8  C   UNL     1       3.569   5.871  18.579  0.00  0.00    +0.000 A 
ATOM      9  C   UNL     1       3.052   4.745  17.930  0.00  0.00    +0.000 A 
ATOM     10  C   UNL     1       3.829   4.010  17.020  0.00  0.00    +0.000 A 
ATOM     11  C   UNL     1       5.128   4.421  16.722  0.00  0.00    +0.000 A 
ATOM     12  C   UNL     1       5.657   5.529  17.391  0.00  0.00    +0.000 A 
ATOM     13  C   UNL     1       4.912   6.198  18.363  0.00  0.00    +0.000 A 
BRANCH  12  14
ATOM     14  N   UNL     1       6.990   6.038  17.040  0.00  0.00    +0.000 N 
ATOM     15  O   UNL     1       7.598   6.686  17.901  0.00  0.00    +0.000 OA
ATOM     16  O   UNL     1       7.433   5.780  15.904  0.00  0.00    +0.000 OA
ENDBRANCH  12  14
ENDBRANCH   5   8
BRANCH   1  17
ATOM     17  C   UNL     1       0.438  10.850  20.366  0.00  0.00    +0.000 C 
BRANCH  17  19
ATOM     18  N   UNL     1       0.962  13.193  19.949  0.00  0.00    +0.000 N 
ATOM     19  C   UNL     1       0.216  12.099  19.524  0.00  0.00    +0.000 C 
ATOM     20  O   UNL     1      -0.568  12.089  18.581  0.00  0.00    +0.000 OA
ATOM     21  H   UNL     1       1.680  13.036  20.642  0.00  0.00    +0.000 HD
BRANCH  18  25
ATOM     22  C   UNL     1       0.929  17.050  18.214  0.00  0.00    +0.000 A 
ATOM     23  C   UNL     1      -0.248  16.518  18.747  0.00  0.00    +0.000 A 
ATOM     24  C   UNL     1      -0.253  15.248  19.327  0.00  0.00    +0.000 A 
ATOM     25  C   UNL     1       0.916  14.490  19.391  0.00  0.00    +0.000 A 
ATOM     26  C   UNL     1       2.102  15.033  18.891  0.00  0.00    +0.000 A 
ATOM     27  C   UNL     1       2.108  16.300  18.294  0.00  0.00    +0.000 A 
BRANCH  22  29
ATOM     28  C   UNL     1       0.508  18.398  16.158  0.00  0.00    +0.000 C 
ATOM     29  C   UNL     1       0.926  18.433  17.620  0.00  0.00    +0.000 C 
ENDBRANCH  22  29
ENDBRANCH  18  25
ENDBRANCH  17  19
ENDBRANCH   1  17
TORSDOF 6
ENDMDL
MODEL 9
REMARK VINA RESULT:      -7.1      1.055      1.523
REMARK  Name = 
REMARK  8 active torsions:
REMARK  status: ('A' for Active; 'I' for Inactive)
REMARK    1  A    between atoms: C_1  and  C_2
REMARK    2  A    between atoms: C_2  and  C_3
REMARK    3  A    between atoms: C_6  and  N_7
REMARK    4  A    between atoms: C_8  and  C_10
REMARK    5  A    between atoms: C_10  and  C_11
REMARK    6  A    between atoms: N_15  and  C_16
REMARK    7  A    between atoms: C_20  and  N_21
REMARK    8  A    between atoms: N_25  and  C_26
REMARK                            x       y       z     vdW  Elec       q    Type
REMARK                         _______ _______ _______ _____ _____    ______ ____
ROOT
ATOM      1  C   UNL     1       1.275  10.174  19.776  0.00  0.00    +0.000 A 
ATOM      2  C   UNL     1       1.519  10.223  18.452  0.00  0.00    +0.000 A 
ATOM      3  S   UNL     1       1.871   8.657  17.800  0.00  0.00    +0.000 S 
ATOM      4  C   UNL     1       1.911   7.928  19.440  0.00  0.00    +0.000 A 
ATOM      5  N   UNL     1       2.350   6.742  19.746  0.00  0.00    +0.000 NA
ATOM      6  N   UNL     1       1.422   8.888  20.332  0.00  0.00    +0.000 N 
ATOM      7  C   UNL     1       1.197   8.569  21.728  0.00  0.00    +0.000 C 
ENDROOT
BRANCH   5   8
ATOM      8  C   UNL     1       2.923   5.861  18.811  0.00  0.00    +0.000 A 
ATOM      9  C   UNL     1       2.192   4.745  18.393  0.00  0.00    +0.000 A 
ATOM     10  C   UNL     1       2.718   3.838  17.461  0.00  0.00    +0.000 A 
ATOM     11  C   UNL     1       3.978   4.061  16.905  0.00  0.00    +0.000 A 
ATOM     12  C   UNL     1       4.723   5.161  17.342  0.00  0.00    +0.000 A 
ATOM     13  C   UNL     1       4.232   6.005  18.339  0.00  0.00    +0.000 A 
BRANCH  12  14
ATOM     14  N   UNL     1       6.016   5.473  16.717  0.00  0.00    +0.000 N 
ATOM     15  O   UNL     1       6.274   6.664  16.503  0.00  0.00    +0.000 OA
ATOM     16  O   UNL     1       6.780   4.525  16.451  0.00  0.00    +0.000 OA
ENDBRANCH  12  14
ENDBRANCH   5   8
BRANCH   1  17
ATOM     17  C   UNL     1       0.870  11.384  20.564  0.00  0.00    +0.000 C 
BRANCH  17  19
ATOM     18  N   UNL     1      -1.307  12.002  19.657  0.00  0.00    +0.000 N 
ATOM     19  C   UNL     1      -0.642  11.435  20.740  0.00  0.00    +0.000 C 
ATOM     20  O   UNL     1      -1.169  11.013  21.764  0.00  0.00    +0.000 OA
ATOM     21  H   UNL     1      -0.777  12.174  18.814  0.00  0.00    +0.000 HD
BRANCH  18  25
ATOM     22  C   UNL     1      -5.485  12.567  19.327  0.00  0.00    +0.000 A 
ATOM     23  C   UNL     1      -4.776  13.208  20.346  0.00  0.00    +0.000 A 
ATOM     24  C   UNL     1      -3.396  13.036  20.467  0.00  0.00    +0.000 A 
ATOM     25  C   UNL     1      -2.698  12.226  19.570  0.00  0.00    +0.000 A 
ATOM     26  C   UNL     1      -3.399  11.612  18.528  0.00  0.00    +0.000 A 
ATOM     27  C   UNL     1      -4.785  11.770  18.414  0.00  0.00    +0.000 A 
BRANCH  22  29
ATOM     28  C   UNL     1      -7.387  12.789  17.730  0.00  0.00    +0.000 C 
ATOM     29  C   UNL     1      -6.968  12.787  19.191  0.00  0.00    +0.000 C 
ENDBRANCH  22  29
ENDBRANCH  18  25
ENDBRANCH  17  19
ENDBRANCH   1  17
TORSDOF 6
ENDMDL
