MODEL 1
REMARK VINA RESULT:      -7.5      0.000      0.000
REMARK  Name = 
REMARK  2 active torsions:
REMARK  status: ('A' for Active; 'I' for Inactive)
REMARK    1  A    between atoms: N_1  and  S_2
REMARK    2  A    between atoms: S_2  and  C_5
REMARK                            x       y       z     vdW  Elec       q    Type
REMARK                         _______ _______ _______ _____ _____    ______ ____
ROOT
ATOM      1  C   UNL     1       5.392   4.394  16.942  0.00  0.00    +0.000 A 
ATOM      2  C   UNL     1       4.045   4.700  17.009  0.00  0.00    +0.000 A 
ATOM      3  C   UNL     1       3.523   4.172  18.218  0.00  0.00    +0.000 A 
ATOM      4  C   UNL     1       2.239   4.176  18.800  0.00  0.00    +0.000 A 
ATOM      5  C   UNL     1       2.105   3.543  20.021  0.00  0.00    +0.000 A 
ATOM      6  C   UNL     1       3.160   2.936  20.657  0.00  0.00    +0.000 A 
ATOM      7  C   UNL     1       4.439   2.909  20.127  0.00  0.00    +0.000 A 
ATOM      8  C   UNL     1       4.587   3.547  18.885  0.00  0.00    +0.000 A 
ATOM      9  N   UNL     1       5.701   3.707  18.094  0.00  0.00    +0.000 N 
ATOM     10  O   UNL     1       2.794   2.378  21.845  0.00  0.00    +0.000 OA
ATOM     11  C   UNL     1       1.389   2.708  21.880  0.00  0.00    +0.000 C 
ATOM     12  O   UNL     1       0.944   3.445  20.725  0.00  0.00    +0.000 OA
ATOM     13  H   UNL     1       6.632   3.374  18.316  0.00  0.00    +0.000 HD
ENDROOT
BRANCH   1  14
ATOM     14  S   UNL     1       6.622   4.714  15.725  0.00  0.00    +0.000 S 
ATOM     15  O   UNL     1       7.883   4.421  16.363  0.00  0.00    +0.000 OA
ATOM     16  O   UNL     1       6.291   5.995  15.153  0.00  0.00    +0.000 OA
BRANCH  14  17
ATOM     17  N   UNL     1       6.373   3.572  14.527  0.00  0.00    +0.000 NA
ATOM     18  H   UNL     1       6.273   2.650  14.955  0.00  0.00    +0.000 HD
ATOM     19  H   UNL     1       7.144   3.585  13.858  0.00  0.00    +0.000 HD
ENDBRANCH  14  17
ENDBRANCH   1  14
TORSDOF 2
ENDMDL
MODEL 2
REMARK VINA RESULT:      -7.4      1.104      1.437
REMARK  Name = 
REMARK  2 active torsions:
REMARK  status: ('A' for Active; 'I' for Inactive)
REMARK    1  A    between atoms: N_1  and  S_2
REMARK    2  A    between atoms: S_2  and  C_5
REMARK                            x       y       z     vdW  Elec       q    Type
REMARK                         _______ _______ _______ _____ _____    ______ ____
ROOT
ATOM      1  C   UNL     1       5.594   4.991  17.155  0.00  0.00    +0.000 A 
ATOM      2  C   UNL     1       4.303   5.467  17.292  0.00  0.00    +0.000 A 
ATOM      3  C   UNL     1       3.670   4.756  18.344  0.00  0.00    +0.000 A 
ATOM      4  C   UNL     1       2.380   4.813  18.910  0.00  0.00    +0.000 A 
ATOM      5  C   UNL     1       2.116   3.941  19.950  0.00  0.00    +0.000 A 
ATOM      6  C   UNL     1       3.052   3.056  20.426  0.00  0.00    +0.000 A 
ATOM      7  C   UNL     1       4.331   2.966  19.905  0.00  0.00    +0.000 A 
ATOM      8  C   UNL     1       4.610   3.846  18.847  0.00  0.00    +0.000 A 
ATOM      9  N   UNL     1       5.763   4.019  18.114  0.00  0.00    +0.000 N 
ATOM     10  O   UNL     1       2.570   2.299  21.451  0.00  0.00    +0.000 OA
ATOM     11  C   UNL     1       1.226   2.813  21.562  0.00  0.00    +0.000 C 
ATOM     12  O   UNL     1       0.929   3.854  20.611  0.00  0.00    +0.000 OA
ATOM     13  H   UNL     1       6.628   3.511  18.252  0.00  0.00    +0.000 HD
ENDROOT
BRANCH   1  14
ATOM     14  S   UNL     1       6.898   5.400  16.046  0.00  0.00    +0.000 S 
ATOM     15  O   UNL     1       6.266   5.609  14.766  0.00  0.00    +0.000 OA
ATOM     16  O   UNL     1       7.937   4.428  16.280  0.00  0.00    +0.000 OA
BRANCH  14  17
ATOM     17  N   UNL     1       7.489   6.874  16.577  0.00  0.00    +0.000 NA
ATOM     18  H   UNL     1       8.211   6.715  17.281  0.00  0.00    +0.000 HD
ATOM     19  H   UNL     1       6.730   7.446  16.951  0.00  0.00    +0.000 HD
ENDBRANCH  14  17
ENDBRANCH   1  14
TORSDOF 2
ENDMDL
MODEL 3
REMARK VINA RESULT:      -7.2      0.975      1.163
REMARK  Name = 
REMARK  2 active torsions:
REMARK  status: ('A' for Active; 'I' for Inactive)
REMARK    1  A    between atoms: N_1  and  S_2
REMARK    2  A    between atoms: S_2  and  C_5
REMARK                            x       y       z     vdW  Elec       q    Type
REMARK                         _______ _______ _______ _____ _____    ______ ____
ROOT
ATOM      1  C   UNL     1       5.285   4.058  16.757  0.00  0.00    +0.000 A 
ATOM      2  C   UNL     1       3.903   4.053  16.713  0.00  0.00    +0.000 A 
ATOM      3  C   UNL     1       3.413   3.665  17.987  0.00  0.00    +0.000 A 
ATOM      4  C   UNL     1       2.117   3.485  18.511  0.00  0.00    +0.000 A 
ATOM      5  C   UNL     1       2.028   3.089  19.832  0.00  0.00    +0.000 A 
ATOM      6  C   UNL     1       3.135   2.877  20.615  0.00  0.00    +0.000 A 
ATOM      7  C   UNL     1       4.428   3.043  20.146  0.00  0.00    +0.000 A 
ATOM      8  C   UNL     1       4.531   3.444  18.805  0.00  0.00    +0.000 A 
ATOM      9  N   UNL     1       5.644   3.699  18.036  0.00  0.00    +0.000 N 
ATOM     10  O   UNL     1       2.806   2.492  21.880  0.00  0.00    +0.000 OA
ATOM     11  C   UNL     1       1.365   2.489  21.798  0.00  0.00    +0.000 C 
ATOM     12  O   UNL     1       0.863   2.865  20.500  0.00  0.00    +0.000 OA
ATOM     13  H   UNL     1       6.604   3.639  18.353  0.00  0.00    +0.000 HD
ENDROOT
BRANCH   1  14
ATOM     14  S   UNL     1       6.509   4.411  15.542  0.00  0.00    +0.000 S 
ATOM     15  O   UNL     1       6.223   3.529  14.437  0.00  0.00    +0.000 OA
ATOM     16  O   UNL     1       7.769   4.436  16.244  0.00  0.00    +0.000 OA
BRANCH  14  17
ATOM     17  N   UNL     1       6.204   5.979  15.043  0.00  0.00    +0.000 NA
ATOM     18  H   UNL     1       5.349   5.995  14.485  0.00  0.00    +0.000 HD
ATOM     19  H   UNL     1       6.997   6.343  14.511  0.00  0.00    +0.000 HD
ENDBRANCH  14  17
ENDBRANCH   1  14
TORSDOF 2
ENDMDL
MODEL 4
REMARK VINA RESULT:      -7.2      0.925      1.129
REMARK  Name = 
REMARK  2 active torsions:
REMARK  status: ('A' for Active; 'I' for Inactive)
REMARK    1  A    between atoms: N_1  and  S_2
REMARK    2  A    between atoms: S_2  and  C_5
REMARK                            x       y       z     vdW  Elec       q    Type
REMARK                         _______ _______ _______ _____ _____    ______ ____
ROOT
ATOM      1  C   UNL     1       5.113   4.316  16.758  0.00  0.00    +0.000 A 
ATOM      2  C   UNL     1       3.743   4.487  16.838  0.00  0.00    +0.000 A 
ATOM      3  C   UNL     1       3.301   3.992  18.092  0.00  0.00    +0.000 A 
ATOM      4  C   UNL     1       2.033   3.904  18.704  0.00  0.00    +0.000 A 
ATOM      5  C   UNL     1       1.989   3.345  19.968  0.00  0.00    +0.000 A 
ATOM      6  C   UNL     1       3.112   2.894  20.616  0.00  0.00    +0.000 A 
ATOM      7  C   UNL     1       4.377   2.962  20.057  0.00  0.00    +0.000 A 
ATOM      8  C   UNL     1       4.435   3.526  18.772  0.00  0.00    +0.000 A 
ATOM      9  N   UNL     1       5.513   3.745  17.944  0.00  0.00    +0.000 N 
ATOM     10  O   UNL     1       2.827   2.385  21.846  0.00  0.00    +0.000 OA
ATOM     11  C   UNL     1       1.397   2.570  21.895  0.00  0.00    +0.000 C 
ATOM     12  O   UNL     1       0.857   3.178  20.705  0.00  0.00    +0.000 OA
ATOM     13  H   UNL     1       6.477   3.524  18.164  0.00  0.00    +0.000 HD
ENDROOT
BRANCH   1  14
ATOM     14  S   UNL     1       6.281   4.676  15.492  0.00  0.00    +0.000 S 
ATOM     15  O   UNL     1       6.065   6.061  15.149  0.00  0.00    +0.000 OA
ATOM     16  O   UNL     1       6.190   3.591  14.547  0.00  0.00    +0.000 OA
BRANCH  14  17
ATOM     17  N   UNL     1       7.783   4.555  16.222  0.00  0.00    +0.000 NA
ATOM     18  H   UNL     1       8.006   5.438  16.683  0.00  0.00    +0.000 HD
ATOM     19  H   UNL     1       8.495   4.310  15.532  0.00  0.00    +0.000 HD
ENDBRANCH  14  17
ENDBRANCH   1  14
TORSDOF 2
ENDMDL
MODEL 5
REMARK VINA RESULT:      -7.0      3.043      5.644
REMARK  Name = 
REMARK  2 active torsions:
REMARK  status: ('A' for Active; 'I' for Inactive)
REMARK    1  A    between atoms: N_1  and  S_2
REMARK    2  A    between atoms: S_2  and  C_5
REMARK                            x       y       z     vdW  Elec       q    Type
REMARK                         _______ _______ _______ _____ _____    ______ ____
ROOT
ATOM      1  C   UNL     1       4.071   3.454  18.203  0.00  0.00    +0.000 A 
ATOM      2  C   UNL     1       3.962   4.517  17.327  0.00  0.00    +0.000 A 
ATOM      3  C   UNL     1       5.057   5.393  17.541  0.00  0.00    +0.000 A 
ATOM      4  C   UNL     1       5.450   6.612  16.953  0.00  0.00    +0.000 A 
ATOM      5  C   UNL     1       6.608   7.193  17.435  0.00  0.00    +0.000 A 
ATOM      6  C   UNL     1       7.356   6.625  18.437  0.00  0.00    +0.000 A 
ATOM      7  C   UNL     1       7.012   5.429  19.043  0.00  0.00    +0.000 A 
ATOM      8  C   UNL     1       5.837   4.830  18.562  0.00  0.00    +0.000 A 
ATOM      9  N   UNL     1       5.220   3.657  18.933  0.00  0.00    +0.000 N 
ATOM     10  O   UNL     1       8.451   7.373  18.748  0.00  0.00    +0.000 OA
ATOM     11  C   UNL     1       8.303   8.473  17.826  0.00  0.00    +0.000 C 
ATOM     12  O   UNL     1       7.134   8.367  16.990  0.00  0.00    +0.000 OA
ATOM     13  H   UNL     1       5.555   3.016  19.642  0.00  0.00    +0.000 HD
ENDROOT
BRANCH   1  14
ATOM     14  S   UNL     1       3.058   2.043  18.490  0.00  0.00    +0.000 S 
ATOM     15  O   UNL     1       2.145   1.989  17.374  0.00  0.00    +0.000 OA
ATOM     16  O   UNL     1       2.638   2.130  19.867  0.00  0.00    +0.000 OA
BRANCH  14  17
ATOM     17  N   UNL     1       4.085   0.726  18.381  0.00  0.00    +0.000 NA
ATOM     18  H   UNL     1       5.021   1.002  18.683  0.00  0.00    +0.000 HD
ATOM     19  H   UNL     1       4.098   0.365  17.426  0.00  0.00    +0.000 HD
ENDBRANCH  14  17
ENDBRANCH   1  14
TORSDOF 2
ENDMDL
MODEL 6
REMARK VINA RESULT:      -6.9      1.017      1.017
REMARK  Name = 
REMARK  2 active torsions:
REMARK  status: ('A' for Active; 'I' for Inactive)
REMARK    1  A    between atoms: N_1  and  S_2
REMARK    2  A    between atoms: S_2  and  C_5
REMARK                            x       y       z     vdW  Elec       q    Type
REMARK                         _______ _______ _______ _____ _____    ______ ____
ROOT
ATOM      1  C   UNL     1       5.412   5.200  17.173  0.00  0.00    +0.000 A 
ATOM      2  C   UNL     1       4.100   5.604  17.339  0.00  0.00    +0.000 A 
ATOM      3  C   UNL     1       3.524   4.844  18.389  0.00  0.00    +0.000 A 
ATOM      4  C   UNL     1       2.243   4.823  18.977  0.00  0.00    +0.000 A 
ATOM      5  C   UNL     1       2.043   3.921  20.005  0.00  0.00    +0.000 A 
ATOM      6  C   UNL     1       3.032   3.079  20.451  0.00  0.00    +0.000 A 
ATOM      7  C   UNL     1       4.306   3.065  19.907  0.00  0.00    +0.000 A 
ATOM      8  C   UNL     1       4.520   3.976  18.860  0.00  0.00    +0.000 A 
ATOM      9  N   UNL     1       5.649   4.222  18.112  0.00  0.00    +0.000 N 
ATOM     10  O   UNL     1       2.608   2.281  21.470  0.00  0.00    +0.000 OA
ATOM     11  C   UNL     1       1.241   2.721  21.612  0.00  0.00    +0.000 C 
ATOM     12  O   UNL     1       0.874   3.761  20.684  0.00  0.00    +0.000 OA
ATOM     13  H   UNL     1       6.542   3.759  18.227  0.00  0.00    +0.000 HD
ENDROOT
BRANCH   1  14
ATOM     14  S   UNL     1       6.674   5.696  16.050  0.00  0.00    +0.000 S 
ATOM     15  O   UNL     1       7.294   6.852  16.652  0.00  0.00    +0.000 OA
ATOM     16  O   UNL     1       6.063   5.701  14.744  0.00  0.00    +0.000 OA
BRANCH  14  17
ATOM     17  N   UNL     1       7.792   4.450  16.056  0.00  0.00    +0.000 NA
ATOM     18  H   UNL     1       7.316   3.569  15.852  0.00  0.00    +0.000 HD
ATOM     19  H   UNL     1       8.272   4.408  16.956  0.00  0.00    +0.000 HD
ENDBRANCH  14  17
ENDBRANCH   1  14
TORSDOF 2
ENDMDL
MODEL 7
REMARK VINA RESULT:      -6.8      3.086      5.644
REMARK  Name = 
REMARK  2 active torsions:
REMARK  status: ('A' for Active; 'I' for Inactive)
REMARK    1  A    between atoms: N_1  and  S_2
REMARK    2  A    between atoms: S_2  and  C_5
REMARK                            x       y       z     vdW  Elec       q    Type
REMARK                         _______ _______ _______ _____ _____    ______ ____
ROOT
ATOM      1  C   UNL     1       4.052   3.369  18.396  0.00  0.00    +0.000 A 
ATOM      2  C   UNL     1       3.893   4.417  17.508  0.00  0.00    +0.000 A 
ATOM      3  C   UNL     1       4.988   5.306  17.659  0.00  0.00    +0.000 A 
ATOM      4  C   UNL     1       5.342   6.520  17.035  0.00  0.00    +0.000 A 
ATOM      5  C   UNL     1       6.514   7.119  17.455  0.00  0.00    +0.000 A 
ATOM      6  C   UNL     1       7.312   6.575  18.431  0.00  0.00    +0.000 A 
ATOM      7  C   UNL     1       7.008   5.385  19.071  0.00  0.00    +0.000 A 
ATOM      8  C   UNL     1       5.818   4.768  18.653  0.00  0.00    +0.000 A 
ATOM      9  N   UNL     1       5.231   3.595  19.070  0.00  0.00    +0.000 N 
ATOM     10  O   UNL     1       8.412   7.338  18.681  0.00  0.00    +0.000 OA
ATOM     11  C   UNL     1       8.212   8.421  17.749  0.00  0.00    +0.000 C 
ATOM     12  O   UNL     1       7.007   8.290  16.968  0.00  0.00    +0.000 OA
ATOM     13  H   UNL     1       5.604   2.969  19.774  0.00  0.00    +0.000 HD
ENDROOT
BRANCH   1  14
ATOM     14  S   UNL     1       3.067   1.954  18.751  0.00  0.00    +0.000 S 
ATOM     15  O   UNL     1       2.378   2.261  19.980  0.00  0.00    +0.000 OA
ATOM     16  O   UNL     1       3.934   0.814  18.580  0.00  0.00    +0.000 OA
BRANCH  14  17
ATOM     17  N   UNL     1       1.930   1.883  17.525  0.00  0.00    +0.000 NA
ATOM     18  H   UNL     1       2.254   1.240  16.800  0.00  0.00    +0.000 HD
ATOM     19  H   UNL     1       1.762   2.815  17.142  0.00  0.00    +0.000 HD
ENDBRANCH  14  17
ENDBRANCH   1  14
TORSDOF 2
ENDMDL
MODEL 8
REMARK VINA RESULT:      -6.7      1.294      2.107
REMARK  Name = 
REMARK  2 active torsions:
REMARK  status: ('A' for Active; 'I' for Inactive)
REMARK    1  A    between atoms: N_1  and  S_2
REMARK    2  A    between atoms: S_2  and  C_5
REMARK                            x       y       z     vdW  Elec       q    Type
REMARK                         _______ _______ _______ _____ _____    ______ ____
ROOT
ATOM      1  C   UNL     1       5.023   4.715  16.745  0.00  0.00    +0.000 A 
ATOM      2  C   UNL     1       5.541   4.090  17.864  0.00  0.00    +0.000 A 
ATOM      3  C   UNL     1       4.470   3.773  18.739  0.00  0.00    +0.000 A 
ATOM      4  C   UNL     1       4.404   3.150  20.002  0.00  0.00    +0.000 A 
ATOM      5  C   UNL     1       3.150   3.012  20.565  0.00  0.00    +0.000 A 
ATOM      6  C   UNL     1       2.008   3.451  19.941  0.00  0.00    +0.000 A 
ATOM      7  C   UNL     1       2.021   4.065  18.701  0.00  0.00    +0.000 A 
ATOM      8  C   UNL     1       3.291   4.213  18.119  0.00  0.00    +0.000 A 
ATOM      9  N   UNL     1       3.659   4.768  16.914  0.00  0.00    +0.000 N 
ATOM     10  O   UNL     1       0.891   3.209  20.682  0.00  0.00    +0.000 OA
ATOM     11  C   UNL     1       1.464   2.567  21.840  0.00  0.00    +0.000 C 
ATOM     12  O   UNL     1       2.898   2.440  21.775  0.00  0.00    +0.000 OA
ATOM     13  H   UNL     1       3.023   5.162  16.231  0.00  0.00    +0.000 HD
ENDROOT
BRANCH   1  14
ATOM     14  S   UNL     1       5.779   5.384  15.303  0.00  0.00    +0.000 S 
ATOM     15  O   UNL     1       5.251   6.720  15.174  0.00  0.00    +0.000 OA
ATOM     16  O   UNL     1       5.658   4.370  14.284  0.00  0.00    +0.000 OA
BRANCH  14  17
ATOM     17  N   UNL     1       7.408   5.507  15.670  0.00  0.00    +0.000 NA
ATOM     18  H   UNL     1       7.704   6.479  15.568  0.00  0.00    +0.000 HD
ATOM     19  H   UNL     1       7.955   4.891  15.066  0.00  0.00    +0.000 HD
ENDBRANCH  14  17
ENDBRANCH   1  14
TORSDOF 2
ENDMDL
MODEL 9
REMARK VINA RESULT:      -6.7      1.166      1.241
REMARK  Name = 
REMARK  2 active torsions:
REMARK  status: ('A' for Active; 'I' for Inactive)
REMARK    1  A    between atoms: N_1  and  S_2
REMARK    2  A    between atoms: S_2  and  C_5
REMARK                            x       y       z     vdW  Elec       q    Type
REMARK                         _______ _______ _______ _____ _____    ______ ____
ROOT
ATOM      1  C   UNL     1       5.373   4.280  16.537  0.00  0.00    +0.000 A 
ATOM      2  C   UNL     1       4.566   3.163  16.649  0.00  0.00    +0.000 A 
ATOM      3  C   UNL     1       3.847   3.246  17.869  0.00  0.00    +0.000 A 
ATOM      4  C   UNL     1       2.904   2.406  18.495  0.00  0.00    +0.000 A 
ATOM      5  C   UNL     1       2.407   2.826  19.714  0.00  0.00    +0.000 A 
ATOM      6  C   UNL     1       2.798   4.003  20.305  0.00  0.00    +0.000 A 
ATOM      7  C   UNL     1       3.718   4.861  19.728  0.00  0.00    +0.000 A 
ATOM      8  C   UNL     1       4.231   4.444  18.489  0.00  0.00    +0.000 A 
ATOM      9  N   UNL     1       5.145   5.049  17.656  0.00  0.00    +0.000 N 
ATOM     10  O   UNL     1       2.178   4.210  21.500  0.00  0.00    +0.000 OA
ATOM     11  C   UNL     1       1.354   3.028  21.590  0.00  0.00    +0.000 C 
ATOM     12  O   UNL     1       1.495   2.144  20.461  0.00  0.00    +0.000 OA
ATOM     13  H   UNL     1       5.596   5.940  17.826  0.00  0.00    +0.000 HD
ENDROOT
BRANCH   1  14
ATOM     14  S   UNL     1       6.525   4.794  15.310  0.00  0.00    +0.000 S 
ATOM     15  O   UNL     1       7.829   4.595  15.896  0.00  0.00    +0.000 OA
ATOM     16  O   UNL     1       6.049   6.065  14.825  0.00  0.00    +0.000 OA
BRANCH  14  17
ATOM     17  N   UNL     1       6.354   3.703  14.052  0.00  0.00    +0.000 NA
ATOM     18  H   UNL     1       5.420   3.291  14.088  0.00  0.00    +0.000 HD
ATOM     19  H   UNL     1       7.076   2.982  14.106  0.00  0.00    +0.000 HD
ENDBRANCH  14  17
ENDBRANCH   1  14
TORSDOF 2
ENDMDL
