MODEL 1
REMARK VINA RESULT:      -9.2      0.000      0.000
REMARK  Name = 
REMARK  7 active torsions:
REMARK  status: ('A' for Active; 'I' for Inactive)
REMARK    1  A    between atoms: C_1  and  O_2
REMARK    2  A    between atoms: O_2  and  C_3
REMARK    3  A    between atoms: C_9  and  C_10
REMARK    4  A    between atoms: C_10  and  C_12
REMARK    5  A    between atoms: C_13  and  C_14
REMARK    6  A    between atoms: N_17  and  C_18
REMARK    7  A    between atoms: C_18  and  C_19
REMARK                            x       y       z     vdW  Elec       q    Type
REMARK                         _______ _______ _______ _____ _____    ______ ____
ROOT
ATOM      1  C   UNL     1       7.495   8.416  17.871  0.00  0.00    +0.000 C 
ATOM      2  C   UNL     1       8.682   8.706  18.436  0.00  0.00    +0.000 C 
ENDROOT
BRANCH   2   3
ATOM      3  C   UNL     1       9.033  10.069  18.860  0.00  0.00    +0.000 A 
ATOM      4  C   UNL     1       9.356  11.068  17.944  0.00  0.00    +0.000 A 
ATOM      5  C   UNL     1       9.851  12.287  18.388  0.00  0.00    +0.000 A 
ATOM      6  N   UNL     1       9.994  12.539  19.710  0.00  0.00    +0.000 N 
ATOM      7  C   UNL     1       9.567  11.634  20.622  0.00  0.00    +0.000 A 
ATOM      8  C   UNL     1       9.096  10.384  20.217  0.00  0.00    +0.000 A 
BRANCH   6   9
ATOM      9  C   UNL     1      10.718  13.769  20.140  0.00  0.00    +0.000 C 
BRANCH   9  10
ATOM     10  C   UNL     1      10.514  14.897  19.162  0.00  0.00    +0.000 A 
ATOM     11  C   UNL     1      11.544  15.267  18.281  0.00  0.00    +0.000 A 
ATOM     12  C   UNL     1      11.424  16.420  17.502  0.00  0.00    +0.000 A 
ATOM     13  C   UNL     1      10.264  17.179  17.573  0.00  0.00    +0.000 A 
ATOM     14  F   UNL     1      10.180  18.320  16.878  0.00  0.00    +0.000 F 
ATOM     15  C   UNL     1       9.197  16.780  18.366  0.00  0.00    +0.000 A 
ATOM     16  C   UNL     1       9.318  15.637  19.159  0.00  0.00    +0.000 A 
ENDBRANCH   9  10
ENDBRANCH   6   9
ENDBRANCH   2   3
BRANCH   1  17
ATOM     17  C   UNL     1       7.196   7.070  17.301  0.00  0.00    +0.000 C 
ATOM     18  O   UNL     1       7.767   6.695  16.278  0.00  0.00    +0.000 OA
BRANCH  17  25
ATOM     19  C   UNL     1       3.229   3.730  19.769  0.00  0.00    +0.000 A 
ATOM     20  C   UNL     1       1.936   3.757  19.235  0.00  0.00    +0.000 A 
ATOM     21  C   UNL     1       1.616   4.594  18.168  0.00  0.00    +0.000 A 
ATOM     22  C   UNL     1       2.591   5.427  17.616  0.00  0.00    +0.000 A 
ATOM     23  C   UNL     1       3.891   5.408  18.129  0.00  0.00    +0.000 A 
ATOM     24  C   UNL     1       4.935   6.223  17.528  0.00  0.00    +0.000 A 
ATOM     25  C   UNL     1       6.194   6.218  18.016  0.00  0.00    +0.000 A 
ATOM     26  C   UNL     1       6.498   5.437  19.239  0.00  0.00    +0.000 A 
ATOM     27  O   UNL     1       7.582   5.535  19.815  0.00  0.00    +0.000 OA
ATOM     28  O   UNL     1       5.495   4.627  19.753  0.00  0.00    +0.000 OA
ATOM     29  C   UNL     1       4.197   4.570  19.207  0.00  0.00    +0.000 A 
BRANCH  19  31
ATOM     30  C   UNL     1       2.320   2.927  21.825  0.00  0.00    +0.000 C 
ATOM     31  O   UNL     1       3.355   2.901  20.850  0.00  0.00    +0.000 OA
ENDBRANCH  19  31
ENDBRANCH  17  25
ENDBRANCH   1  17
TORSDOF 6
ENDMDL
MODEL 2
REMARK VINA RESULT:      -9.2      1.825      2.234
REMARK  Name = 
REMARK  7 active torsions:
REMARK  status: ('A' for Active; 'I' for Inactive)
REMARK    1  A    between atoms: C_1  and  O_2
REMARK    2  A    between atoms: O_2  and  C_3
REMARK    3  A    between atoms: C_9  and  C_10
REMARK    4  A    between atoms: C_10  and  C_12
REMARK    5  A    between atoms: C_13  and  C_14
REMARK    6  A    between atoms: N_17  and  C_18
REMARK    7  A    between atoms: C_18  and  C_19
REMARK                            x       y       z     vdW  Elec       q    Type
REMARK                         _______ _______ _______ _____ _____    ______ ____
ROOT
ATOM      1  C   UNL     1       7.339   8.229  17.728  0.00  0.00    +0.000 C 
ATOM      2  C   UNL     1       8.517   8.627  18.243  0.00  0.00    +0.000 C 
ENDROOT
BRANCH   2   3
ATOM      3  C   UNL     1       8.793  10.034  18.569  0.00  0.00    +0.000 A 
ATOM      4  C   UNL     1       8.481  11.070  17.691  0.00  0.00    +0.000 A 
ATOM      5  C   UNL     1       8.916  12.362  17.957  0.00  0.00    +0.000 A 
ATOM      6  N   UNL     1       9.613  12.643  19.083  0.00  0.00    +0.000 N 
ATOM      7  C   UNL     1       9.817  11.679  20.011  0.00  0.00    +0.000 A 
ATOM      8  C   UNL     1       9.426  10.361  19.767  0.00  0.00    +0.000 A 
BRANCH   6   9
ATOM      9  C   UNL     1      10.238  13.988  19.232  0.00  0.00    +0.000 C 
BRANCH   9  10
ATOM     10  C   UNL     1       9.656  14.737  20.403  0.00  0.00    +0.000 A 
ATOM     11  C   UNL     1      10.450  15.025  21.526  0.00  0.00    +0.000 A 
ATOM     12  C   UNL     1       9.870  15.557  22.679  0.00  0.00    +0.000 A 
ATOM     13  C   UNL     1       8.511  15.840  22.699  0.00  0.00    +0.000 A 
ATOM     14  F   UNL     1       7.946  16.285  23.827  0.00  0.00    +0.000 F 
ATOM     15  C   UNL     1       7.727  15.651  21.568  0.00  0.00    +0.000 A 
ATOM     16  C   UNL     1       8.298  15.103  20.418  0.00  0.00    +0.000 A 
ENDBRANCH   9  10
ENDBRANCH   6   9
ENDBRANCH   2   3
BRANCH   1  17
ATOM     17  C   UNL     1       7.111   6.833  17.254  0.00  0.00    +0.000 C 
ATOM     18  O   UNL     1       7.738   6.402  16.288  0.00  0.00    +0.000 OA
BRANCH  17  25
ATOM     19  C   UNL     1       3.147   3.559  19.816  0.00  0.00    +0.000 A 
ATOM     20  C   UNL     1       1.864   3.541  19.260  0.00  0.00    +0.000 A 
ATOM     21  C   UNL     1       1.551   4.320  18.147  0.00  0.00    +0.000 A 
ATOM     22  C   UNL     1       2.524   5.139  17.571  0.00  0.00    +0.000 A 
ATOM     23  C   UNL     1       3.815   5.165  18.107  0.00  0.00    +0.000 A 
ATOM     24  C   UNL     1       4.858   5.965  17.485  0.00  0.00    +0.000 A 
ATOM     25  C   UNL     1       6.108   6.002  17.994  0.00  0.00    +0.000 A 
ATOM     26  C   UNL     1       6.401   5.286  19.258  0.00  0.00    +0.000 A 
ATOM     27  O   UNL     1       7.474   5.428  19.847  0.00  0.00    +0.000 OA
ATOM     28  O   UNL     1       5.401   4.488  19.794  0.00  0.00    +0.000 OA
ATOM     29  C   UNL     1       4.114   4.385  19.229  0.00  0.00    +0.000 A 
BRANCH  19  31
ATOM     30  C   UNL     1       2.116   2.638  21.760  0.00  0.00    +0.000 C 
ATOM     31  O   UNL     1       3.266   2.785  20.937  0.00  0.00    +0.000 OA
ENDBRANCH  19  31
ENDBRANCH  17  25
ENDBRANCH   1  17
TORSDOF 6
ENDMDL
MODEL 3
REMARK VINA RESULT:      -9.2      2.533      3.378
REMARK  Name = 
REMARK  7 active torsions:
REMARK  status: ('A' for Active; 'I' for Inactive)
REMARK    1  A    between atoms: C_1  and  O_2
REMARK    2  A    between atoms: O_2  and  C_3
REMARK    3  A    between atoms: C_9  and  C_10
REMARK    4  A    between atoms: C_10  and  C_12
REMARK    5  A    between atoms: C_13  and  C_14
REMARK    6  A    between atoms: N_17  and  C_18
REMARK    7  A    between atoms: C_18  and  C_19
REMARK                            x       y       z     vdW  Elec       q    Type
REMARK                         _______ _______ _______ _____ _____    ______ ____
ROOT
ATOM      1  C   UNL     1       8.121   7.903  18.049  0.00  0.00    +0.000 C 
ATOM      2  C   UNL     1       8.166   9.158  17.567  0.00  0.00    +0.000 C 
ENDROOT
BRANCH   2   3
ATOM      3  C   UNL     1       8.724  10.275  18.344  0.00  0.00    +0.000 A 
ATOM      4  C   UNL     1       9.228  10.101  19.632  0.00  0.00    +0.000 A 
ATOM      5  C   UNL     1       9.582  11.204  20.396  0.00  0.00    +0.000 A 
ATOM      6  N   UNL     1       9.481  12.457  19.896  0.00  0.00    +0.000 N 
ATOM      7  C   UNL     1       9.116  12.644  18.605  0.00  0.00    +0.000 A 
ATOM      8  C   UNL     1       8.719  11.564  17.815  0.00  0.00    +0.000 A 
BRANCH   6   9
ATOM      9  C   UNL     1       9.670  13.621  20.809  0.00  0.00    +0.000 C 
BRANCH   9  10
ATOM     10  C   UNL     1       8.565  13.703  21.830  0.00  0.00    +0.000 A 
ATOM     11  C   UNL     1       8.754  13.187  23.123  0.00  0.00    +0.000 A 
ATOM     12  C   UNL     1       7.680  13.101  24.010  0.00  0.00    +0.000 A 
ATOM     13  C   UNL     1       6.429  13.565  23.624  0.00  0.00    +0.000 A 
ATOM     14  F   UNL     1       5.387  13.418  24.450  0.00  0.00    +0.000 F 
ATOM     15  C   UNL     1       6.243  14.165  22.386  0.00  0.00    +0.000 A 
ATOM     16  C   UNL     1       7.310  14.238  21.489  0.00  0.00    +0.000 A 
ENDBRANCH   9  10
ENDBRANCH   6   9
ENDBRANCH   2   3
BRANCH   1  17
ATOM     17  C   UNL     1       7.418   6.801  17.329  0.00  0.00    +0.000 C 
ATOM     18  O   UNL     1       7.728   6.530  16.171  0.00  0.00    +0.000 OA
BRANCH  17  25
ATOM     19  C   UNL     1       3.190   3.873  19.886  0.00  0.00    +0.000 A 
ATOM     20  C   UNL     1       1.916   3.943  19.315  0.00  0.00    +0.000 A 
ATOM     21  C   UNL     1       1.675   4.728  18.188  0.00  0.00    +0.000 A 
ATOM     22  C   UNL     1       2.713   5.463  17.614  0.00  0.00    +0.000 A 
ATOM     23  C   UNL     1       3.997   5.399  18.164  0.00  0.00    +0.000 A 
ATOM     24  C   UNL     1       5.104   6.109  17.544  0.00  0.00    +0.000 A 
ATOM     25  C   UNL     1       6.347   6.059  18.068  0.00  0.00    +0.000 A 
ATOM     26  C   UNL     1       6.572   5.341  19.345  0.00  0.00    +0.000 A 
ATOM     27  O   UNL     1       7.646   5.410  19.945  0.00  0.00    +0.000 OA
ATOM     28  O   UNL     1       5.508   4.628  19.879  0.00  0.00    +0.000 OA
ATOM     29  C   UNL     1       4.223   4.615  19.300  0.00  0.00    +0.000 A 
BRANCH  19  31
ATOM     30  C   UNL     1       2.082   3.086  21.848  0.00  0.00    +0.000 C 
ATOM     31  O   UNL     1       3.238   3.108  21.019  0.00  0.00    +0.000 OA
ENDBRANCH  19  31
ENDBRANCH  17  25
ENDBRANCH   1  17
TORSDOF 6
ENDMDL
MODEL 4
REMARK VINA RESULT:      -9.0      1.403      1.804
REMARK  Name = 
REMARK  7 active torsions:
REMARK  status: ('A' for Active; 'I' for Inactive)
REMARK    1  A    between atoms: C_1  and  O_2
REMARK    2  A    between atoms: O_2  and  C_3
REMARK    3  A    between atoms: C_9  and  C_10
REMARK    4  A    between atoms: C_10  and  C_12
REMARK    5  A    between atoms: C_13  and  C_14
REMARK    6  A    between atoms: N_17  and  C_18
REMARK    7  A    between atoms: C_18  and  C_19
REMARK                            x       y       z     vdW  Elec       q    Type
REMARK                         _______ _______ _______ _____ _____    ______ ____
ROOT
ATOM      1  C   UNL     1       7.523   8.292  17.499  0.00  0.00    +0.000 C 
ATOM      2  C   UNL     1       8.519   8.584  18.356  0.00  0.00    +0.000 C 
ENDROOT
BRANCH   2   3
ATOM      3  C   UNL     1       8.894   9.969  18.677  0.00  0.00    +0.000 A 
ATOM      4  C   UNL     1       8.610  11.029  17.818  0.00  0.00    +0.000 A 
ATOM      5  C   UNL     1       9.134  12.290  18.073  0.00  0.00    +0.000 A 
ATOM      6  N   UNL     1       9.892  12.519  19.170  0.00  0.00    +0.000 N 
ATOM      7  C   UNL     1      10.075  11.538  20.084  0.00  0.00    +0.000 A 
ATOM      8  C   UNL     1       9.595  10.248  19.849  0.00  0.00    +0.000 A 
BRANCH   6   9
ATOM      9  C   UNL     1      10.604  13.823  19.300  0.00  0.00    +0.000 C 
BRANCH   9  10
ATOM     10  C   UNL     1       9.775  14.829  20.055  0.00  0.00    +0.000 A 
ATOM     11  C   UNL     1       8.966  15.745  19.362  0.00  0.00    +0.000 A 
ATOM     12  C   UNL     1       8.339  16.789  20.046  0.00  0.00    +0.000 A 
ATOM     13  C   UNL     1       8.485  16.894  21.423  0.00  0.00    +0.000 A 
ATOM     14  F   UNL     1       7.941  17.934  22.065  0.00  0.00    +0.000 F 
ATOM     15  C   UNL     1       9.203  15.945  22.138  0.00  0.00    +0.000 A 
ATOM     16  C   UNL     1       9.845  14.910  21.458  0.00  0.00    +0.000 A 
ENDBRANCH   9  10
ENDBRANCH   6   9
ENDBRANCH   2   3
BRANCH   1  17
ATOM     17  C   UNL     1       7.243   6.895  17.055  0.00  0.00    +0.000 C 
ATOM     18  O   UNL     1       7.823   6.436  16.074  0.00  0.00    +0.000 OA
BRANCH  17  25
ATOM     19  C   UNL     1       3.275   3.786  19.808  0.00  0.00    +0.000 A 
ATOM     20  C   UNL     1       1.951   3.892  19.371  0.00  0.00    +0.000 A 
ATOM     21  C   UNL     1       1.603   4.753  18.331  0.00  0.00    +0.000 A 
ATOM     22  C   UNL     1       2.583   5.528  17.709  0.00  0.00    +0.000 A 
ATOM     23  C   UNL     1       3.914   5.430  18.125  0.00  0.00    +0.000 A 
ATOM     24  C   UNL     1       4.958   6.184  17.449  0.00  0.00    +0.000 A 
ATOM     25  C   UNL     1       6.247   6.102  17.842  0.00  0.00    +0.000 A 
ATOM     26  C   UNL     1       6.593   5.297  19.039  0.00  0.00    +0.000 A 
ATOM     27  O   UNL     1       7.721   5.328  19.533  0.00  0.00    +0.000 OA
ATOM     28  O   UNL     1       5.585   4.546  19.625  0.00  0.00    +0.000 OA
ATOM     29  C   UNL     1       4.248   4.570  19.176  0.00  0.00    +0.000 A 
BRANCH  19  31
ATOM     30  C   UNL     1       2.281   2.658  21.661  0.00  0.00    +0.000 C 
ATOM     31  O   UNL     1       3.432   2.945  20.876  0.00  0.00    +0.000 OA
ENDBRANCH  19  31
ENDBRANCH  17  25
ENDBRANCH   1  17
TORSDOF 6
ENDMDL
MODEL 5
REMARK VINA RESULT:      -9.0      0.665      1.111
REMARK  Name = 
REMARK  7 active torsions:
REMARK  status: ('A' for Active; 'I' for Inactive)
REMARK    1  A    between atoms: C_1  and  O_2
REMARK    2  A    between atoms: O_2  and  C_3
REMARK    3  A    between atoms: C_9  and  C_10
REMARK    4  A    between atoms: C_10  and  C_12
REMARK    5  A    between atoms: C_13  and  C_14
REMARK    6  A    between atoms: N_17  and  C_18
REMARK    7  A    between atoms: C_18  and  C_19
REMARK                            x       y       z     vdW  Elec       q    Type
REMARK                         _______ _______ _______ _____ _____    ______ ____
ROOT
ATOM      1  C   UNL     1       8.007   8.164  18.229  0.00  0.00    +0.000 C 
ATOM      2  C   UNL     1       8.502   9.271  17.647  0.00  0.00    +0.000 C 
ENDROOT
BRANCH   2   3
ATOM      3  C   UNL     1       8.912  10.449  18.426  0.00  0.00    +0.000 A 
ATOM      4  C   UNL     1       8.871  11.737  17.895  0.00  0.00    +0.000 A 
ATOM      5  C   UNL     1       9.429  12.797  18.598  0.00  0.00    +0.000 A 
ATOM      6  N   UNL     1       9.985  12.607  19.817  0.00  0.00    +0.000 N 
ATOM      7  C   UNL     1       9.922  11.391  20.408  0.00  0.00    +0.000 A 
ATOM      8  C   UNL     1       9.401  10.292  19.722  0.00  0.00    +0.000 A 
BRANCH   6   9
ATOM      9  C   UNL     1      10.754  13.719  20.444  0.00  0.00    +0.000 C 
BRANCH   9  10
ATOM     10  C   UNL     1      10.330  15.058  19.898  0.00  0.00    +0.000 A 
ATOM     11  C   UNL     1       9.143  15.663  20.346  0.00  0.00    +0.000 A 
ATOM     12  C   UNL     1       8.657  16.810  19.716  0.00  0.00    +0.000 A 
ATOM     13  C   UNL     1       9.372  17.376  18.669  0.00  0.00    +0.000 A 
ATOM     14  F   UNL     1       8.869  18.434  18.023  0.00  0.00    +0.000 F 
ATOM     15  C   UNL     1      10.594  16.848  18.273  0.00  0.00    +0.000 A 
ATOM     16  C   UNL     1      11.077  15.692  18.889  0.00  0.00    +0.000 A 
ENDBRANCH   9  10
ENDBRANCH   6   9
ENDBRANCH   2   3
BRANCH   1  17
ATOM     17  C   UNL     1       7.449   7.031  17.435  0.00  0.00    +0.000 C 
ATOM     18  O   UNL     1       7.844   6.833  16.288  0.00  0.00    +0.000 OA
BRANCH  17  25
ATOM     19  C   UNL     1       3.342   3.684  19.653  0.00  0.00    +0.000 A 
ATOM     20  C   UNL     1       2.045   3.831  19.150  0.00  0.00    +0.000 A 
ATOM     21  C   UNL     1       1.755   4.783  18.175  0.00  0.00    +0.000 A 
ATOM     22  C   UNL     1       2.766   5.612  17.685  0.00  0.00    +0.000 A 
ATOM     23  C   UNL     1       4.071   5.475  18.168  0.00  0.00    +0.000 A 
ATOM     24  C   UNL     1       5.148   6.288  17.627  0.00  0.00    +0.000 A 
ATOM     25  C   UNL     1       6.412   6.169  18.086  0.00  0.00    +0.000 A 
ATOM     26  C   UNL     1       6.692   5.257  19.222  0.00  0.00    +0.000 A 
ATOM     27  O   UNL     1       7.789   5.242  19.782  0.00  0.00    +0.000 OA
ATOM     28  O   UNL     1       5.655   4.456  19.676  0.00  0.00    +0.000 OA
ATOM     29  C   UNL     1       4.347   4.522  19.153  0.00  0.00    +0.000 A 
BRANCH  19  31
ATOM     30  C   UNL     1       2.369   2.663  21.578  0.00  0.00    +0.000 C 
ATOM     31  O   UNL     1       3.440   2.748  20.646  0.00  0.00    +0.000 OA
ENDBRANCH  19  31
ENDBRANCH  17  25
ENDBRANCH   1  17
TORSDOF 6
ENDMDL
MODEL 6
REMARK VINA RESULT:      -8.9      2.336      3.042
REMARK  Name = 
REMARK  7 active torsions:
REMARK  status: ('A' for Active; 'I' for Inactive)
REMARK    1  A    between atoms: C_1  and  O_2
REMARK    2  A    between atoms: O_2  and  C_3
REMARK    3  A    between atoms: C_9  and  C_10
REMARK    4  A    between atoms: C_10  and  C_12
REMARK    5  A    between atoms: C_13  and  C_14
REMARK    6  A    between atoms: N_17  and  C_18
REMARK    7  A    between atoms: C_18  and  C_19
REMARK                            x       y       z     vdW  Elec       q    Type
REMARK                         _______ _______ _______ _____ _____    ______ ____
ROOT
ATOM      1  C   UNL     1       8.028   8.002  18.209  0.00  0.00    +0.000 C 
ATOM      2  C   UNL     1       8.346   9.178  17.636  0.00  0.00    +0.000 C 
ENDROOT
BRANCH   2   3
ATOM      3  C   UNL     1       8.824  10.327  18.419  0.00  0.00    +0.000 A 
ATOM      4  C   UNL     1       9.366  10.177  19.695  0.00  0.00    +0.000 A 
ATOM      5  C   UNL     1       9.642  11.296  20.469  0.00  0.00    +0.000 A 
ATOM      6  N   UNL     1       9.427  12.543  19.990  0.00  0.00    +0.000 N 
ATOM      7  C   UNL     1       9.023  12.717  18.710  0.00  0.00    +0.000 A 
ATOM      8  C   UNL     1       8.702  11.618  17.910  0.00  0.00    +0.000 A 
BRANCH   6   9
ATOM      9  C   UNL     1       9.536  13.705  20.917  0.00  0.00    +0.000 C 
BRANCH   9  10
ATOM     10  C   UNL     1       8.185  14.125  21.435  0.00  0.00    +0.000 A 
ATOM     11  C   UNL     1       7.609  15.336  21.016  0.00  0.00    +0.000 A 
ATOM     12  C   UNL     1       6.447  15.811  21.627  0.00  0.00    +0.000 A 
ATOM     13  C   UNL     1       5.838  15.061  22.624  0.00  0.00    +0.000 A 
ATOM     14  F   UNL     1       4.764  15.551  23.255  0.00  0.00    +0.000 F 
ATOM     15  C   UNL     1       6.338  13.818  22.987  0.00  0.00    +0.000 A 
ATOM     16  C   UNL     1       7.509  13.346  22.392  0.00  0.00    +0.000 A 
ENDBRANCH   9  10
ENDBRANCH   6   9
ENDBRANCH   2   3
BRANCH   1  17
ATOM     17  C   UNL     1       7.399   6.889  17.440  0.00  0.00    +0.000 C 
ATOM     18  O   UNL     1       7.754   6.664  16.285  0.00  0.00    +0.000 OA
BRANCH  17  25
ATOM     19  C   UNL     1       3.235   3.711  19.795  0.00  0.00    +0.000 A 
ATOM     20  C   UNL     1       1.963   3.779  19.217  0.00  0.00    +0.000 A 
ATOM     21  C   UNL     1       1.709   4.618  18.134  0.00  0.00    +0.000 A 
ATOM     22  C   UNL     1       2.731   5.411  17.609  0.00  0.00    +0.000 A 
ATOM     23  C   UNL     1       4.011   5.351  18.167  0.00  0.00    +0.000 A 
ATOM     24  C   UNL     1       5.103   6.124  17.596  0.00  0.00    +0.000 A 
ATOM     25  C   UNL     1       6.344   6.079  18.127  0.00  0.00    +0.000 A 
ATOM     26  C   UNL     1       6.578   5.298  19.365  0.00  0.00    +0.000 A 
ATOM     27  O   UNL     1       7.646   5.363  19.977  0.00  0.00    +0.000 OA
ATOM     28  O   UNL     1       5.531   4.528  19.850  0.00  0.00    +0.000 OA
ATOM     29  C   UNL     1       4.251   4.512  19.260  0.00  0.00    +0.000 A 
BRANCH  19  31
ATOM     30  C   UNL     1       2.124   2.762  21.682  0.00  0.00    +0.000 C 
ATOM     31  O   UNL     1       3.295   2.886  20.885  0.00  0.00    +0.000 OA
ENDBRANCH  19  31
ENDBRANCH  17  25
ENDBRANCH   1  17
TORSDOF 6
ENDMDL
MODEL 7
REMARK VINA RESULT:      -8.9      6.945      9.477
REMARK  Name = 
REMARK  7 active torsions:
REMARK  status: ('A' for Active; 'I' for Inactive)
REMARK    1  A    between atoms: C_1  and  O_2
REMARK    2  A    between atoms: O_2  and  C_3
REMARK    3  A    between atoms: C_9  and  C_10
REMARK    4  A    between atoms: C_10  and  C_12
REMARK    5  A    between atoms: C_13  and  C_14
REMARK    6  A    between atoms: N_17  and  C_18
REMARK    7  A    between atoms: C_18  and  C_19
REMARK                            x       y       z     vdW  Elec       q    Type
REMARK                         _______ _______ _______ _____ _____    ______ ____
ROOT
ATOM      1  C   UNL     1       1.432   6.445  20.600  0.00  0.00    +0.000 C 
ATOM      2  C   UNL     1       1.797   7.476  19.815  0.00  0.00    +0.000 C 
ENDROOT
BRANCH   2   3
ATOM      3  C   UNL     1       1.223   8.820  19.972  0.00  0.00    +0.000 A 
ATOM      4  C   UNL     1       0.339   9.131  21.004  0.00  0.00    +0.000 A 
ATOM      5  C   UNL     1      -0.315  10.356  21.015  0.00  0.00    +0.000 A 
ATOM      6  N   UNL     1      -0.079  11.278  20.053  0.00  0.00    +0.000 N 
ATOM      7  C   UNL     1       0.869  11.050  19.114  0.00  0.00    +0.000 A 
ATOM      8  C   UNL     1       1.523   9.819  19.047  0.00  0.00    +0.000 A 
BRANCH   6   9
ATOM      9  C   UNL     1      -0.947  12.488  19.981  0.00  0.00    +0.000 C 
BRANCH   9  10
ATOM     10  C   UNL     1      -2.243  12.194  19.271  0.00  0.00    +0.000 A 
ATOM     11  C   UNL     1      -3.470  12.531  19.867  0.00  0.00    +0.000 A 
ATOM     12  C   UNL     1      -4.670  12.100  19.298  0.00  0.00    +0.000 A 
ATOM     13  C   UNL     1      -4.649  11.371  18.116  0.00  0.00    +0.000 A 
ATOM     14  F   UNL     1      -5.796  10.901  17.611  0.00  0.00    +0.000 F 
ATOM     15  C   UNL     1      -3.453  11.108  17.462  0.00  0.00    +0.000 A 
ATOM     16  C   UNL     1      -2.249  11.522  18.036  0.00  0.00    +0.000 A 
ENDBRANCH   9  10
ENDBRANCH   6   9
ENDBRANCH   2   3
BRANCH   1  17
ATOM     17  C   UNL     1       1.896   5.050  20.345  0.00  0.00    +0.000 C 
ATOM     18  O   UNL     1       1.424   4.118  20.994  0.00  0.00    +0.000 OA
BRANCH  17  25
ATOM     19  C   UNL     1       6.080   4.175  16.510  0.00  0.00    +0.000 A 
ATOM     20  C   UNL     1       7.378   4.555  16.869  0.00  0.00    +0.000 A 
ATOM     21  C   UNL     1       7.636   5.160  18.098  0.00  0.00    +0.000 A 
ATOM     22  C   UNL     1       6.592   5.399  18.993  0.00  0.00    +0.000 A 
ATOM     23  C   UNL     1       5.289   5.018  18.656  0.00  0.00    +0.000 A 
ATOM     24  C   UNL     1       4.198   5.204  19.600  0.00  0.00    +0.000 A 
ATOM     25  C   UNL     1       2.935   4.845  19.287  0.00  0.00    +0.000 A 
ATOM     26  C   UNL     1       2.638   4.334  17.927  0.00  0.00    +0.000 A 
ATOM     27  O   UNL     1       1.482   4.154  17.542  0.00  0.00    +0.000 OA
ATOM     28  O   UNL     1       3.709   4.116  17.072  0.00  0.00    +0.000 OA
ATOM     29  C   UNL     1       5.042   4.421  17.416  0.00  0.00    +0.000 A 
BRANCH  19  31
ATOM     30  C   UNL     1       6.516   4.431  14.178  0.00  0.00    +0.000 C 
ATOM     31  O   UNL     1       5.995   3.653  15.248  0.00  0.00    +0.000 OA
ENDBRANCH  19  31
ENDBRANCH  17  25
ENDBRANCH   1  17
TORSDOF 6
ENDMDL
MODEL 8
REMARK VINA RESULT:      -8.9      6.897      9.112
REMARK  Name = 
REMARK  7 active torsions:
REMARK  status: ('A' for Active; 'I' for Inactive)
REMARK    1  A    between atoms: C_1  and  O_2
REMARK    2  A    between atoms: O_2  and  C_3
REMARK    3  A    between atoms: C_9  and  C_10
REMARK    4  A    between atoms: C_10  and  C_12
REMARK    5  A    between atoms: C_13  and  C_14
REMARK    6  A    between atoms: N_17  and  C_18
REMARK    7  A    between atoms: C_18  and  C_19
REMARK                            x       y       z     vdW  Elec       q    Type
REMARK                         _______ _______ _______ _____ _____    ______ ____
ROOT
ATOM      1  C   UNL     1       4.204   5.615  18.936  0.00  0.00    +0.000 C 
ATOM      2  C   UNL     1       3.735   6.532  18.070  0.00  0.00    +0.000 C 
ENDROOT
BRANCH   2   3
ATOM      3  C   UNL     1       2.722   7.526  18.455  0.00  0.00    +0.000 A 
ATOM      4  C   UNL     1       2.324   8.547  17.593  0.00  0.00    +0.000 A 
ATOM      5  C   UNL     1       1.499   9.565  18.055  0.00  0.00    +0.000 A 
ATOM      6  N   UNL     1       1.041   9.565  19.328  0.00  0.00    +0.000 N 
ATOM      7  C   UNL     1       1.310   8.519  20.145  0.00  0.00    +0.000 A 
ATOM      8  C   UNL     1       2.163   7.494  19.731  0.00  0.00    +0.000 A 
BRANCH   6   9
ATOM      9  C   UNL     1       0.335  10.771  19.845  0.00  0.00    +0.000 C 
BRANCH   9  10
ATOM     10  C   UNL     1      -0.992  10.968  19.158  0.00  0.00    +0.000 A 
ATOM     11  C   UNL     1      -1.881  11.960  19.603  0.00  0.00    +0.000 A 
ATOM     12  C   UNL     1      -3.177  12.026  19.088  0.00  0.00    +0.000 A 
ATOM     13  C   UNL     1      -3.572  11.130  18.103  0.00  0.00    +0.000 A 
ATOM     14  F   UNL     1      -4.835  11.152  17.661  0.00  0.00    +0.000 F 
ATOM     15  C   UNL     1      -2.680  10.203  17.583  0.00  0.00    +0.000 A 
ATOM     16  C   UNL     1      -1.388  10.122  18.106  0.00  0.00    +0.000 A 
ENDBRANCH   9  10
ENDBRANCH   6   9
ENDBRANCH   2   3
BRANCH   1  17
ATOM     17  C   UNL     1       5.113   4.512  18.509  0.00  0.00    +0.000 C 
ATOM     18  O   UNL     1       5.253   3.520  19.222  0.00  0.00    +0.000 OA
BRANCH  17  25
ATOM     19  C   UNL     1       7.578   5.099  13.354  0.00  0.00    +0.000 A 
ATOM     20  C   UNL     1       7.043   4.361  12.293  0.00  0.00    +0.000 A 
ATOM     21  C   UNL     1       5.976   3.486  12.490  0.00  0.00    +0.000 A 
ATOM     22  C   UNL     1       5.425   3.332  13.763  0.00  0.00    +0.000 A 
ATOM     23  C   UNL     1       5.939   4.067  14.836  0.00  0.00    +0.000 A 
ATOM     24  C   UNL     1       5.340   3.966  16.157  0.00  0.00    +0.000 A 
ATOM     25  C   UNL     1       5.828   4.667  17.202  0.00  0.00    +0.000 A 
ATOM     26  C   UNL     1       7.051   5.486  17.022  0.00  0.00    +0.000 A 
ATOM     27  O   UNL     1       7.627   6.005  17.979  0.00  0.00    +0.000 OA
ATOM     28  O   UNL     1       7.563   5.606  15.739  0.00  0.00    +0.000 OA
ATOM     29  C   UNL     1       7.016   4.935  14.626  0.00  0.00    +0.000 A 
BRANCH  19  31
ATOM     30  C   UNL     1       8.570   6.604  11.791  0.00  0.00    +0.000 C 
ATOM     31  O   UNL     1       8.658   5.860  13.000  0.00  0.00    +0.000 OA
ENDBRANCH  19  31
ENDBRANCH  17  25
ENDBRANCH   1  17
TORSDOF 6
ENDMDL
MODEL 9
REMARK VINA RESULT:      -8.9      7.013      9.462
REMARK  Name = 
REMARK  7 active torsions:
REMARK  status: ('A' for Active; 'I' for Inactive)
REMARK    1  A    between atoms: C_1  and  O_2
REMARK    2  A    between atoms: O_2  and  C_3
REMARK    3  A    between atoms: C_9  and  C_10
REMARK    4  A    between atoms: C_10  and  C_12
REMARK    5  A    between atoms: C_13  and  C_14
REMARK    6  A    between atoms: N_17  and  C_18
REMARK    7  A    between atoms: C_18  and  C_19
REMARK                            x       y       z     vdW  Elec       q    Type
REMARK                         _______ _______ _______ _____ _____    ______ ____
ROOT
ATOM      1  C   UNL     1       1.468   5.933  20.682  0.00  0.00    +0.000 C 
ATOM      2  C   UNL     1       2.025   7.130  20.420  0.00  0.00    +0.000 C 
ENDROOT
BRANCH   2   3
ATOM      3  C   UNL     1       1.238   8.372  20.402  0.00  0.00    +0.000 A 
ATOM      4  C   UNL     1       0.204   8.605  21.307  0.00  0.00    +0.000 A 
ATOM      5  C   UNL     1      -0.627   9.706  21.146  0.00  0.00    +0.000 A 
ATOM      6  N   UNL     1      -0.427  10.586  20.138  0.00  0.00    +0.000 N 
ATOM      7  C   UNL     1       0.647  10.451  19.324  0.00  0.00    +0.000 A 
ATOM      8  C   UNL     1       1.485   9.340  19.431  0.00  0.00    +0.000 A 
BRANCH   6   9
ATOM      9  C   UNL     1      -1.455  11.633  19.874  0.00  0.00    +0.000 C 
BRANCH   9  10
ATOM     10  C   UNL     1      -2.341  11.253  18.716  0.00  0.00    +0.000 A 
ATOM     11  C   UNL     1      -1.887  10.345  17.744  0.00  0.00    +0.000 A 
ATOM     12  C   UNL     1      -2.630  10.129  16.581  0.00  0.00    +0.000 A 
ATOM     13  C   UNL     1      -3.841  10.787  16.407  0.00  0.00    +0.000 A 
ATOM     14  F   UNL     1      -4.516  10.631  15.262  0.00  0.00    +0.000 F 
ATOM     15  C   UNL     1      -4.352  11.615  17.397  0.00  0.00    +0.000 A 
ATOM     16  C   UNL     1      -3.605  11.847  18.554  0.00  0.00    +0.000 A 
ENDBRANCH   9  10
ENDBRANCH   6   9
ENDBRANCH   2   3
BRANCH   1  17
ATOM     17  C   UNL     1       2.230   4.657  20.550  0.00  0.00    +0.000 C 
ATOM     18  O   UNL     1       2.091   3.770  21.389  0.00  0.00    +0.000 OA
BRANCH  17  25
ATOM     19  C   UNL     1       5.978   4.024  16.244  0.00  0.00    +0.000 A 
ATOM     20  C   UNL     1       7.290   4.457  16.459  0.00  0.00    +0.000 A 
ATOM     21  C   UNL     1       7.663   5.057  17.661  0.00  0.00    +0.000 A 
ATOM     22  C   UNL     1       6.719   5.236  18.674  0.00  0.00    +0.000 A 
ATOM     23  C   UNL     1       5.404   4.802  18.483  0.00  0.00    +0.000 A 
ATOM     24  C   UNL     1       4.423   4.925  19.548  0.00  0.00    +0.000 A 
ATOM     25  C   UNL     1       3.148   4.513  19.376  0.00  0.00    +0.000 A 
ATOM     26  C   UNL     1       2.719   4.008  18.050  0.00  0.00    +0.000 A 
ATOM     27  O   UNL     1       1.535   3.781  17.798  0.00  0.00    +0.000 OA
ATOM     28  O   UNL     1       3.692   3.850  17.074  0.00  0.00    +0.000 OA
ATOM     29  C   UNL     1       5.041   4.210  17.268  0.00  0.00    +0.000 A 
BRANCH  19  31
ATOM     30  C   UNL     1       6.455   4.132  13.909  0.00  0.00    +0.000 C 
ATOM     31  O   UNL     1       5.770   3.515  14.991  0.00  0.00    +0.000 OA
ENDBRANCH  19  31
ENDBRANCH  17  25
ENDBRANCH   1  17
TORSDOF 6
ENDMDL
