MODEL 1
REMARK VINA RESULT:      -8.1      0.000      0.000
REMARK  Name = 
REMARK  8 active torsions:
REMARK  status: ('A' for Active; 'I' for Inactive)
REMARK    1  A    between atoms: C_1  and  C_2
REMARK    2  A    between atoms: C_2  and  C_3
REMARK    3  A    between atoms: C_3  and  N_4
REMARK    4  A    between atoms: C_9  and  C_10
REMARK    5  A    between atoms: N_12  and  C_13
REMARK    6  A    between atoms: C_18  and  C_19
REMARK    7  A    between atoms: C_19  and  C_20
REMARK    8  A    between atoms: C_24  and  O_25
REMARK                            x       y       z     vdW  Elec       q    Type
REMARK                         _______ _______ _______ _____ _____    ______ ____
ROOT
ATOM      1  N   UNL     1       5.546   4.945  16.488  0.00  0.00    +0.000 N 
ATOM      2  C   UNL     1       4.973   6.193  16.319  0.00  0.00    +0.000 C 
ATOM      3  O   UNL     1       5.150   6.999  15.430  0.00  0.00    +0.000 OA
ATOM      4  C   UNL     1       4.040   6.388  17.427  0.00  0.00    +0.000 A 
ATOM      5  C   UNL     1       3.285   7.508  17.721  0.00  0.00    +0.000 A 
ATOM      6  C   UNL     1       2.471   7.436  18.850  0.00  0.00    +0.000 A 
ATOM      7  C   UNL     1       2.475   6.273  19.662  0.00  0.00    +0.000 A 
ATOM      8  C   UNL     1       3.251   5.153  19.331  0.00  0.00    +0.000 A 
ATOM      9  C   UNL     1       4.029   5.223  18.191  0.00  0.00    +0.000 A 
ATOM     10  C   UNL     1       4.926   4.207  17.560  0.00  0.00    +0.000 C 
ENDROOT
BRANCH   6  11
ATOM     11  C   UNL     1       1.640   8.595  19.273  0.00  0.00    +0.000 C 
ATOM     12  O   UNL     1       1.324   8.647  20.456  0.00  0.00    +0.000 OA
ATOM     13  N   UNL     1       1.261   9.477  18.266  0.00  0.00    +0.000 N 
ATOM     14  H   UNL     1       1.394   9.176  17.312  0.00  0.00    +0.000 HD
BRANCH  13  15
ATOM     15  C   UNL     1       0.551  10.692  18.456  0.00  0.00    +0.000 A 
ATOM     16  C   UNL     1       1.201  11.823  18.976  0.00  0.00    +0.000 A 
ATOM     17  C   UNL     1       0.522  13.019  19.206  0.00  0.00    +0.000 A 
ATOM     18  C   UNL     1      -0.828  13.113  18.910  0.00  0.00    +0.000 A 
ATOM     19  C   UNL     1      -1.486  12.017  18.357  0.00  0.00    +0.000 A 
ATOM     20  C   UNL     1      -0.813  10.801  18.103  0.00  0.00    +0.000 A 
BRANCH  20  21
ATOM     21  C   UNL     1      -1.639   9.692  17.487  0.00  0.00    +0.000 C 
ATOM     22  C   UNL     1      -3.113  10.047  17.355  0.00  0.00    +0.000 C 
ENDBRANCH  20  21
ENDBRANCH  13  15
ENDBRANCH   6  11
BRANCH  10  23
ATOM     23  O   UNL     1       5.932   3.787  18.445  0.00  0.00    +0.000 OA
ATOM     24  H   UNL     1       6.346   4.609  18.757  0.00  0.00    +0.000 HD
ENDBRANCH  10  23
BRANCH   1  25
ATOM     25  C   UNL     1       6.345   4.320  15.451  0.00  0.00    +0.000 C 
BRANCH  25  27
ATOM     26  C   UNL     1       6.393   3.788  12.989  0.00  0.00    +0.000 C 
ATOM     27  C   UNL     1       5.516   3.963  14.217  0.00  0.00    +0.000 C 
ENDBRANCH  25  27
ENDBRANCH   1  25
TORSDOF 6
ENDMDL
MODEL 2
REMARK VINA RESULT:      -8.1      1.301      1.347
REMARK  Name = 
REMARK  8 active torsions:
REMARK  status: ('A' for Active; 'I' for Inactive)
REMARK    1  A    between atoms: C_1  and  C_2
REMARK    2  A    between atoms: C_2  and  C_3
REMARK    3  A    between atoms: C_3  and  N_4
REMARK    4  A    between atoms: C_9  and  C_10
REMARK    5  A    between atoms: N_12  and  C_13
REMARK    6  A    between atoms: C_18  and  C_19
REMARK    7  A    between atoms: C_19  and  C_20
REMARK    8  A    between atoms: C_24  and  O_25
REMARK                            x       y       z     vdW  Elec       q    Type
REMARK                         _______ _______ _______ _____ _____    ______ ____
ROOT
ATOM      1  N   UNL     1       5.609   5.193  17.103  0.00  0.00    +0.000 N 
ATOM      2  C   UNL     1       5.112   6.383  16.603  0.00  0.00    +0.000 C 
ATOM      3  O   UNL     1       5.426   6.977  15.593  0.00  0.00    +0.000 OA
ATOM      4  C   UNL     1       4.062   6.825  17.519  0.00  0.00    +0.000 A 
ATOM      5  C   UNL     1       3.323   7.992  17.473  0.00  0.00    +0.000 A 
ATOM      6  C   UNL     1       2.378   8.176  18.481  0.00  0.00    +0.000 A 
ATOM      7  C   UNL     1       2.238   7.214  19.514  0.00  0.00    +0.000 A 
ATOM      8  C   UNL     1       3.002   6.038  19.527  0.00  0.00    +0.000 A 
ATOM      9  C   UNL     1       3.912   5.851  18.505  0.00  0.00    +0.000 A 
ATOM     10  C   UNL     1       4.837   4.711  18.220  0.00  0.00    +0.000 C 
ENDROOT
BRANCH   6  11
ATOM     11  C   UNL     1       1.550   9.410  18.541  0.00  0.00    +0.000 C 
ATOM     12  O   UNL     1       1.962  10.384  17.922  0.00  0.00    +0.000 OA
ATOM     13  N   UNL     1       0.413   9.347  19.339  0.00  0.00    +0.000 N 
ATOM     14  H   UNL     1       0.333   8.563  19.971  0.00  0.00    +0.000 HD
BRANCH  13  15
ATOM     15  C   UNL     1      -0.566  10.368  19.467  0.00  0.00    +0.000 A 
ATOM     16  C   UNL     1      -0.568  11.217  20.585  0.00  0.00    +0.000 A 
ATOM     17  C   UNL     1      -1.538  12.205  20.754  0.00  0.00    +0.000 A 
ATOM     18  C   UNL     1      -2.527  12.371  19.798  0.00  0.00    +0.000 A 
ATOM     19  C   UNL     1      -2.523  11.567  18.661  0.00  0.00    +0.000 A 
ATOM     20  C   UNL     1      -1.541  10.570  18.464  0.00  0.00    +0.000 A 
BRANCH  20  21
ATOM     21  C   UNL     1      -1.640   9.774  17.180  0.00  0.00    +0.000 C 
ATOM     22  C   UNL     1      -2.835  10.169  16.323  0.00  0.00    +0.000 C 
ENDBRANCH  20  21
ENDBRANCH  13  15
ENDBRANCH   6  11
BRANCH  10  23
ATOM     23  O   UNL     1       5.712   4.476  19.293  0.00  0.00    +0.000 OA
ATOM     24  H   UNL     1       6.054   3.580  19.140  0.00  0.00    +0.000 HD
ENDBRANCH  10  23
BRANCH   1  25
ATOM     25  C   UNL     1       6.501   4.348  16.329  0.00  0.00    +0.000 C 
BRANCH  25  27
ATOM     26  C   UNL     1       6.200   3.960  13.859  0.00  0.00    +0.000 C 
ATOM     27  C   UNL     1       5.758   3.555  15.254  0.00  0.00    +0.000 C 
ENDBRANCH  25  27
ENDBRANCH   1  25
TORSDOF 6
ENDMDL
MODEL 3
REMARK VINA RESULT:      -8.0      1.815      2.596
REMARK  Name = 
REMARK  8 active torsions:
REMARK  status: ('A' for Active; 'I' for Inactive)
REMARK    1  A    between atoms: C_1  and  C_2
REMARK    2  A    between atoms: C_2  and  C_3
REMARK    3  A    between atoms: C_3  and  N_4
REMARK    4  A    between atoms: C_9  and  C_10
REMARK    5  A    between atoms: N_12  and  C_13
REMARK    6  A    between atoms: C_18  and  C_19
REMARK    7  A    between atoms: C_19  and  C_20
REMARK    8  A    between atoms: C_24  and  O_25
REMARK                            x       y       z     vdW  Elec       q    Type
REMARK                         _______ _______ _______ _____ _____    ______ ____
ROOT
ATOM      1  N   UNL     1       6.363   5.144  15.766  0.00  0.00    +0.000 N 
ATOM      2  C   UNL     1       5.344   6.058  15.968  0.00  0.00    +0.000 C 
ATOM      3  O   UNL     1       4.969   6.955  15.242  0.00  0.00    +0.000 OA
ATOM      4  C   UNL     1       4.731   5.736  17.255  0.00  0.00    +0.000 A 
ATOM      5  C   UNL     1       3.720   6.411  17.912  0.00  0.00    +0.000 A 
ATOM      6  C   UNL     1       3.317   5.894  19.143  0.00  0.00    +0.000 A 
ATOM      7  C   UNL     1       3.966   4.756  19.687  0.00  0.00    +0.000 A 
ATOM      8  C   UNL     1       4.987   4.093  18.990  0.00  0.00    +0.000 A 
ATOM      9  C   UNL     1       5.355   4.595  17.757  0.00  0.00    +0.000 A 
ATOM     10  C   UNL     1       6.366   4.109  16.769  0.00  0.00    +0.000 C 
ENDROOT
BRANCH   6  11
ATOM     11  C   UNL     1       2.257   6.559  19.946  0.00  0.00    +0.000 C 
ATOM     12  O   UNL     1       1.549   5.835  20.636  0.00  0.00    +0.000 OA
ATOM     13  N   UNL     1       2.143   7.936  19.790  0.00  0.00    +0.000 N 
ATOM     14  H   UNL     1       2.632   8.358  19.014  0.00  0.00    +0.000 HD
BRANCH  13  15
ATOM     15  C   UNL     1       1.269   8.782  20.524  0.00  0.00    +0.000 A 
ATOM     16  C   UNL     1       0.983   8.514  21.872  0.00  0.00    +0.000 A 
ATOM     17  C   UNL     1       0.101   9.306  22.607  0.00  0.00    +0.000 A 
ATOM     18  C   UNL     1      -0.509  10.396  22.009  0.00  0.00    +0.000 A 
ATOM     19  C   UNL     1      -0.212  10.705  20.683  0.00  0.00    +0.000 A 
ATOM     20  C   UNL     1       0.690   9.924  19.926  0.00  0.00    +0.000 A 
BRANCH  20  21
ATOM     21  C   UNL     1       0.937  10.375  18.502  0.00  0.00    +0.000 C 
ATOM     22  C   UNL     1       1.724  11.675  18.416  0.00  0.00    +0.000 C 
ENDBRANCH  20  21
ENDBRANCH  13  15
ENDBRANCH   6  11
BRANCH  10  23
ATOM     23  O   UNL     1       7.650   4.046  17.334  0.00  0.00    +0.000 OA
ATOM     24  H   UNL     1       8.218   3.710  16.620  0.00  0.00    +0.000 HD
ENDBRANCH  10  23
BRANCH   1  25
ATOM     25  C   UNL     1       7.035   5.013  14.487  0.00  0.00    +0.000 C 
BRANCH  25  27
ATOM     26  C   UNL     1       6.971   3.991  12.186  0.00  0.00    +0.000 C 
ATOM     27  C   UNL     1       6.342   4.007  13.568  0.00  0.00    +0.000 C 
ENDBRANCH  25  27
ENDBRANCH   1  25
TORSDOF 6
ENDMDL
MODEL 4
REMARK VINA RESULT:      -8.0      1.693      2.215
REMARK  Name = 
REMARK  8 active torsions:
REMARK  status: ('A' for Active; 'I' for Inactive)
REMARK    1  A    between atoms: C_1  and  C_2
REMARK    2  A    between atoms: C_2  and  C_3
REMARK    3  A    between atoms: C_3  and  N_4
REMARK    4  A    between atoms: C_9  and  C_10
REMARK    5  A    between atoms: N_12  and  C_13
REMARK    6  A    between atoms: C_18  and  C_19
REMARK    7  A    between atoms: C_19  and  C_20
REMARK    8  A    between atoms: C_24  and  O_25
REMARK                            x       y       z     vdW  Elec       q    Type
REMARK                         _______ _______ _______ _____ _____    ______ ____
ROOT
ATOM      1  N   UNL     1       5.693   5.201  17.138  0.00  0.00    +0.000 N 
ATOM      2  C   UNL     1       5.177   6.381  16.633  0.00  0.00    +0.000 C 
ATOM      3  O   UNL     1       5.485   6.979  15.624  0.00  0.00    +0.000 OA
ATOM      4  C   UNL     1       4.115   6.805  17.544  0.00  0.00    +0.000 A 
ATOM      5  C   UNL     1       3.357   7.960  17.492  0.00  0.00    +0.000 A 
ATOM      6  C   UNL     1       2.404   8.129  18.496  0.00  0.00    +0.000 A 
ATOM      7  C   UNL     1       2.276   7.166  19.530  0.00  0.00    +0.000 A 
ATOM      8  C   UNL     1       3.060   6.004  19.548  0.00  0.00    +0.000 A 
ATOM      9  C   UNL     1       3.978   5.831  18.531  0.00  0.00    +0.000 A 
ATOM     10  C   UNL     1       4.924   4.707  18.253  0.00  0.00    +0.000 C 
ENDROOT
BRANCH   6  11
ATOM     11  C   UNL     1       1.553   9.348  18.550  0.00  0.00    +0.000 C 
ATOM     12  O   UNL     1       1.965  10.337  17.954  0.00  0.00    +0.000 OA
ATOM     13  N   UNL     1       0.398   9.255  19.318  0.00  0.00    +0.000 N 
ATOM     14  H   UNL     1       0.315   8.463  19.938  0.00  0.00    +0.000 HD
BRANCH  13  15
ATOM     15  C   UNL     1      -0.601  10.258  19.433  0.00  0.00    +0.000 A 
ATOM     16  C   UNL     1      -1.473  10.521  18.365  0.00  0.00    +0.000 A 
ATOM     17  C   UNL     1      -2.440  11.524  18.437  0.00  0.00    +0.000 A 
ATOM     18  C   UNL     1      -2.562  12.283  19.589  0.00  0.00    +0.000 A 
ATOM     19  C   UNL     1      -1.734  12.016  20.676  0.00  0.00    +0.000 A 
ATOM     20  C   UNL     1      -0.758  10.994  20.629  0.00  0.00    +0.000 A 
BRANCH  20  21
ATOM     21  C   UNL     1       0.067  10.796  21.883  0.00  0.00    +0.000 C 
ATOM     22  C   UNL     1      -0.733  10.210  23.038  0.00  0.00    +0.000 C 
ENDBRANCH  20  21
ENDBRANCH  13  15
ENDBRANCH   6  11
BRANCH  10  23
ATOM     23  O   UNL     1       5.798   4.490  19.329  0.00  0.00    +0.000 OA
ATOM     24  H   UNL     1       6.454   3.858  18.991  0.00  0.00    +0.000 HD
ENDBRANCH  10  23
BRANCH   1  25
ATOM     25  C   UNL     1       6.603   4.370  16.370  0.00  0.00    +0.000 C 
BRANCH  25  27
ATOM     26  C   UNL     1       6.259   4.024  13.899  0.00  0.00    +0.000 C 
ATOM     27  C   UNL     1       5.879   3.560  15.295  0.00  0.00    +0.000 C 
ENDBRANCH  25  27
ENDBRANCH   1  25
TORSDOF 6
ENDMDL
MODEL 5
REMARK VINA RESULT:      -7.9      0.720      1.948
REMARK  Name = 
REMARK  8 active torsions:
REMARK  status: ('A' for Active; 'I' for Inactive)
REMARK    1  A    between atoms: C_1  and  C_2
REMARK    2  A    between atoms: C_2  and  C_3
REMARK    3  A    between atoms: C_3  and  N_4
REMARK    4  A    between atoms: C_9  and  C_10
REMARK    5  A    between atoms: N_12  and  C_13
REMARK    6  A    between atoms: C_18  and  C_19
REMARK    7  A    between atoms: C_19  and  C_20
REMARK    8  A    between atoms: C_24  and  O_25
REMARK                            x       y       z     vdW  Elec       q    Type
REMARK                         _______ _______ _______ _____ _____    ______ ____
ROOT
ATOM      1  N   UNL     1       5.735   5.027  16.488  0.00  0.00    +0.000 N 
ATOM      2  C   UNL     1       5.063   6.224  16.316  0.00  0.00    +0.000 C 
ATOM      3  O   UNL     1       5.137   7.016  15.400  0.00  0.00    +0.000 OA
ATOM      4  C   UNL     1       4.170   6.380  17.463  0.00  0.00    +0.000 A 
ATOM      5  C   UNL     1       3.348   7.449  17.766  0.00  0.00    +0.000 A 
ATOM      6  C   UNL     1       2.595   7.349  18.935  0.00  0.00    +0.000 A 
ATOM      7  C   UNL     1       2.724   6.212  19.774  0.00  0.00    +0.000 A 
ATOM      8  C   UNL     1       3.566   5.143  19.433  0.00  0.00    +0.000 A 
ATOM      9  C   UNL     1       4.283   5.239  18.256  0.00  0.00    +0.000 A 
ATOM     10  C   UNL     1       5.224   4.276  17.606  0.00  0.00    +0.000 C 
ENDROOT
BRANCH   6  11
ATOM     11  C   UNL     1       1.699   8.454  19.369  0.00  0.00    +0.000 C 
ATOM     12  O   UNL     1       1.430   8.511  20.564  0.00  0.00    +0.000 OA
ATOM     13  N   UNL     1       1.215   9.282  18.362  0.00  0.00    +0.000 N 
ATOM     14  H   UNL     1       1.330   8.969  17.409  0.00  0.00    +0.000 HD
BRANCH  13  15
ATOM     15  C   UNL     1       0.427  10.447  18.557  0.00  0.00    +0.000 A 
ATOM     16  C   UNL     1      -0.941  10.340  18.852  0.00  0.00    +0.000 A 
ATOM     17  C   UNL     1      -1.747  11.468  19.013  0.00  0.00    +0.000 A 
ATOM     18  C   UNL     1      -1.196  12.732  18.892  0.00  0.00    +0.000 A 
ATOM     19  C   UNL     1       0.168  12.864  18.638  0.00  0.00    +0.000 A 
ATOM     20  C   UNL     1       1.004  11.735  18.486  0.00  0.00    +0.000 A 
BRANCH  20  21
ATOM     21  C   UNL     1       2.469  12.015  18.228  0.00  0.00    +0.000 C 
ATOM     22  C   UNL     1       2.858  13.461  18.497  0.00  0.00    +0.000 C 
ENDBRANCH  20  21
ENDBRANCH  13  15
ENDBRANCH   6  11
BRANCH  10  23
ATOM     23  O   UNL     1       6.298   3.955  18.451  0.00  0.00    +0.000 OA
ATOM     24  H   UNL     1       6.958   4.649  18.284  0.00  0.00    +0.000 HD
ENDBRANCH  10  23
BRANCH   1  25
ATOM     25  C   UNL     1       6.530   4.434  15.429  0.00  0.00    +0.000 C 
BRANCH  25  27
ATOM     26  C   UNL     1       6.416   3.773  13.001  0.00  0.00    +0.000 C 
ATOM     27  C   UNL     1       5.663   3.839  14.318  0.00  0.00    +0.000 C 
ENDBRANCH  25  27
ENDBRANCH   1  25
TORSDOF 6
ENDMDL
MODEL 6
REMARK VINA RESULT:      -7.6      1.324      1.605
REMARK  Name = 
REMARK  8 active torsions:
REMARK  status: ('A' for Active; 'I' for Inactive)
REMARK    1  A    between atoms: C_1  and  C_2
REMARK    2  A    between atoms: C_2  and  C_3
REMARK    3  A    between atoms: C_3  and  N_4
REMARK    4  A    between atoms: C_9  and  C_10
REMARK    5  A    between atoms: N_12  and  C_13
REMARK    6  A    between atoms: C_18  and  C_19
REMARK    7  A    between atoms: C_19  and  C_20
REMARK    8  A    between atoms: C_24  and  O_25
REMARK                            x       y       z     vdW  Elec       q    Type
REMARK                         _______ _______ _______ _____ _____    ______ ____
ROOT
ATOM      1  N   UNL     1       4.882   4.565  17.282  0.00  0.00    +0.000 N 
ATOM      2  C   UNL     1       4.430   5.871  17.234  0.00  0.00    +0.000 C 
ATOM      3  O   UNL     1       4.685   6.738  16.424  0.00  0.00    +0.000 OA
ATOM      4  C   UNL     1       3.516   6.048  18.361  0.00  0.00    +0.000 A 
ATOM      5  C   UNL     1       2.869   7.201  18.764  0.00  0.00    +0.000 A 
ATOM      6  C   UNL     1       2.049   7.100  19.886  0.00  0.00    +0.000 A 
ATOM      7  C   UNL     1       1.940   5.870  20.584  0.00  0.00    +0.000 A 
ATOM      8  C   UNL     1       2.608   4.718  20.144  0.00  0.00    +0.000 A 
ATOM      9  C   UNL     1       3.393   4.822  19.012  0.00  0.00    +0.000 A 
ATOM     10  C   UNL     1       4.193   3.791  18.283  0.00  0.00    +0.000 C 
ENDROOT
BRANCH   6  11
ATOM     11  C   UNL     1       1.329   8.287  20.420  0.00  0.00    +0.000 C 
ATOM     12  O   UNL     1       1.160   8.332  21.634  0.00  0.00    +0.000 OA
ATOM     13  N   UNL     1       0.874   9.203  19.479  0.00  0.00    +0.000 N 
ATOM     14  H   UNL     1       0.877   8.914  18.511  0.00  0.00    +0.000 HD
BRANCH  13  15
ATOM     15  C   UNL     1       0.250  10.446  19.768  0.00  0.00    +0.000 A 
ATOM     16  C   UNL     1       0.686  11.227  20.850  0.00  0.00    +0.000 A 
ATOM     17  C   UNL     1       0.069  12.434  21.179  0.00  0.00    +0.000 A 
ATOM     18  C   UNL     1      -0.997  12.892  20.423  0.00  0.00    +0.000 A 
ATOM     19  C   UNL     1      -1.424  12.153  19.322  0.00  0.00    +0.000 A 
ATOM     20  C   UNL     1      -0.803  10.936  18.962  0.00  0.00    +0.000 A 
BRANCH  20  21
ATOM     21  C   UNL     1      -1.352  10.239  17.736  0.00  0.00    +0.000 C 
ATOM     22  C   UNL     1      -2.843   9.950  17.830  0.00  0.00    +0.000 C 
ENDBRANCH  20  21
ENDBRANCH  13  15
ENDBRANCH   6  11
BRANCH  10  23
ATOM     23  O   UNL     1       5.151   3.195  19.118  0.00  0.00    +0.000 OA
ATOM     24  H   UNL     1       4.737   3.180  19.997  0.00  0.00    +0.000 HD
ENDBRANCH  10  23
BRANCH   1  25
ATOM     25  C   UNL     1       5.622   3.967  16.186  0.00  0.00    +0.000 C 
BRANCH  25  27
ATOM     26  C   UNL     1       7.666   4.604  17.513  0.00  0.00    +0.000 C 
ATOM     27  C   UNL     1       7.067   4.464  16.124  0.00  0.00    +0.000 C 
ENDBRANCH  25  27
ENDBRANCH   1  25
TORSDOF 6
ENDMDL
MODEL 7
REMARK VINA RESULT:      -7.6      1.785      2.179
REMARK  Name = 
REMARK  8 active torsions:
REMARK  status: ('A' for Active; 'I' for Inactive)
REMARK    1  A    between atoms: C_1  and  C_2
REMARK    2  A    between atoms: C_2  and  C_3
REMARK    3  A    between atoms: C_3  and  N_4
REMARK    4  A    between atoms: C_9  and  C_10
REMARK    5  A    between atoms: N_12  and  C_13
REMARK    6  A    between atoms: C_18  and  C_19
REMARK    7  A    between atoms: C_19  and  C_20
REMARK    8  A    between atoms: C_24  and  O_25
REMARK                            x       y       z     vdW  Elec       q    Type
REMARK                         _______ _______ _______ _____ _____    ______ ____
ROOT
ATOM      1  N   UNL     1       5.790   5.233  16.917  0.00  0.00    +0.000 N 
ATOM      2  C   UNL     1       5.129   6.354  16.448  0.00  0.00    +0.000 C 
ATOM      3  O   UNL     1       5.296   6.960  15.410  0.00  0.00    +0.000 OA
ATOM      4  C   UNL     1       4.115   6.698  17.443  0.00  0.00    +0.000 A 
ATOM      5  C   UNL     1       3.254   7.780  17.447  0.00  0.00    +0.000 A 
ATOM      6  C   UNL     1       2.379   7.881  18.527  0.00  0.00    +0.000 A 
ATOM      7  C   UNL     1       2.426   6.928  19.577  0.00  0.00    +0.000 A 
ATOM      8  C   UNL     1       3.310   5.840  19.538  0.00  0.00    +0.000 A 
ATOM      9  C   UNL     1       4.151   5.732  18.447  0.00  0.00    +0.000 A 
ATOM     10  C   UNL     1       5.166   4.692  18.098  0.00  0.00    +0.000 C 
ENDROOT
BRANCH   6  11
ATOM     11  C   UNL     1       1.431   9.020  18.644  0.00  0.00    +0.000 C 
ATOM     12  O   UNL     1       0.763   9.289  17.651  0.00  0.00    +0.000 OA
ATOM     13  N   UNL     1       1.435   9.700  19.857  0.00  0.00    +0.000 N 
ATOM     14  H   UNL     1       2.201   9.516  20.489  0.00  0.00    +0.000 HD
BRANCH  13  15
ATOM     15  C   UNL     1       0.552  10.751  20.219  0.00  0.00    +0.000 A 
ATOM     16  C   UNL     1       0.563  11.966  19.515  0.00  0.00    +0.000 A 
ATOM     17  C   UNL     1      -0.267  13.028  19.871  0.00  0.00    +0.000 A 
ATOM     18  C   UNL     1      -1.139  12.894  20.939  0.00  0.00    +0.000 A 
ATOM     19  C   UNL     1      -1.196  11.685  21.629  0.00  0.00    +0.000 A 
ATOM     20  C   UNL     1      -0.374  10.592  21.275  0.00  0.00    +0.000 A 
BRANCH  20  21
ATOM     21  C   UNL     1      -0.544   9.331  22.094  0.00  0.00    +0.000 C 
ATOM     22  C   UNL     1       0.023   9.451  23.501  0.00  0.00    +0.000 C 
ENDBRANCH  20  21
ENDBRANCH  13  15
ENDBRANCH   6  11
BRANCH  10  23
ATOM     23  O   UNL     1       6.144   4.570  19.097  0.00  0.00    +0.000 OA
ATOM     24  H   UNL     1       6.872   4.086  18.672  0.00  0.00    +0.000 HD
ENDBRANCH  10  23
BRANCH   1  25
ATOM     25  C   UNL     1       6.702   4.473  16.081  0.00  0.00    +0.000 C 
BRANCH  25  27
ATOM     26  C   UNL     1       6.282   3.988  13.645  0.00  0.00    +0.000 C 
ATOM     27  C   UNL     1       5.964   3.588  15.075  0.00  0.00    +0.000 C 
ENDBRANCH  25  27
ENDBRANCH   1  25
TORSDOF 6
ENDMDL
MODEL 8
REMARK VINA RESULT:      -7.6      1.513      1.791
REMARK  Name = 
REMARK  8 active torsions:
REMARK  status: ('A' for Active; 'I' for Inactive)
REMARK    1  A    between atoms: C_1  and  C_2
REMARK    2  A    between atoms: C_2  and  C_3
REMARK    3  A    between atoms: C_3  and  N_4
REMARK    4  A    between atoms: C_9  and  C_10
REMARK    5  A    between atoms: N_12  and  C_13
REMARK    6  A    between atoms: C_18  and  C_19
REMARK    7  A    between atoms: C_19  and  C_20
REMARK    8  A    between atoms: C_24  and  O_25
REMARK                            x       y       z     vdW  Elec       q    Type
REMARK                         _______ _______ _______ _____ _____    ______ ____
ROOT
ATOM      1  N   UNL     1       5.016   4.953  17.212  0.00  0.00    +0.000 N 
ATOM      2  C   UNL     1       4.646   6.203  16.746  0.00  0.00    +0.000 C 
ATOM      3  O   UNL     1       5.014   6.784  15.747  0.00  0.00    +0.000 OA
ATOM      4  C   UNL     1       3.659   6.732  17.685  0.00  0.00    +0.000 A 
ATOM      5  C   UNL     1       3.051   7.974  17.676  0.00  0.00    +0.000 A 
ATOM      6  C   UNL     1       2.141   8.234  18.699  0.00  0.00    +0.000 A 
ATOM      7  C   UNL     1       1.906   7.268  19.710  0.00  0.00    +0.000 A 
ATOM      8  C   UNL     1       2.538   6.016  19.686  0.00  0.00    +0.000 A 
ATOM      9  C   UNL     1       3.413   5.756  18.649  0.00  0.00    +0.000 A 
ATOM     10  C   UNL     1       4.206   4.531  18.326  0.00  0.00    +0.000 C 
ENDROOT
BRANCH   6  11
ATOM     11  C   UNL     1       1.452   9.548  18.798  0.00  0.00    +0.000 C 
ATOM     12  O   UNL     1       1.920  10.470  18.139  0.00  0.00    +0.000 OA
ATOM     13  N   UNL     1       0.373   9.611  19.673  0.00  0.00    +0.000 N 
ATOM     14  H   UNL     1       0.256   8.844  20.320  0.00  0.00    +0.000 HD
BRANCH  13  15
ATOM     15  C   UNL     1      -0.482  10.730  19.853  0.00  0.00    +0.000 A 
ATOM     16  C   UNL     1      -0.267  11.628  20.910  0.00  0.00    +0.000 A 
ATOM     17  C   UNL     1      -1.112  12.716  21.132  0.00  0.00    +0.000 A 
ATOM     18  C   UNL     1      -2.190  12.934  20.291  0.00  0.00    +0.000 A 
ATOM     19  C   UNL     1      -2.403  12.078  19.213  0.00  0.00    +0.000 A 
ATOM     20  C   UNL     1      -1.550  10.980  18.962  0.00  0.00    +0.000 A 
BRANCH  20  21
ATOM     21  C   UNL     1      -1.881  10.136  17.749  0.00  0.00    +0.000 C 
ATOM     22  C   UNL     1      -3.376   9.912  17.567  0.00  0.00    +0.000 C 
ENDBRANCH  20  21
ENDBRANCH  13  15
ENDBRANCH   6  11
BRANCH  10  23
ATOM     23  O   UNL     1       5.059   4.175  19.382  0.00  0.00    +0.000 OA
ATOM     24  H   UNL     1       5.955   4.250  19.012  0.00  0.00    +0.000 HD
ENDBRANCH  10  23
BRANCH   1  25
ATOM     25  C   UNL     1       5.803   4.036  16.408  0.00  0.00    +0.000 C 
BRANCH  25  27
ATOM     26  C   UNL     1       7.793   4.671  17.815  0.00  0.00    +0.000 C 
ATOM     27  C   UNL     1       7.289   4.395  16.410  0.00  0.00    +0.000 C 
ENDBRANCH  25  27
ENDBRANCH   1  25
TORSDOF 6
ENDMDL
MODEL 9
REMARK VINA RESULT:      -7.5      3.060      9.114
REMARK  Name = 
REMARK  8 active torsions:
REMARK  status: ('A' for Active; 'I' for Inactive)
REMARK    1  A    between atoms: C_1  and  C_2
REMARK    2  A    between atoms: C_2  and  C_3
REMARK    3  A    between atoms: C_3  and  N_4
REMARK    4  A    between atoms: C_9  and  C_10
REMARK    5  A    between atoms: N_12  and  C_13
REMARK    6  A    between atoms: C_18  and  C_19
REMARK    7  A    between atoms: C_19  and  C_20
REMARK    8  A    between atoms: C_24  and  O_25
REMARK                            x       y       z     vdW  Elec       q    Type
REMARK                         _______ _______ _______ _____ _____    ______ ____
ROOT
ATOM      1  N   UNL     1      -0.613  11.936  22.237  0.00  0.00    +0.000 N 
ATOM      2  C   UNL     1      -0.154  10.639  22.382  0.00  0.00    +0.000 C 
ATOM      3  O   UNL     1      -0.191   9.922  23.360  0.00  0.00    +0.000 OA
ATOM      4  C   UNL     1       0.386  10.231  21.087  0.00  0.00    +0.000 A 
ATOM      5  C   UNL     1       1.015   9.045  20.759  0.00  0.00    +0.000 A 
ATOM      6  C   UNL     1       1.446   8.907  19.441  0.00  0.00    +0.000 A 
ATOM      7  C   UNL     1       1.271   9.968  18.516  0.00  0.00    +0.000 A 
ATOM      8  C   UNL     1       0.624  11.157  18.883  0.00  0.00    +0.000 A 
ATOM      9  C   UNL     1       0.173  11.270  20.183  0.00  0.00    +0.000 A 
ATOM     10  C   UNL     1      -0.570  12.375  20.865  0.00  0.00    +0.000 C 
ENDROOT
BRANCH   6  11
ATOM     11  C   UNL     1       2.159   7.682  18.990  0.00  0.00    +0.000 C 
ATOM     12  O   UNL     1       2.354   7.567  17.785  0.00  0.00    +0.000 OA
ATOM     13  N   UNL     1       2.489   6.764  19.981  0.00  0.00    +0.000 N 
ATOM     14  H   UNL     1       2.056   6.883  20.886  0.00  0.00    +0.000 HD
BRANCH  13  15
ATOM     15  C   UNL     1       3.249   5.579  19.792  0.00  0.00    +0.000 A 
ATOM     16  C   UNL     1       4.557   5.646  19.287  0.00  0.00    +0.000 A 
ATOM     17  C   UNL     1       5.314   4.497  19.058  0.00  0.00    +0.000 A 
ATOM     18  C   UNL     1       4.779   3.251  19.339  0.00  0.00    +0.000 A 
ATOM     19  C   UNL     1       3.497   3.161  19.877  0.00  0.00    +0.000 A 
ATOM     20  C   UNL     1       2.719   4.314  20.130  0.00  0.00    +0.000 A 
BRANCH  20  21
ATOM     21  C   UNL     1       1.349   4.080  20.729  0.00  0.00    +0.000 C 
ATOM     22  C   UNL     1       1.245   2.766  21.490  0.00  0.00    +0.000 C 
ENDBRANCH  20  21
ENDBRANCH  13  15
ENDBRANCH   6  11
BRANCH  10  23
ATOM     23  O   UNL     1       0.141  13.584  20.810  0.00  0.00    +0.000 OA
ATOM     24  H   UNL     1      -0.021  13.925  19.914  0.00  0.00    +0.000 HD
ENDBRANCH  10  23
BRANCH   1  25
ATOM     25  C   UNL     1      -1.424  12.582  23.252  0.00  0.00    +0.000 C 
BRANCH  25  27
ATOM     26  C   UNL     1      -3.716  12.810  24.272  0.00  0.00    +0.000 C 
ATOM     27  C   UNL     1      -2.895  12.174  23.164  0.00  0.00    +0.000 C 
ENDBRANCH  25  27
ENDBRANCH   1  25
TORSDOF 6
ENDMDL
