MODEL 1
REMARK VINA RESULT:      -6.9      0.000      0.000
REMARK  Name = 
REMARK  12 active torsions:
REMARK  status: ('A' for Active; 'I' for Inactive)
REMARK    1  A    between atoms: C_1  and  C_2
REMARK    2  A    between atoms: C_2  and  O_3
REMARK    3  A    between atoms: C_2  and  C_4
REMARK    4  A    between atoms: C_8  and  C_9
REMARK    5  A    between atoms: C_9  and  O_11
REMARK    6  A    between atoms: C_12  and  S_13
REMARK    7  A    between atoms: S_13  and  C_14
REMARK    8  A    between atoms: C_17  and  C_18
REMARK    9  A    between atoms: C_18  and  N_19
REMARK   10  A    between atoms: N_19  and  S_20
REMARK   11  A    between atoms: S_20  and  N_21
REMARK   12  A    between atoms: C_25  and  C_26
REMARK                            x       y       z     vdW  Elec       q    Type
REMARK                         _______ _______ _______ _____ _____    ______ ____
ROOT
ATOM      1  C   UNL     1      -0.391  11.493  18.516  0.00  0.00    +0.000 C 
ATOM      2  C   UNL     1      -0.227  11.501  20.044  0.00  0.00    +0.000 C 
ATOM      3  O   UNL     1       0.041  12.283  20.932  0.00  0.00    +0.000 OA
ATOM      4  N   UNL     1      -0.253  10.143  20.100  0.00  0.00    +0.000 N 
ATOM      5  C   UNL     1       0.715   9.361  20.701  0.00  0.00    +0.000 C 
ATOM      6  C   UNL     1       1.443   8.685  19.787  0.00  0.00    +0.000 C 
ATOM      7  C   UNL     1       1.115   9.166  18.386  0.00  0.00    +0.000 C 
ATOM      8  C   UNL     1       2.176  10.066  17.757  0.00  0.00    +0.000 C 
ATOM      9  C   UNL     1      -0.185   9.949  18.632  0.00  0.00    +0.000 C 
ENDROOT
BRANCH   1  11
ATOM     10  C   UNL     1      -2.383  10.813  17.197  0.00  0.00    +0.000 C 
ATOM     11  C   UNL     1      -1.695  11.979  17.903  0.00  0.00    +0.000 C 
BRANCH  11  12
ATOM     12  O   UNL     1      -2.585  12.541  18.866  0.00  0.00    +0.000 OA
ATOM     13  H   UNL     1      -3.494  12.220  18.720  0.00  0.00    +0.000 HD
ENDBRANCH  11  12
ENDBRANCH   1  11
BRANCH   5  14
ATOM     14  C   UNL     1       0.724   9.207  22.188  0.00  0.00    +0.000 C 
ATOM     15  O   UNL     1      -0.265   8.987  22.869  0.00  0.00    +0.000 OA
BRANCH  14  16
ATOM     16  O   UNL     1       1.955   9.316  22.736  0.00  0.00    +0.000 OA
ATOM     17  H   UNL     1       2.414  10.174  22.588  0.00  0.00    +0.000 HD
ENDBRANCH  14  16
ENDBRANCH   5  14
BRANCH   6  18
ATOM     18  S   UNL     1       2.214   7.170  20.067  0.00  0.00    +0.000 S 
BRANCH  18  19
ATOM     19  C   UNL     1       2.278   6.293  18.485  0.00  0.00    +0.000 C 
ATOM     20  C   UNL     1       2.010   4.806  18.741  0.00  0.00    +0.000 C 
ATOM     21  N   UNL     1       2.699   4.048  17.691  0.00  0.00    +0.000 NA
ATOM     22  C   UNL     1       3.781   4.918  17.174  0.00  0.00    +0.000 C 
ATOM     23  C   UNL     1       3.642   6.300  17.814  0.00  0.00    +0.000 C 
ATOM     24  H   UNL     1       2.051   3.854  16.923  0.00  0.00    +0.000 HD
BRANCH  22  25
ATOM     25  C   UNL     1       5.161   4.261  17.414  0.00  0.00    +0.000 C 
BRANCH  25  26
ATOM     26  N   UNL     1       5.938   5.036  18.438  0.00  0.00    +0.000 NA
ATOM     27  H   UNL     1       5.932   4.466  19.289  0.00  0.00    +0.000 HD
BRANCH  26  28
ATOM     28  S   UNL     1       7.509   5.411  18.006  0.00  0.00    +0.000 S 
ATOM     29  O   UNL     1       8.089   6.206  19.056  0.00  0.00    +0.000 OA
ATOM     30  O   UNL     1       8.133   4.243  17.441  0.00  0.00    +0.000 OA
BRANCH  28  31
ATOM     31  N   UNL     1       7.139   6.455  16.773  0.00  0.00    +0.000 NA
ATOM     32  H   UNL     1       7.932   6.986  16.426  0.00  0.00    +0.000 HD
ATOM     33  H   UNL     1       6.263   6.947  16.914  0.00  0.00    +0.000 HD
ENDBRANCH  28  31
ENDBRANCH  26  28
ENDBRANCH  25  26
ENDBRANCH  22  25
ENDBRANCH  18  19
ENDBRANCH   6  18
TORSDOF 10
ENDMDL
MODEL 2
REMARK VINA RESULT:      -6.9      2.144      2.521
REMARK  Name = 
REMARK  12 active torsions:
REMARK  status: ('A' for Active; 'I' for Inactive)
REMARK    1  A    between atoms: C_1  and  C_2
REMARK    2  A    between atoms: C_2  and  O_3
REMARK    3  A    between atoms: C_2  and  C_4
REMARK    4  A    between atoms: C_8  and  C_9
REMARK    5  A    between atoms: C_9  and  O_11
REMARK    6  A    between atoms: C_12  and  S_13
REMARK    7  A    between atoms: S_13  and  C_14
REMARK    8  A    between atoms: C_17  and  C_18
REMARK    9  A    between atoms: C_18  and  N_19
REMARK   10  A    between atoms: N_19  and  S_20
REMARK   11  A    between atoms: S_20  and  N_21
REMARK   12  A    between atoms: C_25  and  C_26
REMARK                            x       y       z     vdW  Elec       q    Type
REMARK                         _______ _______ _______ _____ _____    ______ ____
ROOT
ATOM      1  C   UNL     1       0.377  11.931  18.904  0.00  0.00    +0.000 C 
ATOM      2  C   UNL     1       0.699  11.826  20.403  0.00  0.00    +0.000 C 
ATOM      3  O   UNL     1       1.259  12.468  21.267  0.00  0.00    +0.000 OA
ATOM      4  N   UNL     1       0.315  10.523  20.441  0.00  0.00    +0.000 N 
ATOM      5  C   UNL     1       1.096   9.486  20.915  0.00  0.00    +0.000 C 
ATOM      6  C   UNL     1       1.515   8.683  19.914  0.00  0.00    +0.000 C 
ATOM      7  C   UNL     1       1.182   9.296  18.568  0.00  0.00    +0.000 C 
ATOM      8  C   UNL     1       2.373   9.911  17.836  0.00  0.00    +0.000 C 
ATOM      9  C   UNL     1       0.172  10.384  18.972  0.00  0.00    +0.000 C 
ENDROOT
BRANCH   1  11
ATOM     10  C   UNL     1      -0.460  14.250  18.607  0.00  0.00    +0.000 C 
ATOM     11  C   UNL     1      -0.807  12.772  18.451  0.00  0.00    +0.000 C 
BRANCH  11  12
ATOM     12  O   UNL     1      -1.184  12.513  17.100  0.00  0.00    +0.000 OA
ATOM     13  H   UNL     1      -2.156  12.479  17.017  0.00  0.00    +0.000 HD
ENDBRANCH  11  12
ENDBRANCH   1  11
BRANCH   5  14
ATOM     14  C   UNL     1       1.220   9.268  22.390  0.00  0.00    +0.000 C 
ATOM     15  O   UNL     1       2.272   9.293  23.009  0.00  0.00    +0.000 OA
BRANCH  14  16
ATOM     16  O   UNL     1       0.037   9.051  23.007  0.00  0.00    +0.000 OA
ATOM     17  H   UNL     1      -0.652   9.741  22.865  0.00  0.00    +0.000 HD
ENDBRANCH  14  16
ENDBRANCH   5  14
BRANCH   6  18
ATOM     18  S   UNL     1       1.876   7.007  20.082  0.00  0.00    +0.000 S 
BRANCH  18  19
ATOM     19  C   UNL     1       2.369   6.393  18.452  0.00  0.00    +0.000 C 
ATOM     20  C   UNL     1       1.820   4.972  18.281  0.00  0.00    +0.000 C 
ATOM     21  N   UNL     1       2.721   4.260  17.366  0.00  0.00    +0.000 NA
ATOM     22  C   UNL     1       4.027   4.957  17.422  0.00  0.00    +0.000 C 
ATOM     23  C   UNL     1       3.868   6.221  18.268  0.00  0.00    +0.000 C 
ATOM     24  H   UNL     1       2.363   4.327  16.409  0.00  0.00    +0.000 HD
BRANCH  22  25
ATOM     25  C   UNL     1       5.126   4.000  17.941  0.00  0.00    +0.000 C 
BRANCH  25  26
ATOM     26  N   UNL     1       5.012   3.830  19.427  0.00  0.00    +0.000 NA
ATOM     27  H   UNL     1       4.493   4.645  19.766  0.00  0.00    +0.000 HD
BRANCH  26  28
ATOM     28  S   UNL     1       4.266   2.420  19.928  0.00  0.00    +0.000 S 
ATOM     29  O   UNL     1       5.209   1.662  20.707  0.00  0.00    +0.000 OA
ATOM     30  O   UNL     1       2.925   2.724  20.356  0.00  0.00    +0.000 OA
BRANCH  28  31
ATOM     31  N   UNL     1       4.188   1.691  18.441  0.00  0.00    +0.000 NA
ATOM     32  H   UNL     1       4.144   2.340  17.662  0.00  0.00    +0.000 HD
ATOM     33  H   UNL     1       3.575   0.883  18.423  0.00  0.00    +0.000 HD
ENDBRANCH  28  31
ENDBRANCH  26  28
ENDBRANCH  25  26
ENDBRANCH  22  25
ENDBRANCH  18  19
ENDBRANCH   6  18
TORSDOF 10
ENDMDL
MODEL 3
REMARK VINA RESULT:      -6.9      2.823      8.044
REMARK  Name = 
REMARK  12 active torsions:
REMARK  status: ('A' for Active; 'I' for Inactive)
REMARK    1  A    between atoms: C_1  and  C_2
REMARK    2  A    between atoms: C_2  and  O_3
REMARK    3  A    between atoms: C_2  and  C_4
REMARK    4  A    between atoms: C_8  and  C_9
REMARK    5  A    between atoms: C_9  and  O_11
REMARK    6  A    between atoms: C_12  and  S_13
REMARK    7  A    between atoms: S_13  and  C_14
REMARK    8  A    between atoms: C_17  and  C_18
REMARK    9  A    between atoms: C_18  and  N_19
REMARK   10  A    between atoms: N_19  and  S_20
REMARK   11  A    between atoms: S_20  and  N_21
REMARK   12  A    between atoms: C_25  and  C_26
REMARK                            x       y       z     vdW  Elec       q    Type
REMARK                         _______ _______ _______ _____ _____    ______ ____
ROOT
ATOM      1  C   UNL     1       3.420   3.513  19.337  0.00  0.00    +0.000 C 
ATOM      2  C   UNL     1       4.666   4.086  18.644  0.00  0.00    +0.000 C 
ATOM      3  O   UNL     1       5.871   4.092  18.784  0.00  0.00    +0.000 OA
ATOM      4  N   UNL     1       3.909   4.882  17.843  0.00  0.00    +0.000 N 
ATOM      5  C   UNL     1       4.069   6.249  17.715  0.00  0.00    +0.000 C 
ATOM      6  C   UNL     1       3.048   6.922  18.288  0.00  0.00    +0.000 C 
ATOM      7  C   UNL     1       2.168   5.976  19.081  0.00  0.00    +0.000 C 
ATOM      8  C   UNL     1       2.348   6.056  20.596  0.00  0.00    +0.000 C 
ATOM      9  C   UNL     1       2.636   4.611  18.550  0.00  0.00    +0.000 C 
ENDROOT
BRANCH   1  11
ATOM     10  C   UNL     1       1.634   2.019  18.471  0.00  0.00    +0.000 C 
ATOM     11  C   UNL     1       3.029   2.064  19.090  0.00  0.00    +0.000 C 
BRANCH  11  12
ATOM     12  O   UNL     1       3.946   1.379  18.239  0.00  0.00    +0.000 OA
ATOM     13  H   UNL     1       3.995   0.435  18.478  0.00  0.00    +0.000 HD
ENDBRANCH  11  12
ENDBRANCH   1  11
BRANCH   5  14
ATOM     14  C   UNL     1       5.165   6.789  16.853  0.00  0.00    +0.000 C 
ATOM     15  O   UNL     1       5.060   7.017  15.658  0.00  0.00    +0.000 OA
BRANCH  14  16
ATOM     16  O   UNL     1       6.313   7.030  17.525  0.00  0.00    +0.000 OA
ATOM     17  H   UNL     1       6.976   6.302  17.512  0.00  0.00    +0.000 HD
ENDBRANCH  14  16
ENDBRANCH   5  14
BRANCH   6  18
ATOM     18  S   UNL     1       2.494   8.476  17.795  0.00  0.00    +0.000 S 
BRANCH  18  19
ATOM     19  C   UNL     1       0.990   8.839  18.734  0.00  0.00    +0.000 C 
ATOM     20  C   UNL     1       0.121   9.799  17.912  0.00  0.00    +0.000 C 
ATOM     21  N   UNL     1      -0.674  10.591  18.857  0.00  0.00    +0.000 NA
ATOM     22  C   UNL     1       0.045  10.562  20.153  0.00  0.00    +0.000 C 
ATOM     23  C   UNL     1       1.222   9.593  20.033  0.00  0.00    +0.000 C 
ATOM     24  H   UNL     1      -1.589  10.153  18.990  0.00  0.00    +0.000 HD
BRANCH  22  25
ATOM     25  C   UNL     1       0.461  11.992  20.569  0.00  0.00    +0.000 C 
BRANCH  25  26
ATOM     26  N   UNL     1       1.790  12.346  19.968  0.00  0.00    +0.000 NA
ATOM     27  H   UNL     1       2.229  11.458  19.710  0.00  0.00    +0.000 HD
BRANCH  26  28
ATOM     28  S   UNL     1       1.723  13.364  18.644  0.00  0.00    +0.000 S 
ATOM     29  O   UNL     1       0.362  13.414  18.180  0.00  0.00    +0.000 OA
ATOM     30  O   UNL     1       2.529  14.529  18.904  0.00  0.00    +0.000 OA
BRANCH  28  31
ATOM     31  N   UNL     1       2.545  12.384  17.590  0.00  0.00    +0.000 NA
ATOM     32  H   UNL     1       2.517  12.696  16.625  0.00  0.00    +0.000 HD
ATOM     33  H   UNL     1       2.410  11.395  17.775  0.00  0.00    +0.000 HD
ENDBRANCH  28  31
ENDBRANCH  26  28
ENDBRANCH  25  26
ENDBRANCH  22  25
ENDBRANCH  18  19
ENDBRANCH   6  18
TORSDOF 10
ENDMDL
MODEL 4
REMARK VINA RESULT:      -6.8      0.830      1.212
REMARK  Name = 
REMARK  12 active torsions:
REMARK  status: ('A' for Active; 'I' for Inactive)
REMARK    1  A    between atoms: C_1  and  C_2
REMARK    2  A    between atoms: C_2  and  O_3
REMARK    3  A    between atoms: C_2  and  C_4
REMARK    4  A    between atoms: C_8  and  C_9
REMARK    5  A    between atoms: C_9  and  O_11
REMARK    6  A    between atoms: C_12  and  S_13
REMARK    7  A    between atoms: S_13  and  C_14
REMARK    8  A    between atoms: C_17  and  C_18
REMARK    9  A    between atoms: C_18  and  N_19
REMARK   10  A    between atoms: N_19  and  S_20
REMARK   11  A    between atoms: S_20  and  N_21
REMARK   12  A    between atoms: C_25  and  C_26
REMARK                            x       y       z     vdW  Elec       q    Type
REMARK                         _______ _______ _______ _____ _____    ______ ____
ROOT
ATOM      1  C   UNL     1      -0.922  11.454  18.131  0.00  0.00    +0.000 C 
ATOM      2  C   UNL     1      -1.079  11.396  19.659  0.00  0.00    +0.000 C 
ATOM      3  O   UNL     1      -1.166  12.156  20.600  0.00  0.00    +0.000 OA
ATOM      4  N   UNL     1      -0.835  10.059  19.678  0.00  0.00    +0.000 N 
ATOM      5  C   UNL     1       0.130   9.446  20.455  0.00  0.00    +0.000 C 
ATOM      6  C   UNL     1       1.153   8.988  19.703  0.00  0.00    +0.000 C 
ATOM      7  C   UNL     1       1.026   9.484  18.276  0.00  0.00    +0.000 C 
ATOM      8  C   UNL     1       1.984  10.615  17.907  0.00  0.00    +0.000 C 
ATOM      9  C   UNL     1      -0.430   9.977  18.255  0.00  0.00    +0.000 C 
ENDROOT
BRANCH   1  11
ATOM     10  C   UNL     1      -2.506  10.432  16.514  0.00  0.00    +0.000 C 
ATOM     11  C   UNL     1      -2.146  11.711  17.264  0.00  0.00    +0.000 C 
BRANCH  11  12
ATOM     12  O   UNL     1      -3.274  12.154  18.016  0.00  0.00    +0.000 OA
ATOM     13  H   UNL     1      -3.021  12.879  18.618  0.00  0.00    +0.000 HD
ENDBRANCH  11  12
ENDBRANCH   1  11
BRANCH   5  14
ATOM     14  C   UNL     1      -0.133   9.201  21.907  0.00  0.00    +0.000 C 
ATOM     15  O   UNL     1      -0.729   8.232  22.350  0.00  0.00    +0.000 OA
BRANCH  14  16
ATOM     16  O   UNL     1       0.371  10.159  22.717  0.00  0.00    +0.000 OA
ATOM     17  H   UNL     1       0.882   9.836  23.494  0.00  0.00    +0.000 HD
ENDBRANCH  14  16
ENDBRANCH   5  14
BRANCH   6  18
ATOM     18  S   UNL     1       2.147   7.641  20.108  0.00  0.00    +0.000 S 
BRANCH  18  19
ATOM     19  C   UNL     1       2.185   6.542  18.670  0.00  0.00    +0.000 C 
ATOM     20  C   UNL     1       2.118   5.092  19.164  0.00  0.00    +0.000 C 
ATOM     21  N   UNL     1       2.803   4.258  18.170  0.00  0.00    +0.000 NA
ATOM     22  C   UNL     1       3.728   5.147  17.428  0.00  0.00    +0.000 C 
ATOM     23  C   UNL     1       3.479   6.588  17.874  0.00  0.00    +0.000 C 
ATOM     24  H   UNL     1       2.122   3.881  17.506  0.00  0.00    +0.000 HD
BRANCH  22  25
ATOM     25  C   UNL     1       5.191   4.684  17.623  0.00  0.00    +0.000 C 
BRANCH  25  26
ATOM     26  N   UNL     1       6.118   5.864  17.617  0.00  0.00    +0.000 NA
ATOM     27  H   UNL     1       5.586   6.644  18.014  0.00  0.00    +0.000 HD
BRANCH  26  28
ATOM     28  S   UNL     1       7.546   5.651  18.460  0.00  0.00    +0.000 S 
ATOM     29  O   UNL     1       8.187   4.460  17.969  0.00  0.00    +0.000 OA
ATOM     30  O   UNL     1       8.207   6.924  18.597  0.00  0.00    +0.000 OA
BRANCH  28  31
ATOM     31  N   UNL     1       6.866   5.255  19.918  0.00  0.00    +0.000 NA
ATOM     32  H   UNL     1       7.531   4.923  20.610  0.00  0.00    +0.000 HD
ATOM     33  H   UNL     1       5.986   4.758  19.828  0.00  0.00    +0.000 HD
ENDBRANCH  28  31
ENDBRANCH  26  28
ENDBRANCH  25  26
ENDBRANCH  22  25
ENDBRANCH  18  19
ENDBRANCH   6  18
TORSDOF 10
ENDMDL
MODEL 5
REMARK VINA RESULT:      -6.8      0.884      1.157
REMARK  Name = 
REMARK  12 active torsions:
REMARK  status: ('A' for Active; 'I' for Inactive)
REMARK    1  A    between atoms: C_1  and  C_2
REMARK    2  A    between atoms: C_2  and  O_3
REMARK    3  A    between atoms: C_2  and  C_4
REMARK    4  A    between atoms: C_8  and  C_9
REMARK    5  A    between atoms: C_9  and  O_11
REMARK    6  A    between atoms: C_12  and  S_13
REMARK    7  A    between atoms: S_13  and  C_14
REMARK    8  A    between atoms: C_17  and  C_18
REMARK    9  A    between atoms: C_18  and  N_19
REMARK   10  A    between atoms: N_19  and  S_20
REMARK   11  A    between atoms: S_20  and  N_21
REMARK   12  A    between atoms: C_25  and  C_26
REMARK                            x       y       z     vdW  Elec       q    Type
REMARK                         _______ _______ _______ _____ _____    ______ ____
ROOT
ATOM      1  C   UNL     1      -0.353  11.769  18.905  0.00  0.00    +0.000 C 
ATOM      2  C   UNL     1      -0.113  11.747  20.422  0.00  0.00    +0.000 C 
ATOM      3  O   UNL     1       0.268  12.492  21.301  0.00  0.00    +0.000 OA
ATOM      4  N   UNL     1      -0.256  10.395  20.470  0.00  0.00    +0.000 N 
ATOM      5  C   UNL     1       0.667   9.525  21.016  0.00  0.00    +0.000 C 
ATOM      6  C   UNL     1       1.286   8.797  20.062  0.00  0.00    +0.000 C 
ATOM      7  C   UNL     1       0.933   9.320  18.683  0.00  0.00    +0.000 C 
ATOM      8  C   UNL     1       2.036  10.131  18.007  0.00  0.00    +0.000 C 
ATOM      9  C   UNL     1      -0.279  10.212  19.000  0.00  0.00    +0.000 C 
ENDROOT
BRANCH   1  11
ATOM     10  C   UNL     1      -2.228  11.439  17.309  0.00  0.00    +0.000 C 
ATOM     11  C   UNL     1      -1.639  12.375  18.362  0.00  0.00    +0.000 C 
BRANCH  11  12
ATOM     12  O   UNL     1      -2.610  12.616  19.378  0.00  0.00    +0.000 OA
ATOM     13  H   UNL     1      -2.560  13.540  19.686  0.00  0.00    +0.000 HD
ENDBRANCH  11  12
ENDBRANCH   1  11
BRANCH   5  14
ATOM     14  C   UNL     1       0.737   9.354  22.501  0.00  0.00    +0.000 C 
ATOM     15  O   UNL     1       1.766   9.395  23.156  0.00  0.00    +0.000 OA
BRANCH  14  16
ATOM     16  O   UNL     1      -0.469   9.162  23.081  0.00  0.00    +0.000 OA
ATOM     17  H   UNL     1      -1.250   9.285  22.494  0.00  0.00    +0.000 HD
ENDBRANCH  14  16
ENDBRANCH   5  14
BRANCH   6  18
ATOM     18  S   UNL     1       1.933   7.217  20.293  0.00  0.00    +0.000 S 
BRANCH  18  19
ATOM     19  C   UNL     1       2.213   6.501  18.655  0.00  0.00    +0.000 C 
ATOM     20  C   UNL     1       1.610   5.092  18.630  0.00  0.00    +0.000 C 
ATOM     21  N   UNL     1       2.376   4.303  17.658  0.00  0.00    +0.000 NA
ATOM     22  C   UNL     1       3.698   4.958  17.521  0.00  0.00    +0.000 C 
ATOM     23  C   UNL     1       3.675   6.270  18.307  0.00  0.00    +0.000 C 
ATOM     24  H   UNL     1       1.910   4.329  16.748  0.00  0.00    +0.000 HD
BRANCH  22  25
ATOM     25  C   UNL     1       4.825   3.994  17.962  0.00  0.00    +0.000 C 
BRANCH  25  26
ATOM     26  N   UNL     1       6.073   4.252  17.170  0.00  0.00    +0.000 NA
ATOM     27  H   UNL     1       5.773   4.730  16.316  0.00  0.00    +0.000 HD
BRANCH  26  28
ATOM     28  S   UNL     1       7.241   5.154  17.957  0.00  0.00    +0.000 S 
ATOM     29  O   UNL     1       7.611   6.253  17.105  0.00  0.00    +0.000 OA
ATOM     30  O   UNL     1       6.873   5.296  19.342  0.00  0.00    +0.000 OA
BRANCH  28  31
ATOM     31  N   UNL     1       8.465   4.042  17.851  0.00  0.00    +0.000 NA
ATOM     32  H   UNL     1       8.936   3.858  18.731  0.00  0.00    +0.000 HD
ATOM     33  H   UNL     1       9.036   4.152  17.020  0.00  0.00    +0.000 HD
ENDBRANCH  28  31
ENDBRANCH  26  28
ENDBRANCH  25  26
ENDBRANCH  22  25
ENDBRANCH  18  19
ENDBRANCH   6  18
TORSDOF 10
ENDMDL
MODEL 6
REMARK VINA RESULT:      -6.8      2.925      8.258
REMARK  Name = 
REMARK  12 active torsions:
REMARK  status: ('A' for Active; 'I' for Inactive)
REMARK    1  A    between atoms: C_1  and  C_2
REMARK    2  A    between atoms: C_2  and  O_3
REMARK    3  A    between atoms: C_2  and  C_4
REMARK    4  A    between atoms: C_8  and  C_9
REMARK    5  A    between atoms: C_9  and  O_11
REMARK    6  A    between atoms: C_12  and  S_13
REMARK    7  A    between atoms: S_13  and  C_14
REMARK    8  A    between atoms: C_17  and  C_18
REMARK    9  A    between atoms: C_18  and  N_19
REMARK   10  A    between atoms: N_19  and  S_20
REMARK   11  A    between atoms: S_20  and  N_21
REMARK   12  A    between atoms: C_25  and  C_26
REMARK                            x       y       z     vdW  Elec       q    Type
REMARK                         _______ _______ _______ _____ _____    ______ ____
ROOT
ATOM      1  C   UNL     1       4.762   5.188  17.538  0.00  0.00    +0.000 C 
ATOM      2  C   UNL     1       3.830   4.022  17.906  0.00  0.00    +0.000 C 
ATOM      3  O   UNL     1       3.274   3.089  17.366  0.00  0.00    +0.000 OA
ATOM      4  N   UNL     1       3.597   4.540  19.141  0.00  0.00    +0.000 N 
ATOM      5  C   UNL     1       2.343   4.789  19.666  0.00  0.00    +0.000 C 
ATOM      6  C   UNL     1       2.097   6.113  19.752  0.00  0.00    +0.000 C 
ATOM      7  C   UNL     1       3.181   6.901  19.042  0.00  0.00    +0.000 C 
ATOM      8  C   UNL     1       2.770   7.471  17.686  0.00  0.00    +0.000 C 
ATOM      9  C   UNL     1       4.272   5.832  18.874  0.00  0.00    +0.000 C 
ENDROOT
BRANCH   1  11
ATOM     10  C   UNL     1       6.993   6.269  17.388  0.00  0.00    +0.000 C 
ATOM     11  C   UNL     1       6.255   4.933  17.393  0.00  0.00    +0.000 C 
BRANCH  11  12
ATOM     12  O   UNL     1       6.779   4.106  18.430  0.00  0.00    +0.000 OA
ATOM     13  H   UNL     1       7.692   4.370  18.650  0.00  0.00    +0.000 HD
ENDBRANCH  11  12
ENDBRANCH   1  11
BRANCH   5  14
ATOM     14  C   UNL     1       1.535   3.660  20.222  0.00  0.00    +0.000 C 
ATOM     15  O   UNL     1       1.496   3.349  21.402  0.00  0.00    +0.000 OA
BRANCH  14  16
ATOM     16  O   UNL     1       0.814   2.999  19.288  0.00  0.00    +0.000 OA
ATOM     17  H   UNL     1       0.466   3.549  18.549  0.00  0.00    +0.000 HD
ENDBRANCH  14  16
ENDBRANCH   5  14
BRANCH   6  18
ATOM     18  S   UNL     1       1.053   6.848  20.909  0.00  0.00    +0.000 S 
BRANCH  18  19
ATOM     19  C   UNL     1       1.496   8.600  21.004  0.00  0.00    +0.000 C 
ATOM     20  C   UNL     1       1.001   9.156  22.344  0.00  0.00    +0.000 C 
ATOM     21  N   UNL     1       0.735  10.587  22.156  0.00  0.00    +0.000 NA
ATOM     22  C   UNL     1       0.509  10.794  20.706  0.00  0.00    +0.000 C 
ATOM     23  C   UNL     1       0.807   9.483  19.976  0.00  0.00    +0.000 C 
ATOM     24  H   UNL     1       1.557  11.130  22.433  0.00  0.00    +0.000 HD
BRANCH  22  25
ATOM     25  C   UNL     1      -0.919  11.330  20.455  0.00  0.00    +0.000 C 
BRANCH  25  26
ATOM     26  N   UNL     1      -1.058  11.806  19.038  0.00  0.00    +0.000 NA
ATOM     27  H   UNL     1      -0.200  11.519  18.558  0.00  0.00    +0.000 HD
BRANCH  26  28
ATOM     28  S   UNL     1      -2.398  11.228  18.221  0.00  0.00    +0.000 S 
ATOM     29  O   UNL     1      -2.212   9.820  17.989  0.00  0.00    +0.000 OA
ATOM     30  O   UNL     1      -3.586  11.799  18.801  0.00  0.00    +0.000 OA
BRANCH  28  31
ATOM     31  N   UNL     1      -2.101  11.987  16.778  0.00  0.00    +0.000 NA
ATOM     32  H   UNL     1      -1.435  11.504  16.184  0.00  0.00    +0.000 HD
ATOM     33  H   UNL     1      -2.017  12.994  16.866  0.00  0.00    +0.000 HD
ENDBRANCH  28  31
ENDBRANCH  26  28
ENDBRANCH  25  26
ENDBRANCH  22  25
ENDBRANCH  18  19
ENDBRANCH   6  18
TORSDOF 10
ENDMDL
MODEL 7
REMARK VINA RESULT:      -6.7      2.989      8.274
REMARK  Name = 
REMARK  12 active torsions:
REMARK  status: ('A' for Active; 'I' for Inactive)
REMARK    1  A    between atoms: C_1  and  C_2
REMARK    2  A    between atoms: C_2  and  O_3
REMARK    3  A    between atoms: C_2  and  C_4
REMARK    4  A    between atoms: C_8  and  C_9
REMARK    5  A    between atoms: C_9  and  O_11
REMARK    6  A    between atoms: C_12  and  S_13
REMARK    7  A    between atoms: S_13  and  C_14
REMARK    8  A    between atoms: C_17  and  C_18
REMARK    9  A    between atoms: C_18  and  N_19
REMARK   10  A    between atoms: N_19  and  S_20
REMARK   11  A    between atoms: S_20  and  N_21
REMARK   12  A    between atoms: C_25  and  C_26
REMARK                            x       y       z     vdW  Elec       q    Type
REMARK                         _______ _______ _______ _____ _____    ______ ____
ROOT
ATOM      1  C   UNL     1       4.885   4.485  18.156  0.00  0.00    +0.000 C 
ATOM      2  C   UNL     1       4.005   3.403  18.803  0.00  0.00    +0.000 C 
ATOM      3  O   UNL     1       3.504   2.337  18.515  0.00  0.00    +0.000 OA
ATOM      4  N   UNL     1       3.725   4.204  19.866  0.00  0.00    +0.000 N 
ATOM      5  C   UNL     1       2.451   4.512  20.305  0.00  0.00    +0.000 C 
ATOM      6  C   UNL     1       2.139   5.801  20.051  0.00  0.00    +0.000 C 
ATOM      7  C   UNL     1       3.195   6.439  19.170  0.00  0.00    +0.000 C 
ATOM      8  C   UNL     1       2.781   6.624  17.711  0.00  0.00    +0.000 C 
ATOM      9  C   UNL     1       4.340   5.419  19.283  0.00  0.00    +0.000 C 
ENDROOT
BRANCH   1  11
ATOM     10  C   UNL     1       6.917   4.863  16.778  0.00  0.00    +0.000 C 
ATOM     11  C   UNL     1       6.390   4.279  18.087  0.00  0.00    +0.000 C 
BRANCH  11  12
ATOM     12  O   UNL     1       7.081   4.875  19.184  0.00  0.00    +0.000 OA
ATOM     13  H   UNL     1       6.448   5.214  19.844  0.00  0.00    +0.000 HD
ENDBRANCH  11  12
ENDBRANCH   1  11
BRANCH   5  14
ATOM     14  C   UNL     1       1.690   3.520  21.125  0.00  0.00    +0.000 C 
ATOM     15  O   UNL     1       2.052   3.092  22.210  0.00  0.00    +0.000 OA
BRANCH  14  16
ATOM     16  O   UNL     1       0.522   3.134  20.562  0.00  0.00    +0.000 OA
ATOM     17  H   UNL     1       0.551   2.967  19.592  0.00  0.00    +0.000 HD
ENDBRANCH  14  16
ENDBRANCH   5  14
BRANCH   6  18
ATOM     18  S   UNL     1       1.040   6.749  20.979  0.00  0.00    +0.000 S 
BRANCH  18  19
ATOM     19  C   UNL     1       1.599   8.468  20.892  0.00  0.00    +0.000 C 
ATOM     20  C   UNL     1       1.099   9.206  22.139  0.00  0.00    +0.000 C 
ATOM     21  N   UNL     1       0.939  10.620  21.778  0.00  0.00    +0.000 NA
ATOM     22  C   UNL     1       0.778  10.671  20.306  0.00  0.00    +0.000 C 
ATOM     23  C   UNL     1       1.009   9.268  19.743  0.00  0.00    +0.000 C 
ATOM     24  H   UNL     1       1.787  11.137  22.026  0.00  0.00    +0.000 HD
BRANCH  22  25
ATOM     25  C   UNL     1      -0.601  11.266  19.936  0.00  0.00    +0.000 C 
BRANCH  25  26
ATOM     26  N   UNL     1      -0.608  12.750  20.162  0.00  0.00    +0.000 NA
ATOM     27  H   UNL     1       0.023  12.919  20.951  0.00  0.00    +0.000 HD
BRANCH  26  28
ATOM     28  S   UNL     1      -0.147  13.672  18.846  0.00  0.00    +0.000 S 
ATOM     29  O   UNL     1      -0.763  14.967  18.964  0.00  0.00    +0.000 OA
ATOM     30  O   UNL     1       1.257  13.467  18.596  0.00  0.00    +0.000 OA
BRANCH  28  31
ATOM     31  N   UNL     1      -1.010  12.841  17.701  0.00  0.00    +0.000 NA
ATOM     32  H   UNL     1      -1.773  12.287  18.077  0.00  0.00    +0.000 HD
ATOM     33  H   UNL     1      -0.426  12.422  16.985  0.00  0.00    +0.000 HD
ENDBRANCH  28  31
ENDBRANCH  26  28
ENDBRANCH  25  26
ENDBRANCH  22  25
ENDBRANCH  18  19
ENDBRANCH   6  18
TORSDOF 10
ENDMDL
MODEL 8
REMARK VINA RESULT:      -6.7      2.730      8.601
REMARK  Name = 
REMARK  12 active torsions:
REMARK  status: ('A' for Active; 'I' for Inactive)
REMARK    1  A    between atoms: C_1  and  C_2
REMARK    2  A    between atoms: C_2  and  O_3
REMARK    3  A    between atoms: C_2  and  C_4
REMARK    4  A    between atoms: C_8  and  C_9
REMARK    5  A    between atoms: C_9  and  O_11
REMARK    6  A    between atoms: C_12  and  S_13
REMARK    7  A    between atoms: S_13  and  C_14
REMARK    8  A    between atoms: C_17  and  C_18
REMARK    9  A    between atoms: C_18  and  N_19
REMARK   10  A    between atoms: N_19  and  S_20
REMARK   11  A    between atoms: S_20  and  N_21
REMARK   12  A    between atoms: C_25  and  C_26
REMARK                            x       y       z     vdW  Elec       q    Type
REMARK                         _______ _______ _______ _____ _____    ______ ____
ROOT
ATOM      1  C   UNL     1       3.947   3.560  19.647  0.00  0.00    +0.000 C 
ATOM      2  C   UNL     1       5.123   4.327  19.020  0.00  0.00    +0.000 C 
ATOM      3  O   UNL     1       6.277   4.600  19.273  0.00  0.00    +0.000 OA
ATOM      4  N   UNL     1       4.318   4.876  18.072  0.00  0.00    +0.000 N 
ATOM      5  C   UNL     1       4.210   6.230  17.819  0.00  0.00    +0.000 C 
ATOM      6  C   UNL     1       3.016   6.716  18.220  0.00  0.00    +0.000 C 
ATOM      7  C   UNL     1       2.260   5.672  19.019  0.00  0.00    +0.000 C 
ATOM      8  C   UNL     1       2.245   5.912  20.527  0.00  0.00    +0.000 C 
ATOM      9  C   UNL     1       3.053   4.399  18.679  0.00  0.00    +0.000 C 
ENDROOT
BRANCH   1  11
ATOM     10  C   UNL     1       3.446   1.682  18.100  0.00  0.00    +0.000 C 
ATOM     11  C   UNL     1       3.889   2.046  19.515  0.00  0.00    +0.000 C 
BRANCH  11  12
ATOM     12  O   UNL     1       5.137   1.417  19.797  0.00  0.00    +0.000 OA
ATOM     13  H   UNL     1       5.087   0.460  19.614  0.00  0.00    +0.000 HD
ENDBRANCH  11  12
ENDBRANCH   1  11
BRANCH   5  14
ATOM     14  C   UNL     1       5.266   6.919  17.014  0.00  0.00    +0.000 C 
ATOM     15  O   UNL     1       6.225   7.508  17.487  0.00  0.00    +0.000 OA
BRANCH  14  16
ATOM     16  O   UNL     1       5.079   6.821  15.679  0.00  0.00    +0.000 OA
ATOM     17  H   UNL     1       5.545   7.493  15.131  0.00  0.00    +0.000 HD
ENDBRANCH  14  16
ENDBRANCH   5  14
BRANCH   6  18
ATOM     18  S   UNL     1       2.218   8.071  17.517  0.00  0.00    +0.000 S 
BRANCH  18  19
ATOM     19  C   UNL     1       2.199   9.391  18.756  0.00  0.00    +0.000 C 
ATOM     20  C   UNL     1       1.001   9.168  19.686  0.00  0.00    +0.000 C 
ATOM     21  N   UNL     1       0.590  10.482  20.195  0.00  0.00    +0.000 NA
ATOM     22  C   UNL     1       1.085  11.490  19.229  0.00  0.00    +0.000 C 
ATOM     23  C   UNL     1       1.959  10.783  18.193  0.00  0.00    +0.000 C 
ATOM     24  H   UNL     1       1.037  10.658  21.098  0.00  0.00    +0.000 HD
BRANCH  22  25
ATOM     25  C   UNL     1      -0.099  12.269  18.609  0.00  0.00    +0.000 C 
BRANCH  25  26
ATOM     26  N   UNL     1      -1.392  11.847  19.243  0.00  0.00    +0.000 NA
ATOM     27  H   UNL     1      -1.756  12.675  19.724  0.00  0.00    +0.000 HD
BRANCH  26  28
ATOM     28  S   UNL     1      -2.539  11.244  18.187  0.00  0.00    +0.000 S 
ATOM     29  O   UNL     1      -2.310   9.832  18.030  0.00  0.00    +0.000 OA
ATOM     30  O   UNL     1      -3.820  11.822  18.502  0.00  0.00    +0.000 OA
BRANCH  28  31
ATOM     31  N   UNL     1      -1.958  11.972  16.816  0.00  0.00    +0.000 NA
ATOM     32  H   UNL     1      -1.023  12.356  16.915  0.00  0.00    +0.000 HD
ATOM     33  H   UNL     1      -2.654  12.531  16.334  0.00  0.00    +0.000 HD
ENDBRANCH  28  31
ENDBRANCH  26  28
ENDBRANCH  25  26
ENDBRANCH  22  25
ENDBRANCH  18  19
ENDBRANCH   6  18
TORSDOF 10
ENDMDL
MODEL 9
REMARK VINA RESULT:      -6.7      1.075      1.226
REMARK  Name = 
REMARK  12 active torsions:
REMARK  status: ('A' for Active; 'I' for Inactive)
REMARK    1  A    between atoms: C_1  and  C_2
REMARK    2  A    between atoms: C_2  and  O_3
REMARK    3  A    between atoms: C_2  and  C_4
REMARK    4  A    between atoms: C_8  and  C_9
REMARK    5  A    between atoms: C_9  and  O_11
REMARK    6  A    between atoms: C_12  and  S_13
REMARK    7  A    between atoms: S_13  and  C_14
REMARK    8  A    between atoms: C_17  and  C_18
REMARK    9  A    between atoms: C_18  and  N_19
REMARK   10  A    between atoms: N_19  and  S_20
REMARK   11  A    between atoms: S_20  and  N_21
REMARK   12  A    between atoms: C_25  and  C_26
REMARK                            x       y       z     vdW  Elec       q    Type
REMARK                         _______ _______ _______ _____ _____    ______ ____
ROOT
ATOM      1  C   UNL     1       0.339  11.876  18.996  0.00  0.00    +0.000 C 
ATOM      2  C   UNL     1       0.758  11.883  20.474  0.00  0.00    +0.000 C 
ATOM      3  O   UNL     1       1.396  12.572  21.242  0.00  0.00    +0.000 OA
ATOM      4  N   UNL     1       0.335  10.602  20.647  0.00  0.00    +0.000 N 
ATOM      5  C   UNL     1       1.112   9.579  21.156  0.00  0.00    +0.000 C 
ATOM      6  C   UNL     1       1.436   8.681  20.201  0.00  0.00    +0.000 C 
ATOM      7  C   UNL     1       1.032   9.194  18.832  0.00  0.00    +0.000 C 
ATOM      8  C   UNL     1       2.190   9.701  17.975  0.00  0.00    +0.000 C 
ATOM      9  C   UNL     1       0.089  10.349  19.208  0.00  0.00    +0.000 C 
ENDROOT
BRANCH   1  11
ATOM     10  C   UNL     1      -0.470  14.198  18.645  0.00  0.00    +0.000 C 
ATOM     11  C   UNL     1      -0.845  12.722  18.551  0.00  0.00    +0.000 C 
BRANCH  11  12
ATOM     12  O   UNL     1      -1.270  12.424  17.222  0.00  0.00    +0.000 OA
ATOM     13  H   UNL     1      -2.170  12.049  17.227  0.00  0.00    +0.000 HD
ENDBRANCH  11  12
ENDBRANCH   1  11
BRANCH   5  14
ATOM     14  C   UNL     1       1.330   9.479  22.632  0.00  0.00    +0.000 C 
ATOM     15  O   UNL     1       0.450   9.581  23.472  0.00  0.00    +0.000 OA
BRANCH  14  16
ATOM     16  O   UNL     1       2.616   9.240  22.974  0.00  0.00    +0.000 OA
ATOM     17  H   UNL     1       2.938   8.323  22.812  0.00  0.00    +0.000 HD
ENDBRANCH  14  16
ENDBRANCH   5  14
BRANCH   6  18
ATOM     18  S   UNL     1       1.753   7.012  20.485  0.00  0.00    +0.000 S 
BRANCH  18  19
ATOM     19  C   UNL     1       1.874   6.200  18.872  0.00  0.00    +0.000 C 
ATOM     20  C   UNL     1       1.588   4.705  19.057  0.00  0.00    +0.000 C 
ATOM     21  N   UNL     1       2.313   3.986  18.003  0.00  0.00    +0.000 NA
ATOM     22  C   UNL     1       3.419   4.868  17.564  0.00  0.00    +0.000 C 
ATOM     23  C   UNL     1       3.263   6.224  18.255  0.00  0.00    +0.000 C 
ATOM     24  H   UNL     1       1.693   3.828  17.205  0.00  0.00    +0.000 HD
BRANCH  22  25
ATOM     25  C   UNL     1       4.784   4.193  17.830  0.00  0.00    +0.000 C 
BRANCH  25  26
ATOM     26  N   UNL     1       5.895   5.002  17.227  0.00  0.00    +0.000 NA
ATOM     27  H   UNL     1       5.518   5.945  17.095  0.00  0.00    +0.000 HD
BRANCH  26  28
ATOM     28  S   UNL     1       7.302   5.063  18.128  0.00  0.00    +0.000 S 
ATOM     29  O   UNL     1       6.947   5.020  19.522  0.00  0.00    +0.000 OA
ATOM     30  O   UNL     1       8.288   4.207  17.520  0.00  0.00    +0.000 OA
BRANCH  28  31
ATOM     31  N   UNL     1       7.694   6.637  17.789  0.00  0.00    +0.000 NA
ATOM     32  H   UNL     1       8.233   7.097  18.516  0.00  0.00    +0.000 HD
ATOM     33  H   UNL     1       6.934   7.156  17.361  0.00  0.00    +0.000 HD
ENDBRANCH  28  31
ENDBRANCH  26  28
ENDBRANCH  25  26
ENDBRANCH  22  25
ENDBRANCH  18  19
ENDBRANCH   6  18
TORSDOF 10
ENDMDL
