MODEL 1
REMARK VINA RESULT:      -6.6      0.000      0.000
REMARK  Name = 
REMARK  8 active torsions:
REMARK  status: ('A' for Active; 'I' for Inactive)
REMARK    1  A    between atoms: C_1  and  O_2
REMARK    2  A    between atoms: O_2  and  C_3
REMARK    3  A    between atoms: C_6  and  N_7
REMARK    4  A    between atoms: C_8  and  C_10
REMARK    5  A    between atoms: C_10  and  N_11
REMARK    6  A    between atoms: N_11  and  C_12
REMARK    7  A    between atoms: N_11  and  C_13
REMARK    8  A    between atoms: C_19  and  N_20
REMARK                            x       y       z     vdW  Elec       q    Type
REMARK                         _______ _______ _______ _____ _____    ______ ____
ROOT
ATOM      1  N   UNL     1       4.636   5.355  17.781  0.00  0.00    +0.000 N 
ATOM      2  C   UNL     1       3.830   6.435  18.100  0.00  0.00    +0.000 C 
ATOM      3  O   UNL     1       3.564   7.382  17.365  0.00  0.00    +0.000 OA
ATOM      4  H   UNL     1       4.631   4.585  18.460  0.00  0.00    +0.000 HD
ENDROOT
BRANCH   1   8
ATOM      5  C   UNL     1       6.783   4.665  14.188  0.00  0.00    +0.000 A 
ATOM      6  C   UNL     1       5.464   4.268  14.320  0.00  0.00    +0.000 A 
ATOM      7  C   UNL     1       4.772   4.528  15.506  0.00  0.00    +0.000 A 
ATOM      8  C   UNL     1       5.368   5.191  16.578  0.00  0.00    +0.000 A 
ATOM      9  C   UNL     1       6.676   5.664  16.400  0.00  0.00    +0.000 A 
ATOM     10  C   UNL     1       7.400   5.351  15.227  0.00  0.00    +0.000 A 
BRANCH   9  11
ATOM     11  N   UNL     1       7.347   6.530  17.381  0.00  0.00    +0.000 N 
ATOM     12  O   UNL     1       7.654   7.680  17.032  0.00  0.00    +0.000 OA
ATOM     13  O   UNL     1       7.608   6.053  18.495  0.00  0.00    +0.000 OA
ENDBRANCH   9  11
BRANCH   5  15
ATOM     14  C   UNL     1       6.600   3.504  12.145  0.00  0.00    +0.000 C 
ATOM     15  O   UNL     1       7.371   4.345  12.992  0.00  0.00    +0.000 OA
ENDBRANCH   5  15
ENDBRANCH   1   8
BRANCH   2  16
ATOM     16  C   UNL     1       3.151   6.332  19.458  0.00  0.00    +0.000 C 
BRANCH  16  17
ATOM     17  N   UNL     1       2.774   4.939  19.841  0.00  0.00    +0.000 NA
ATOM     18  C   UNL     1       2.756   4.818  21.312  0.00  0.00    +0.000 C 
BRANCH  17  19
ATOM     19  C   UNL     1       1.440   4.613  19.251  0.00  0.00    +0.000 C 
ATOM     20  C   UNL     1       1.536   4.098  17.794  0.00  0.00    +0.000 C 
ATOM     21  C   UNL     1       2.275   2.765  17.702  0.00  0.00    +0.000 C 
ATOM     22  C   UNL     1       1.627   1.692  18.573  0.00  0.00    +0.000 C 
ATOM     23  C   UNL     1       1.268   2.154  19.983  0.00  0.00    +0.000 C 
ATOM     24  C   UNL     1       0.646   3.548  20.037  0.00  0.00    +0.000 C 
ENDBRANCH  17  19
ENDBRANCH  16  17
ENDBRANCH   2  16
TORSDOF 6
ENDMDL
MODEL 2
REMARK VINA RESULT:      -6.5      3.446      7.363
REMARK  Name = 
REMARK  8 active torsions:
REMARK  status: ('A' for Active; 'I' for Inactive)
REMARK    1  A    between atoms: C_1  and  O_2
REMARK    2  A    between atoms: O_2  and  C_3
REMARK    3  A    between atoms: C_6  and  N_7
REMARK    4  A    between atoms: C_8  and  C_10
REMARK    5  A    between atoms: C_10  and  N_11
REMARK    6  A    between atoms: N_11  and  C_12
REMARK    7  A    between atoms: N_11  and  C_13
REMARK    8  A    between atoms: C_19  and  N_20
REMARK                            x       y       z     vdW  Elec       q    Type
REMARK                         _______ _______ _______ _____ _____    ______ ____
ROOT
ATOM      1  N   UNL     1       2.707   7.016  18.913  0.00  0.00    +0.000 N 
ATOM      2  C   UNL     1       2.492   5.660  18.733  0.00  0.00    +0.000 C 
ATOM      3  O   UNL     1       1.539   5.015  19.159  0.00  0.00    +0.000 OA
ATOM      4  H   UNL     1       3.476   7.419  18.365  0.00  0.00    +0.000 HD
ENDROOT
BRANCH   1   8
ATOM      5  C   UNL     1       0.188   9.467  21.290  0.00  0.00    +0.000 A 
ATOM      6  C   UNL     1       0.658   8.254  21.762  0.00  0.00    +0.000 A 
ATOM      7  C   UNL     1       1.505   7.476  20.968  0.00  0.00    +0.000 A 
ATOM      8  C   UNL     1       1.910   7.887  19.698  0.00  0.00    +0.000 A 
ATOM      9  C   UNL     1       1.497   9.155  19.267  0.00  0.00    +0.000 A 
ATOM     10  C   UNL     1       0.593   9.919  20.039  0.00  0.00    +0.000 A 
BRANCH   9  11
ATOM     11  N   UNL     1       2.001   9.777  18.032  0.00  0.00    +0.000 N 
ATOM     12  O   UNL     1       2.170  11.005  18.022  0.00  0.00    +0.000 OA
ATOM     13  O   UNL     1       2.193   9.044  17.050  0.00  0.00    +0.000 OA
ENDBRANCH   9  11
BRANCH   5  15
ATOM     14  C   UNL     1      -0.662  11.552  21.988  0.00  0.00    +0.000 C 
ATOM     15  O   UNL     1      -0.649  10.139  22.141  0.00  0.00    +0.000 OA
ENDBRANCH   5  15
ENDBRANCH   1   8
BRANCH   2  16
ATOM     16  C   UNL     1       3.503   4.981  17.820  0.00  0.00    +0.000 C 
BRANCH  16  17
ATOM     17  N   UNL     1       4.844   4.783  18.445  0.00  0.00    +0.000 NA
ATOM     18  C   UNL     1       4.832   3.554  19.263  0.00  0.00    +0.000 C 
BRANCH  17  19
ATOM     19  C   UNL     1       5.880   4.712  17.371  0.00  0.00    +0.000 C 
ATOM     20  C   UNL     1       5.824   5.917  16.400  0.00  0.00    +0.000 C 
ATOM     21  C   UNL     1       6.158   7.234  17.096  0.00  0.00    +0.000 C 
ATOM     22  C   UNL     1       7.527   7.193  17.768  0.00  0.00    +0.000 C 
ATOM     23  C   UNL     1       7.797   5.928  18.580  0.00  0.00    +0.000 C 
ATOM     24  C   UNL     1       7.330   4.645  17.896  0.00  0.00    +0.000 C 
ENDBRANCH  17  19
ENDBRANCH  16  17
ENDBRANCH   2  16
TORSDOF 6
ENDMDL
MODEL 3
REMARK VINA RESULT:      -6.4      0.938      1.150
REMARK  Name = 
REMARK  8 active torsions:
REMARK  status: ('A' for Active; 'I' for Inactive)
REMARK    1  A    between atoms: C_1  and  O_2
REMARK    2  A    between atoms: O_2  and  C_3
REMARK    3  A    between atoms: C_6  and  N_7
REMARK    4  A    between atoms: C_8  and  C_10
REMARK    5  A    between atoms: C_10  and  N_11
REMARK    6  A    between atoms: N_11  and  C_12
REMARK    7  A    between atoms: N_11  and  C_13
REMARK    8  A    between atoms: C_19  and  N_20
REMARK                            x       y       z     vdW  Elec       q    Type
REMARK                         _______ _______ _______ _____ _____    ______ ____
ROOT
ATOM      1  N   UNL     1       4.438   5.569  18.215  0.00  0.00    +0.000 N 
ATOM      2  C   UNL     1       3.492   6.552  18.456  0.00  0.00    +0.000 C 
ATOM      3  O   UNL     1       3.274   7.534  17.752  0.00  0.00    +0.000 OA
ATOM      4  H   UNL     1       4.385   4.746  18.827  0.00  0.00    +0.000 HD
ENDROOT
BRANCH   1   8
ATOM      5  C   UNL     1       7.181   5.390  14.984  0.00  0.00    +0.000 A 
ATOM      6  C   UNL     1       5.815   5.360  14.765  0.00  0.00    +0.000 A 
ATOM      7  C   UNL     1       4.932   5.444  15.846  0.00  0.00    +0.000 A 
ATOM      8  C   UNL     1       5.383   5.567  17.159  0.00  0.00    +0.000 A 
ATOM      9  C   UNL     1       6.766   5.684  17.360  0.00  0.00    +0.000 A 
ATOM     10  C   UNL     1       7.665   5.539  16.279  0.00  0.00    +0.000 A 
BRANCH   9  11
ATOM     11  N   UNL     1       7.354   5.998  18.671  0.00  0.00    +0.000 N 
ATOM     12  O   UNL     1       6.964   5.356  19.656  0.00  0.00    +0.000 OA
ATOM     13  O   UNL     1       8.183   6.919  18.730  0.00  0.00    +0.000 OA
ENDBRANCH   9  11
BRANCH   5  15
ATOM     14  C   UNL     1       7.321   4.666  12.746  0.00  0.00    +0.000 C 
ATOM     15  O   UNL     1       7.955   5.283  13.858  0.00  0.00    +0.000 OA
ENDBRANCH   5  15
ENDBRANCH   1   8
BRANCH   2  16
ATOM     16  C   UNL     1       2.596   6.280  19.656  0.00  0.00    +0.000 C 
BRANCH  16  17
ATOM     17  N   UNL     1       2.427   4.830  19.967  0.00  0.00    +0.000 NA
ATOM     18  C   UNL     1       2.295   4.650  21.427  0.00  0.00    +0.000 C 
BRANCH  17  19
ATOM     19  C   UNL     1       1.228   4.310  19.243  0.00  0.00    +0.000 C 
ATOM     20  C   UNL     1       1.452   4.188  17.717  0.00  0.00    +0.000 C 
ATOM     21  C   UNL     1       2.522   3.154  17.373  0.00  0.00    +0.000 C 
ATOM     22  C   UNL     1       2.190   1.779  17.943  0.00  0.00    +0.000 C 
ATOM     23  C   UNL     1       1.726   1.792  19.398  0.00  0.00    +0.000 C 
ATOM     24  C   UNL     1       0.753   2.923  19.725  0.00  0.00    +0.000 C 
ENDBRANCH  17  19
ENDBRANCH  16  17
ENDBRANCH   2  16
TORSDOF 6
ENDMDL
MODEL 4
REMARK VINA RESULT:      -6.3      4.275      7.253
REMARK  Name = 
REMARK  8 active torsions:
REMARK  status: ('A' for Active; 'I' for Inactive)
REMARK    1  A    between atoms: C_1  and  O_2
REMARK    2  A    between atoms: O_2  and  C_3
REMARK    3  A    between atoms: C_6  and  N_7
REMARK    4  A    between atoms: C_8  and  C_10
REMARK    5  A    between atoms: C_10  and  N_11
REMARK    6  A    between atoms: N_11  and  C_12
REMARK    7  A    between atoms: N_11  and  C_13
REMARK    8  A    between atoms: C_19  and  N_20
REMARK                            x       y       z     vdW  Elec       q    Type
REMARK                         _______ _______ _______ _____ _____    ______ ____
ROOT
ATOM      1  N   UNL     1       1.870   7.900  20.480  0.00  0.00    +0.000 N 
ATOM      2  C   UNL     1       2.341   6.944  19.596  0.00  0.00    +0.000 C 
ATOM      3  O   UNL     1       2.249   6.983  18.372  0.00  0.00    +0.000 OA
ATOM      4  H   UNL     1       2.162   7.780  21.457  0.00  0.00    +0.000 HD
ENDROOT
BRANCH   1   8
ATOM      5  C   UNL     1      -0.202  11.434  19.376  0.00  0.00    +0.000 A 
ATOM      6  C   UNL     1       0.547  10.725  18.453  0.00  0.00    +0.000 A 
ATOM      7  C   UNL     1       1.201   9.552  18.837  0.00  0.00    +0.000 A 
ATOM      8  C   UNL     1       1.120   9.053  20.136  0.00  0.00    +0.000 A 
ATOM      9  C   UNL     1       0.290   9.732  21.039  0.00  0.00    +0.000 A 
ATOM     10  C   UNL     1      -0.324  10.951  20.674  0.00  0.00    +0.000 A 
BRANCH   9  11
ATOM     11  N   UNL     1      -0.022   9.210  22.378  0.00  0.00    +0.000 N 
ATOM     12  O   UNL     1      -0.760   8.218  22.462  0.00  0.00    +0.000 OA
ATOM     13  O   UNL     1       0.440   9.813  23.359  0.00  0.00    +0.000 OA
ENDBRANCH   9  11
BRANCH   5  15
ATOM     14  C   UNL     1       0.115  13.633  18.589  0.00  0.00    +0.000 C 
ATOM     15  O   UNL     1      -0.785  12.579  18.899  0.00  0.00    +0.000 OA
ENDBRANCH   5  15
ENDBRANCH   1   8
BRANCH   2  16
ATOM     16  C   UNL     1       3.133   5.821  20.249  0.00  0.00    +0.000 C 
BRANCH  16  17
ATOM     17  N   UNL     1       3.543   4.741  19.304  0.00  0.00    +0.000 NA
ATOM     18  C   UNL     1       4.947   4.948  18.895  0.00  0.00    +0.000 C 
BRANCH  17  19
ATOM     19  C   UNL     1       3.358   3.414  19.965  0.00  0.00    +0.000 C 
ATOM     20  C   UNL     1       2.015   3.303  20.728  0.00  0.00    +0.000 C 
ATOM     21  C   UNL     1       0.813   3.377  19.791  0.00  0.00    +0.000 C 
ATOM     22  C   UNL     1       0.866   2.303  18.709  0.00  0.00    +0.000 C 
ATOM     23  C   UNL     1       2.226   2.155  18.030  0.00  0.00    +0.000 C 
ATOM     24  C   UNL     1       3.407   2.214  18.997  0.00  0.00    +0.000 C 
ENDBRANCH  17  19
ENDBRANCH  16  17
ENDBRANCH   2  16
TORSDOF 6
ENDMDL
MODEL 5
REMARK VINA RESULT:      -6.3      2.634      4.254
REMARK  Name = 
REMARK  8 active torsions:
REMARK  status: ('A' for Active; 'I' for Inactive)
REMARK    1  A    between atoms: C_1  and  O_2
REMARK    2  A    between atoms: O_2  and  C_3
REMARK    3  A    between atoms: C_6  and  N_7
REMARK    4  A    between atoms: C_8  and  C_10
REMARK    5  A    between atoms: C_10  and  N_11
REMARK    6  A    between atoms: N_11  and  C_12
REMARK    7  A    between atoms: N_11  and  C_13
REMARK    8  A    between atoms: C_19  and  N_20
REMARK                            x       y       z     vdW  Elec       q    Type
REMARK                         _______ _______ _______ _____ _____    ______ ____
ROOT
ATOM      1  N   UNL     1       6.343   4.520  18.593  0.00  0.00    +0.000 N 
ATOM      2  C   UNL     1       5.153   4.349  19.280  0.00  0.00    +0.000 C 
ATOM      3  O   UNL     1       4.406   5.242  19.668  0.00  0.00    +0.000 OA
ATOM      4  H   UNL     1       6.764   3.662  18.217  0.00  0.00    +0.000 HD
ENDROOT
BRANCH   1   8
ATOM      5  C   UNL     1       8.131   8.300  17.876  0.00  0.00    +0.000 A 
ATOM      6  C   UNL     1       8.507   7.525  18.959  0.00  0.00    +0.000 A 
ATOM      7  C   UNL     1       7.919   6.273  19.159  0.00  0.00    +0.000 A 
ATOM      8  C   UNL     1       6.956   5.762  18.290  0.00  0.00    +0.000 A 
ATOM      9  C   UNL     1       6.647   6.519  17.151  0.00  0.00    +0.000 A 
ATOM     10  C   UNL     1       7.192   7.811  16.975  0.00  0.00    +0.000 A 
BRANCH   9  11
ATOM     11  N   UNL     1       5.787   6.012  16.070  0.00  0.00    +0.000 N 
ATOM     12  O   UNL     1       5.860   4.809  15.780  0.00  0.00    +0.000 OA
ATOM     13  O   UNL     1       5.060   6.823  15.477  0.00  0.00    +0.000 OA
ENDBRANCH   9  11
BRANCH   5  15
ATOM     14  C   UNL     1       9.127  10.101  19.025  0.00  0.00    +0.000 C 
ATOM     15  O   UNL     1       8.756   9.516  17.784  0.00  0.00    +0.000 OA
ENDBRANCH   5  15
ENDBRANCH   1   8
BRANCH   2  16
ATOM     16  C   UNL     1       4.727   2.896  19.443  0.00  0.00    +0.000 C 
BRANCH  16  17
ATOM     17  N   UNL     1       3.442   2.564  18.762  0.00  0.00    +0.000 NA
ATOM     18  C   UNL     1       3.705   1.663  17.621  0.00  0.00    +0.000 C 
BRANCH  17  19
ATOM     19  C   UNL     1       2.512   1.935  19.748  0.00  0.00    +0.000 C 
ATOM     20  C   UNL     1       2.550   2.623  21.134  0.00  0.00    +0.000 C 
ATOM     21  C   UNL     1       2.048   4.063  21.076  0.00  0.00    +0.000 C 
ATOM     22  C   UNL     1       0.634   4.152  20.510  0.00  0.00    +0.000 C 
ATOM     23  C   UNL     1       0.403   3.320  19.251  0.00  0.00    +0.000 C 
ATOM     24  C   UNL     1       1.034   1.929  19.306  0.00  0.00    +0.000 C 
ENDBRANCH  17  19
ENDBRANCH  16  17
ENDBRANCH   2  16
TORSDOF 6
ENDMDL
MODEL 6
REMARK VINA RESULT:      -6.3      3.476      7.347
REMARK  Name = 
REMARK  8 active torsions:
REMARK  status: ('A' for Active; 'I' for Inactive)
REMARK    1  A    between atoms: C_1  and  O_2
REMARK    2  A    between atoms: O_2  and  C_3
REMARK    3  A    between atoms: C_6  and  N_7
REMARK    4  A    between atoms: C_8  and  C_10
REMARK    5  A    between atoms: C_10  and  N_11
REMARK    6  A    between atoms: N_11  and  C_12
REMARK    7  A    between atoms: N_11  and  C_13
REMARK    8  A    between atoms: C_19  and  N_20
REMARK                            x       y       z     vdW  Elec       q    Type
REMARK                         _______ _______ _______ _____ _____    ______ ____
ROOT
ATOM      1  N   UNL     1       2.690   6.977  20.167  0.00  0.00    +0.000 N 
ATOM      2  C   UNL     1       2.377   5.628  20.178  0.00  0.00    +0.000 C 
ATOM      3  O   UNL     1       1.262   5.145  20.354  0.00  0.00    +0.000 OA
ATOM      4  H   UNL     1       3.642   7.207  19.860  0.00  0.00    +0.000 HD
ENDROOT
BRANCH   1   8
ATOM      5  C   UNL     1      -0.118  10.023  21.081  0.00  0.00    +0.000 A 
ATOM      6  C   UNL     1       0.375   9.185  22.066  0.00  0.00    +0.000 A 
ATOM      7  C   UNL     1       1.316   8.205  21.743  0.00  0.00    +0.000 A 
ATOM      8  C   UNL     1       1.794   8.040  20.443  0.00  0.00    +0.000 A 
ATOM      9  C   UNL     1       1.353   8.950  19.472  0.00  0.00    +0.000 A 
ATOM     10  C   UNL     1       0.356   9.904  19.780  0.00  0.00    +0.000 A 
BRANCH   9  11
ATOM     11  N   UNL     1       1.915   8.997  18.114  0.00  0.00    +0.000 N 
ATOM     12  O   UNL     1       2.210  10.104  17.641  0.00  0.00    +0.000 OA
ATOM     13  O   UNL     1       2.030   7.928  17.495  0.00  0.00    +0.000 OA
ENDBRANCH   9  11
BRANCH   5  15
ATOM     14  C   UNL     1      -1.190  11.047  22.914  0.00  0.00    +0.000 C 
ATOM     15  O   UNL     1      -1.049  10.936  21.504  0.00  0.00    +0.000 OA
ENDBRANCH   5  15
ENDBRANCH   1   8
BRANCH   2  16
ATOM     16  C   UNL     1       3.540   4.712  19.824  0.00  0.00    +0.000 C 
BRANCH  16  17
ATOM     17  N   UNL     1       3.789   4.591  18.358  0.00  0.00    +0.000 NA
ATOM     18  C   UNL     1       2.500   4.510  17.641  0.00  0.00    +0.000 C 
BRANCH  17  19
ATOM     19  C   UNL     1       4.594   5.763  17.899  0.00  0.00    +0.000 C 
ATOM     20  C   UNL     1       6.006   5.808  18.531  0.00  0.00    +0.000 C 
ATOM     21  C   UNL     1       6.868   4.625  18.100  0.00  0.00    +0.000 C 
ATOM     22  C   UNL     1       7.000   4.538  16.583  0.00  0.00    +0.000 C 
ATOM     23  C   UNL     1       5.688   4.712  15.822  0.00  0.00    +0.000 C 
ATOM     24  C   UNL     1       4.800   5.828  16.371  0.00  0.00    +0.000 C 
ENDBRANCH  17  19
ENDBRANCH  16  17
ENDBRANCH   2  16
TORSDOF 6
ENDMDL
MODEL 7
REMARK VINA RESULT:      -6.3      4.476      6.411
REMARK  Name = 
REMARK  8 active torsions:
REMARK  status: ('A' for Active; 'I' for Inactive)
REMARK    1  A    between atoms: C_1  and  O_2
REMARK    2  A    between atoms: O_2  and  C_3
REMARK    3  A    between atoms: C_6  and  N_7
REMARK    4  A    between atoms: C_8  and  C_10
REMARK    5  A    between atoms: C_10  and  N_11
REMARK    6  A    between atoms: N_11  and  C_12
REMARK    7  A    between atoms: N_11  and  C_13
REMARK    8  A    between atoms: C_19  and  N_20
REMARK                            x       y       z     vdW  Elec       q    Type
REMARK                         _______ _______ _______ _____ _____    ______ ____
ROOT
ATOM      1  N   UNL     1       2.443   7.301  18.735  0.00  0.00    +0.000 N 
ATOM      2  C   UNL     1       2.033   8.552  18.305  0.00  0.00    +0.000 C 
ATOM      3  O   UNL     1       2.260   9.051  17.207  0.00  0.00    +0.000 OA
ATOM      4  H   UNL     1       2.041   6.985  19.625  0.00  0.00    +0.000 HD
ENDROOT
BRANCH   1   8
ATOM      5  C   UNL     1       4.938   4.761  16.427  0.00  0.00    +0.000 A 
ATOM      6  C   UNL     1       5.310   6.064  16.712  0.00  0.00    +0.000 A 
ATOM      7  C   UNL     1       4.481   6.872  17.494  0.00  0.00    +0.000 A 
ATOM      8  C   UNL     1       3.274   6.407  18.014  0.00  0.00    +0.000 A 
ATOM      9  C   UNL     1       2.950   5.061  17.791  0.00  0.00    +0.000 A 
ATOM     10  C   UNL     1       3.753   4.257  16.952  0.00  0.00    +0.000 A 
BRANCH   9  11
ATOM     11  N   UNL     1       1.802   4.404  18.435  0.00  0.00    +0.000 N 
ATOM     12  O   UNL     1       1.605   4.620  19.640  0.00  0.00    +0.000 OA
ATOM     13  O   UNL     1       1.113   3.635  17.748  0.00  0.00    +0.000 OA
ENDBRANCH   9  11
BRANCH   5  15
ATOM     14  C   UNL     1       6.766   4.857  14.943  0.00  0.00    +0.000 C 
ATOM     15  O   UNL     1       5.814   4.063  15.638  0.00  0.00    +0.000 OA
ENDBRANCH   5  15
ENDBRANCH   1   8
BRANCH   2  16
ATOM     16  C   UNL     1       1.126   9.285  19.284  0.00  0.00    +0.000 C 
BRANCH  16  17
ATOM     17  N   UNL     1       0.406  10.447  18.686  0.00  0.00    +0.000 NA
ATOM     18  C   UNL     1      -0.822   9.976  18.014  0.00  0.00    +0.000 C 
BRANCH  17  19
ATOM     19  C   UNL     1       0.092  11.436  19.762  0.00  0.00    +0.000 C 
ATOM     20  C   UNL     1       1.355  12.122  20.336  0.00  0.00    +0.000 C 
ATOM     21  C   UNL     1       2.068  12.980  19.295  0.00  0.00    +0.000 C 
ATOM     22  C   UNL     1       1.146  14.041  18.702  0.00  0.00    +0.000 C 
ATOM     23  C   UNL     1      -0.236  13.527  18.302  0.00  0.00    +0.000 C 
ATOM     24  C   UNL     1      -0.855  12.571  19.319  0.00  0.00    +0.000 C 
ENDBRANCH  17  19
ENDBRANCH  16  17
ENDBRANCH   2  16
TORSDOF 6
ENDMDL
MODEL 8
REMARK VINA RESULT:      -6.2      4.554      6.772
REMARK  Name = 
REMARK  8 active torsions:
REMARK  status: ('A' for Active; 'I' for Inactive)
REMARK    1  A    between atoms: C_1  and  O_2
REMARK    2  A    between atoms: O_2  and  C_3
REMARK    3  A    between atoms: C_6  and  N_7
REMARK    4  A    between atoms: C_8  and  C_10
REMARK    5  A    between atoms: C_10  and  N_11
REMARK    6  A    between atoms: N_11  and  C_12
REMARK    7  A    between atoms: N_11  and  C_13
REMARK    8  A    between atoms: C_19  and  N_20
REMARK                            x       y       z     vdW  Elec       q    Type
REMARK                         _______ _______ _______ _____ _____    ______ ____
ROOT
ATOM      1  N   UNL     1       1.883   7.588  20.687  0.00  0.00    +0.000 N 
ATOM      2  C   UNL     1       0.742   8.149  21.235  0.00  0.00    +0.000 C 
ATOM      3  O   UNL     1      -0.345   7.594  21.370  0.00  0.00    +0.000 OA
ATOM      4  H   UNL     1       2.740   8.144  20.787  0.00  0.00    +0.000 HD
ENDROOT
BRANCH   1   8
ATOM      5  C   UNL     1       2.246   3.664  19.114  0.00  0.00    +0.000 A 
ATOM      6  C   UNL     1       1.585   3.899  20.307  0.00  0.00    +0.000 A 
ATOM      7  C   UNL     1       1.459   5.204  20.792  0.00  0.00    +0.000 A 
ATOM      8  C   UNL     1       1.977   6.299  20.103  0.00  0.00    +0.000 A 
ATOM      9  C   UNL     1       2.568   6.059  18.855  0.00  0.00    +0.000 A 
ATOM     10  C   UNL     1       2.752   4.737  18.389  0.00  0.00    +0.000 A 
BRANCH   9  11
ATOM     11  N   UNL     1       2.987   7.142  17.952  0.00  0.00    +0.000 N 
ATOM     12  O   UNL     1       2.255   8.138  17.855  0.00  0.00    +0.000 OA
ATOM     13  O   UNL     1       4.033   6.986  17.304  0.00  0.00    +0.000 OA
ENDBRANCH   9  11
BRANCH   5  15
ATOM     14  C   UNL     1       3.532   1.979  18.085  0.00  0.00    +0.000 C 
ATOM     15  O   UNL     1       2.327   2.348  18.741  0.00  0.00    +0.000 OA
ENDBRANCH   5  15
ENDBRANCH   1   8
BRANCH   2  16
ATOM     16  C   UNL     1       0.942   9.546  21.807  0.00  0.00    +0.000 C 
BRANCH  16  17
ATOM     17  N   UNL     1      -0.196  10.475  21.546  0.00  0.00    +0.000 NA
ATOM     18  C   UNL     1      -0.717  10.992  22.828  0.00  0.00    +0.000 C 
BRANCH  17  19
ATOM     19  C   UNL     1       0.269  11.584  20.660  0.00  0.00    +0.000 C 
ATOM     20  C   UNL     1       0.730  11.089  19.267  0.00  0.00    +0.000 C 
ATOM     21  C   UNL     1      -0.418  10.482  18.464  0.00  0.00    +0.000 C 
ATOM     22  C   UNL     1      -1.574  11.462  18.292  0.00  0.00    +0.000 C 
ATOM     23  C   UNL     1      -1.977  12.196  19.568  0.00  0.00    +0.000 C 
ATOM     24  C   UNL     1      -0.792  12.675  20.404  0.00  0.00    +0.000 C 
ENDBRANCH  17  19
ENDBRANCH  16  17
ENDBRANCH   2  16
TORSDOF 6
ENDMDL
MODEL 9
REMARK VINA RESULT:      -6.2      5.964      9.337
REMARK  Name = 
REMARK  8 active torsions:
REMARK  status: ('A' for Active; 'I' for Inactive)
REMARK    1  A    between atoms: C_1  and  O_2
REMARK    2  A    between atoms: O_2  and  C_3
REMARK    3  A    between atoms: C_6  and  N_7
REMARK    4  A    between atoms: C_8  and  C_10
REMARK    5  A    between atoms: C_10  and  N_11
REMARK    6  A    between atoms: N_11  and  C_12
REMARK    7  A    between atoms: N_11  and  C_13
REMARK    8  A    between atoms: C_19  and  N_20
REMARK                            x       y       z     vdW  Elec       q    Type
REMARK                         _______ _______ _______ _____ _____    ______ ____
ROOT
ATOM      1  N   UNL     1       0.603  10.009  21.199  0.00  0.00    +0.000 N 
ATOM      2  C   UNL     1       0.522   8.627  21.239  0.00  0.00    +0.000 C 
ATOM      3  O   UNL     1      -0.499   7.966  21.410  0.00  0.00    +0.000 OA
ATOM      4  H   UNL     1       1.508  10.390  20.900  0.00  0.00    +0.000 HD
ENDROOT
BRANCH   1   8
ATOM      5  C   UNL     1      -2.684  12.563  22.019  0.00  0.00    +0.000 A 
ATOM      6  C   UNL     1      -1.976  11.958  23.043  0.00  0.00    +0.000 A 
ATOM      7  C   UNL     1      -0.882  11.139  22.746  0.00  0.00    +0.000 A 
ATOM      8  C   UNL     1      -0.465  10.911  21.436  0.00  0.00    +0.000 A 
ATOM      9  C   UNL     1      -1.137  11.598  20.415  0.00  0.00    +0.000 A 
ATOM     10  C   UNL     1      -2.280  12.378  20.703  0.00  0.00    +0.000 A 
BRANCH   9  11
ATOM     11  N   UNL     1      -0.681  11.585  19.016  0.00  0.00    +0.000 N 
ATOM     12  O   UNL     1      -0.459  12.671  18.463  0.00  0.00    +0.000 OA
ATOM     13  O   UNL     1      -0.580  10.486  18.448  0.00  0.00    +0.000 OA
ENDBRANCH   9  11
BRANCH   5  15
ATOM     14  C   UNL     1      -4.348  12.936  23.647  0.00  0.00    +0.000 C 
ATOM     15  O   UNL     1      -3.748  13.329  22.420  0.00  0.00    +0.000 OA
ENDBRANCH   5  15
ENDBRANCH   1   8
BRANCH   2  16
ATOM     16  C   UNL     1       1.829   7.913  20.925  0.00  0.00    +0.000 C 
BRANCH  16  17
ATOM     17  N   UNL     1       1.826   7.195  19.617  0.00  0.00    +0.000 NA
ATOM     18  C   UNL     1       2.169   8.137  18.533  0.00  0.00    +0.000 C 
BRANCH  17  19
ATOM     19  C   UNL     1       2.795   6.059  19.679  0.00  0.00    +0.000 C 
ATOM     20  C   UNL     1       2.388   4.975  20.706  0.00  0.00    +0.000 C 
ATOM     21  C   UNL     1       1.085   4.278  20.322  0.00  0.00    +0.000 C 
ATOM     22  C   UNL     1       1.161   3.651  18.933  0.00  0.00    +0.000 C 
ATOM     23  C   UNL     1       1.769   4.555  17.863  0.00  0.00    +0.000 C 
ATOM     24  C   UNL     1       2.998   5.329  18.334  0.00  0.00    +0.000 C 
ENDBRANCH  17  19
ENDBRANCH  16  17
ENDBRANCH   2  16
TORSDOF 6
ENDMDL
