MODEL 1
REMARK VINA RESULT:      -8.3      0.000      0.000
REMARK  Name = 
REMARK  4 active torsions:
REMARK  status: ('A' for Active; 'I' for Inactive)
REMARK    1  A    between atoms: C_4  and  C_5
REMARK    2  A    between atoms: C_5  and  N_6
REMARK    3  A    between atoms: C_8  and  C_9
REMARK    4  A    between atoms: C_9  and  N_10
REMARK                            x       y       z     vdW  Elec       q    Type
REMARK                         _______ _______ _______ _____ _____    ______ ____
ROOT
ATOM      1  N   UNL     1       5.277   4.092  18.586  0.00  0.00    +0.000 N 
ATOM      2  C   UNL     1       5.316   5.391  19.156  0.00  0.00    +0.000 A 
ATOM      3  C   UNL     1       4.614   6.102  18.195  0.00  0.00    +0.000 A 
ATOM      4  C   UNL     1       5.232   5.679  16.996  0.00  0.00    +0.000 A 
ATOM      5  C   UNL     1       5.338   6.264  15.729  0.00  0.00    +0.000 A 
ATOM      6  C   UNL     1       5.689   5.481  14.644  0.00  0.00    +0.000 A 
ATOM      7  C   UNL     1       5.799   4.105  14.804  0.00  0.00    +0.000 A 
ATOM      8  C   UNL     1       5.640   3.473  16.070  0.00  0.00    +0.000 A 
ATOM      9  C   UNL     1       5.416   4.283  17.199  0.00  0.00    +0.000 A 
ENDROOT
BRANCH   1  10
ATOM     10  C   UNL     1       4.764   2.997  19.438  0.00  0.00    +0.000 C 
BRANCH  10  14
ATOM     11  C   UNL     1       0.481   2.917  20.232  0.00  0.00    +0.000 A 
ATOM     12  C   UNL     1       0.951   2.859  18.920  0.00  0.00    +0.000 A 
ATOM     13  C   UNL     1       2.336   2.861  18.640  0.00  0.00    +0.000 A 
ATOM     14  C   UNL     1       3.267   2.889  19.684  0.00  0.00    +0.000 A 
ATOM     15  C   UNL     1       2.766   2.940  21.013  0.00  0.00    +0.000 A 
ATOM     16  C   UNL     1       1.391   2.955  21.281  0.00  0.00    +0.000 A 
ENDBRANCH  10  14
ENDBRANCH   1  10
BRANCH   3  17
ATOM     17  C   UNL     1       3.202   6.630  18.225  0.00  0.00    +0.000 C 
BRANCH  17  18
ATOM     18  N   UNL     1       2.612   6.681  19.551  0.00  0.00    +0.000 N 
ATOM     19  C   UNL     1       1.860   7.842  19.810  0.00  0.00    +0.000 A 
ATOM     20  C   UNL     1       1.227   7.925  21.033  0.00  0.00    +0.000 A 
ATOM     21  C   UNL     1       0.461   9.045  21.262  0.00  0.00    +0.000 A 
ATOM     22  N   UNL     1       0.326  10.038  20.381  0.00  0.00    +0.000 NA
ATOM     23  C   UNL     1       0.986   9.866  19.223  0.00  0.00    +0.000 A 
ATOM     24  N   UNL     1       1.734   8.807  18.886  0.00  0.00    +0.000 NA
ATOM     25  H   UNL     1       3.334   6.602  20.264  0.00  0.00    +0.000 HD
ENDBRANCH  17  18
ENDBRANCH   3  17
TORSDOF 4
ENDMDL
MODEL 2
REMARK VINA RESULT:      -8.3      1.486      4.646
REMARK  Name = 
REMARK  4 active torsions:
REMARK  status: ('A' for Active; 'I' for Inactive)
REMARK    1  A    between atoms: C_4  and  C_5
REMARK    2  A    between atoms: C_5  and  N_6
REMARK    3  A    between atoms: C_8  and  C_9
REMARK    4  A    between atoms: C_9  and  N_10
REMARK                            x       y       z     vdW  Elec       q    Type
REMARK                         _______ _______ _______ _____ _____    ______ ____
ROOT
ATOM      1  N   UNL     1       3.626   4.061  18.003  0.00  0.00    +0.000 N 
ATOM      2  C   UNL     1       2.589   4.926  17.569  0.00  0.00    +0.000 A 
ATOM      3  C   UNL     1       2.257   5.535  18.769  0.00  0.00    +0.000 A 
ATOM      4  C   UNL     1       2.135   4.430  19.642  0.00  0.00    +0.000 A 
ATOM      5  C   UNL     1       1.437   4.244  20.842  0.00  0.00    +0.000 A 
ATOM      6  C   UNL     1       1.772   3.187  21.669  0.00  0.00    +0.000 A 
ATOM      7  C   UNL     1       2.882   2.408  21.363  0.00  0.00    +0.000 A 
ATOM      8  C   UNL     1       3.647   2.608  20.179  0.00  0.00    +0.000 A 
ATOM      9  C   UNL     1       3.226   3.597  19.269  0.00  0.00    +0.000 A 
ENDROOT
BRANCH   1  10
ATOM     10  C   UNL     1       4.918   4.145  17.287  0.00  0.00    +0.000 C 
BRANCH  10  14
ATOM     11  C   UNL     1       7.958   7.076  18.357  0.00  0.00    +0.000 A 
ATOM     12  C   UNL     1       7.088   7.325  17.295  0.00  0.00    +0.000 A 
ATOM     13  C   UNL     1       6.081   6.399  16.944  0.00  0.00    +0.000 A 
ATOM     14  C   UNL     1       5.915   5.223  17.682  0.00  0.00    +0.000 A 
ATOM     15  C   UNL     1       6.807   4.993  18.766  0.00  0.00    +0.000 A 
ATOM     16  C   UNL     1       7.815   5.909  19.096  0.00  0.00    +0.000 A 
ENDBRANCH  10  14
ENDBRANCH   1  10
BRANCH   3  17
ATOM     17  C   UNL     1       2.578   6.920  19.270  0.00  0.00    +0.000 C 
BRANCH  17  18
ATOM     18  N   UNL     1       2.027   7.223  20.579  0.00  0.00    +0.000 N 
ATOM     19  C   UNL     1       1.308   8.432  20.643  0.00  0.00    +0.000 A 
ATOM     20  C   UNL     1       0.712   8.750  21.845  0.00  0.00    +0.000 A 
ATOM     21  C   UNL     1      -0.022   9.913  21.887  0.00  0.00    +0.000 A 
ATOM     22  N   UNL     1      -0.159  10.735  20.845  0.00  0.00    +0.000 NA
ATOM     23  C   UNL     1       0.464  10.341  19.722  0.00  0.00    +0.000 A 
ATOM     24  N   UNL     1       1.179   9.219  19.564  0.00  0.00    +0.000 NA
ATOM     25  H   UNL     1       2.766   7.254  21.277  0.00  0.00    +0.000 HD
ENDBRANCH  17  18
ENDBRANCH   3  17
TORSDOF 4
ENDMDL
MODEL 3
REMARK VINA RESULT:      -8.2      0.729      1.211
REMARK  Name = 
REMARK  4 active torsions:
REMARK  status: ('A' for Active; 'I' for Inactive)
REMARK    1  A    between atoms: C_4  and  C_5
REMARK    2  A    between atoms: C_5  and  N_6
REMARK    3  A    between atoms: C_8  and  C_9
REMARK    4  A    between atoms: C_9  and  N_10
REMARK                            x       y       z     vdW  Elec       q    Type
REMARK                         _______ _______ _______ _____ _____    ______ ____
ROOT
ATOM      1  N   UNL     1       5.203   4.109  18.619  0.00  0.00    +0.000 N 
ATOM      2  C   UNL     1       5.140   5.413  19.177  0.00  0.00    +0.000 A 
ATOM      3  C   UNL     1       4.443   6.074  18.177  0.00  0.00    +0.000 A 
ATOM      4  C   UNL     1       5.139   5.678  17.013  0.00  0.00    +0.000 A 
ATOM      5  C   UNL     1       5.270   6.259  15.746  0.00  0.00    +0.000 A 
ATOM      6  C   UNL     1       5.716   5.490  14.685  0.00  0.00    +0.000 A 
ATOM      7  C   UNL     1       5.899   4.124  14.866  0.00  0.00    +0.000 A 
ATOM      8  C   UNL     1       5.718   3.493  16.129  0.00  0.00    +0.000 A 
ATOM      9  C   UNL     1       5.395   4.298  17.239  0.00  0.00    +0.000 A 
ENDROOT
BRANCH   1  10
ATOM     10  C   UNL     1       4.717   2.993  19.459  0.00  0.00    +0.000 C 
BRANCH  10  14
ATOM     11  C   UNL     1       0.428   2.779  20.195  0.00  0.00    +0.000 A 
ATOM     12  C   UNL     1       0.921   2.676  18.895  0.00  0.00    +0.000 A 
ATOM     13  C   UNL     1       2.309   2.721  18.634  0.00  0.00    +0.000 A 
ATOM     14  C   UNL     1       3.221   2.836  19.688  0.00  0.00    +0.000 A 
ATOM     15  C   UNL     1       2.697   2.932  21.007  0.00  0.00    +0.000 A 
ATOM     16  C   UNL     1       1.318   2.904  21.254  0.00  0.00    +0.000 A 
ENDBRANCH  10  14
ENDBRANCH   1  10
BRANCH   3  17
ATOM     17  C   UNL     1       3.002   6.518  18.137  0.00  0.00    +0.000 C 
BRANCH  17  18
ATOM     18  N   UNL     1       2.803   7.848  17.590  0.00  0.00    +0.000 N 
ATOM     19  C   UNL     1       2.076   8.719  18.425  0.00  0.00    +0.000 A 
ATOM     20  C   UNL     1       1.902  10.015  17.986  0.00  0.00    +0.000 A 
ATOM     21  C   UNL     1       1.225  10.869  18.826  0.00  0.00    +0.000 A 
ATOM     22  N   UNL     1       0.726  10.499  20.007  0.00  0.00    +0.000 NA
ATOM     23  C   UNL     1       0.942   9.215  20.341  0.00  0.00    +0.000 A 
ATOM     24  N   UNL     1       1.610   8.309  19.614  0.00  0.00    +0.000 NA
ATOM     25  H   UNL     1       2.328   7.796  16.692  0.00  0.00    +0.000 HD
ENDBRANCH  17  18
ENDBRANCH   3  17
TORSDOF 4
ENDMDL
MODEL 4
REMARK VINA RESULT:      -8.2      1.528      4.764
REMARK  Name = 
REMARK  4 active torsions:
REMARK  status: ('A' for Active; 'I' for Inactive)
REMARK    1  A    between atoms: C_4  and  C_5
REMARK    2  A    between atoms: C_5  and  N_6
REMARK    3  A    between atoms: C_8  and  C_9
REMARK    4  A    between atoms: C_9  and  N_10
REMARK                            x       y       z     vdW  Elec       q    Type
REMARK                         _______ _______ _______ _____ _____    ______ ____
ROOT
ATOM      1  N   UNL     1       3.661   4.027  18.022  0.00  0.00    +0.000 N 
ATOM      2  C   UNL     1       2.628   4.900  17.592  0.00  0.00    +0.000 A 
ATOM      3  C   UNL     1       2.292   5.496  18.798  0.00  0.00    +0.000 A 
ATOM      4  C   UNL     1       2.164   4.382  19.659  0.00  0.00    +0.000 A 
ATOM      5  C   UNL     1       1.460   4.186  20.853  0.00  0.00    +0.000 A 
ATOM      6  C   UNL     1       1.788   3.119  21.670  0.00  0.00    +0.000 A 
ATOM      7  C   UNL     1       2.897   2.340  21.360  0.00  0.00    +0.000 A 
ATOM      8  C   UNL     1       3.668   2.551  20.182  0.00  0.00    +0.000 A 
ATOM      9  C   UNL     1       3.254   3.550  19.281  0.00  0.00    +0.000 A 
ENDROOT
BRANCH   1  10
ATOM     10  C   UNL     1       4.956   4.115  17.313  0.00  0.00    +0.000 C 
BRANCH  10  14
ATOM     11  C   UNL     1       7.934   7.135  18.310  0.00  0.00    +0.000 A 
ATOM     12  C   UNL     1       7.023   7.364  17.279  0.00  0.00    +0.000 A 
ATOM     13  C   UNL     1       6.035   6.408  16.952  0.00  0.00    +0.000 A 
ATOM     14  C   UNL     1       5.931   5.222  17.685  0.00  0.00    +0.000 A 
ATOM     15  C   UNL     1       6.864   5.013  18.738  0.00  0.00    +0.000 A 
ATOM     16  C   UNL     1       7.852   5.958  19.043  0.00  0.00    +0.000 A 
ENDBRANCH  10  14
ENDBRANCH   1  10
BRANCH   3  17
ATOM     17  C   UNL     1       2.614   6.875  19.315  0.00  0.00    +0.000 C 
BRANCH  17  18
ATOM     18  N   UNL     1       2.252   7.952  18.411  0.00  0.00    +0.000 N 
ATOM     19  C   UNL     1       1.495   8.981  19.004  0.00  0.00    +0.000 A 
ATOM     20  C   UNL     1       1.166  10.060  18.210  0.00  0.00    +0.000 A 
ATOM     21  C   UNL     1       0.461  11.079  18.808  0.00  0.00    +0.000 A 
ATOM     22  N   UNL     1       0.074  11.056  20.084  0.00  0.00    +0.000 NA
ATOM     23  C   UNL     1       0.437   9.960  20.771  0.00  0.00    +0.000 A 
ATOM     24  N   UNL     1       1.145   8.926  20.297  0.00  0.00    +0.000 NA
ATOM     25  H   UNL     1       1.730   7.588  17.617  0.00  0.00    +0.000 HD
ENDBRANCH  17  18
ENDBRANCH   3  17
TORSDOF 4
ENDMDL
MODEL 5
REMARK VINA RESULT:      -8.1      1.425      4.654
REMARK  Name = 
REMARK  4 active torsions:
REMARK  status: ('A' for Active; 'I' for Inactive)
REMARK    1  A    between atoms: C_4  and  C_5
REMARK    2  A    between atoms: C_5  and  N_6
REMARK    3  A    between atoms: C_8  and  C_9
REMARK    4  A    between atoms: C_9  and  N_10
REMARK                            x       y       z     vdW  Elec       q    Type
REMARK                         _______ _______ _______ _____ _____    ______ ____
ROOT
ATOM      1  N   UNL     1       3.595   3.942  17.862  0.00  0.00    +0.000 N 
ATOM      2  C   UNL     1       2.549   4.803  17.436  0.00  0.00    +0.000 A 
ATOM      3  C   UNL     1       2.272   5.460  18.625  0.00  0.00    +0.000 A 
ATOM      4  C   UNL     1       2.175   4.390  19.544  0.00  0.00    +0.000 A 
ATOM      5  C   UNL     1       1.525   4.258  20.777  0.00  0.00    +0.000 A 
ATOM      6  C   UNL     1       1.883   3.229  21.630  0.00  0.00    +0.000 A 
ATOM      7  C   UNL     1       2.971   2.427  21.309  0.00  0.00    +0.000 A 
ATOM      8  C   UNL     1       3.689   2.573  20.089  0.00  0.00    +0.000 A 
ATOM      9  C   UNL     1       3.241   3.531  19.159  0.00  0.00    +0.000 A 
ENDROOT
BRANCH   1  10
ATOM     10  C   UNL     1       4.857   3.984  17.092  0.00  0.00    +0.000 C 
BRANCH  10  14
ATOM     11  C   UNL     1       7.785   6.975  18.302  0.00  0.00    +0.000 A 
ATOM     12  C   UNL     1       7.603   5.823  19.067  0.00  0.00    +0.000 A 
ATOM     13  C   UNL     1       6.675   4.830  18.682  0.00  0.00    +0.000 A 
ATOM     14  C   UNL     1       5.941   4.970  17.500  0.00  0.00    +0.000 A 
ATOM     15  C   UNL     1       6.147   6.148  16.731  0.00  0.00    +0.000 A 
ATOM     16  C   UNL     1       7.057   7.137  17.129  0.00  0.00    +0.000 A 
ENDBRANCH  10  14
ENDBRANCH   1  10
BRANCH   3  17
ATOM     17  C   UNL     1       2.627   6.859  19.060  0.00  0.00    +0.000 C 
BRANCH  17  18
ATOM     18  N   UNL     1       2.214   7.186  20.413  0.00  0.00    +0.000 N 
ATOM     19  C   UNL     1       1.462   8.371  20.523  0.00  0.00    +0.000 A 
ATOM     20  C   UNL     1       0.993   8.707  21.776  0.00  0.00    +0.000 A 
ATOM     21  C   UNL     1       0.225   9.846  21.867  0.00  0.00    +0.000 A 
ATOM     22  N   UNL     1      -0.058  10.628  20.824  0.00  0.00    +0.000 NA
ATOM     23  C   UNL     1       0.450  10.220  19.649  0.00  0.00    +0.000 A 
ATOM     24  N   UNL     1       1.184   9.118  19.444  0.00  0.00    +0.000 NA
ATOM     25  H   UNL     1       3.025   7.264  21.022  0.00  0.00    +0.000 HD
ENDBRANCH  17  18
ENDBRANCH   3  17
TORSDOF 4
ENDMDL
MODEL 6
REMARK VINA RESULT:      -8.1      1.642      4.784
REMARK  Name = 
REMARK  4 active torsions:
REMARK  status: ('A' for Active; 'I' for Inactive)
REMARK    1  A    between atoms: C_4  and  C_5
REMARK    2  A    between atoms: C_5  and  N_6
REMARK    3  A    between atoms: C_8  and  C_9
REMARK    4  A    between atoms: C_9  and  N_10
REMARK                            x       y       z     vdW  Elec       q    Type
REMARK                         _______ _______ _______ _____ _____    ______ ____
ROOT
ATOM      1  N   UNL     1       3.519   4.418  17.969  0.00  0.00    +0.000 N 
ATOM      2  C   UNL     1       2.470   5.334  17.697  0.00  0.00    +0.000 A 
ATOM      3  C   UNL     1       2.237   5.827  18.972  0.00  0.00    +0.000 A 
ATOM      4  C   UNL     1       2.157   4.643  19.741  0.00  0.00    +0.000 A 
ATOM      5  C   UNL     1       1.543   4.350  20.965  0.00  0.00    +0.000 A 
ATOM      6  C   UNL     1       1.915   3.214  21.660  0.00  0.00    +0.000 A 
ATOM      7  C   UNL     1       2.985   2.454  21.199  0.00  0.00    +0.000 A 
ATOM      8  C   UNL     1       3.667   2.760  19.988  0.00  0.00    +0.000 A 
ATOM      9  C   UNL     1       3.201   3.837  19.210  0.00  0.00    +0.000 A 
ENDROOT
BRANCH   1  10
ATOM     10  C   UNL     1       4.757   4.555  17.172  0.00  0.00    +0.000 C 
BRANCH  10  14
ATOM     11  C   UNL     1       8.059   7.068  18.502  0.00  0.00    +0.000 A 
ATOM     12  C   UNL     1       7.265   7.465  17.426  0.00  0.00    +0.000 A 
ATOM     13  C   UNL     1       6.176   6.677  16.991  0.00  0.00    +0.000 A 
ATOM     14  C   UNL     1       5.852   5.492  17.659  0.00  0.00    +0.000 A 
ATOM     15  C   UNL     1       6.669   5.109  18.758  0.00  0.00    +0.000 A 
ATOM     16  C   UNL     1       7.758   5.888  19.172  0.00  0.00    +0.000 A 
ENDBRANCH  10  14
ENDBRANCH   1  10
BRANCH   3  17
ATOM     17  C   UNL     1       2.620   7.152  19.580  0.00  0.00    +0.000 C 
BRANCH  17  18
ATOM     18  N   UNL     1       1.741   8.250  19.220  0.00  0.00    +0.000 N 
ATOM     19  C   UNL     1       1.185   8.935  20.317  0.00  0.00    +0.000 A 
ATOM     20  C   UNL     1       0.384  10.024  20.042  0.00  0.00    +0.000 A 
ATOM     21  C   UNL     1      -0.122  10.712  21.121  0.00  0.00    +0.000 A 
ATOM     22  N   UNL     1       0.107  10.365  22.388  0.00  0.00    +0.000 NA
ATOM     23  C   UNL     1       0.892   9.287  22.552  0.00  0.00    +0.000 A 
ATOM     24  N   UNL     1       1.458   8.563  21.577  0.00  0.00    +0.000 NA
ATOM     25  H   UNL     1       0.980   7.917  18.632  0.00  0.00    +0.000 HD
ENDBRANCH  17  18
ENDBRANCH   3  17
TORSDOF 4
ENDMDL
MODEL 7
REMARK VINA RESULT:      -8.0      1.524      4.772
REMARK  Name = 
REMARK  4 active torsions:
REMARK  status: ('A' for Active; 'I' for Inactive)
REMARK    1  A    between atoms: C_4  and  C_5
REMARK    2  A    between atoms: C_5  and  N_6
REMARK    3  A    between atoms: C_8  and  C_9
REMARK    4  A    between atoms: C_9  and  N_10
REMARK                            x       y       z     vdW  Elec       q    Type
REMARK                         _______ _______ _______ _____ _____    ______ ____
ROOT
ATOM      1  N   UNL     1       3.467   4.031  17.873  0.00  0.00    +0.000 N 
ATOM      2  C   UNL     1       2.394   4.918  17.596  0.00  0.00    +0.000 A 
ATOM      3  C   UNL     1       2.225   5.497  18.844  0.00  0.00    +0.000 A 
ATOM      4  C   UNL     1       2.201   4.371  19.698  0.00  0.00    +0.000 A 
ATOM      5  C   UNL     1       1.659   4.160  20.971  0.00  0.00    +0.000 A 
ATOM      6  C   UNL     1       2.082   3.078  21.722  0.00  0.00    +0.000 A 
ATOM      7  C   UNL     1       3.133   2.297  21.257  0.00  0.00    +0.000 A 
ATOM      8  C   UNL     1       3.744   2.521  19.991  0.00  0.00    +0.000 A 
ATOM      9  C   UNL     1       3.224   3.537  19.167  0.00  0.00    +0.000 A 
ENDROOT
BRANCH   1  10
ATOM     10  C   UNL     1       4.657   4.121  17.001  0.00  0.00    +0.000 C 
BRANCH  10  14
ATOM     11  C   UNL     1       7.758   6.920  18.240  0.00  0.00    +0.000 A 
ATOM     12  C   UNL     1       7.709   5.640  18.792  0.00  0.00    +0.000 A 
ATOM     13  C   UNL     1       6.726   4.708  18.389  0.00  0.00    +0.000 A 
ATOM     14  C   UNL     1       5.799   5.045  17.398  0.00  0.00    +0.000 A 
ATOM     15  C   UNL     1       5.871   6.352  16.843  0.00  0.00    +0.000 A 
ATOM     16  C   UNL     1       6.839   7.276  17.261  0.00  0.00    +0.000 A 
ENDBRANCH  10  14
ENDBRANCH   1  10
BRANCH   3  17
ATOM     17  C   UNL     1       2.626   6.865  19.335  0.00  0.00    +0.000 C 
BRANCH  17  18
ATOM     18  N   UNL     1       2.293   7.947  18.426  0.00  0.00    +0.000 N 
ATOM     19  C   UNL     1       1.533   8.982  19.004  0.00  0.00    +0.000 A 
ATOM     20  C   UNL     1       1.232  10.066  18.206  0.00  0.00    +0.000 A 
ATOM     21  C   UNL     1       0.524  11.091  18.791  0.00  0.00    +0.000 A 
ATOM     22  N   UNL     1       0.110  11.069  20.059  0.00  0.00    +0.000 NA
ATOM     23  C   UNL     1       0.448   9.968  20.751  0.00  0.00    +0.000 A 
ATOM     24  N   UNL     1       1.156   8.928  20.290  0.00  0.00    +0.000 NA
ATOM     25  H   UNL     1       1.785   7.590  17.620  0.00  0.00    +0.000 HD
ENDBRANCH  17  18
ENDBRANCH   3  17
TORSDOF 4
ENDMDL
MODEL 8
REMARK VINA RESULT:      -8.0      3.829      4.676
REMARK  Name = 
REMARK  4 active torsions:
REMARK  status: ('A' for Active; 'I' for Inactive)
REMARK    1  A    between atoms: C_4  and  C_5
REMARK    2  A    between atoms: C_5  and  N_6
REMARK    3  A    between atoms: C_8  and  C_9
REMARK    4  A    between atoms: C_9  and  N_10
REMARK                            x       y       z     vdW  Elec       q    Type
REMARK                         _______ _______ _______ _____ _____    ______ ____
ROOT
ATOM      1  N   UNL     1       5.566   5.228  18.584  0.00  0.00    +0.000 N 
ATOM      2  C   UNL     1       6.893   5.461  19.029  0.00  0.00    +0.000 A 
ATOM      3  C   UNL     1       7.408   6.128  17.928  0.00  0.00    +0.000 A 
ATOM      4  C   UNL     1       7.001   5.300  16.857  0.00  0.00    +0.000 A 
ATOM      5  C   UNL     1       7.499   5.115  15.562  0.00  0.00    +0.000 A 
ATOM      6  C   UNL     1       6.705   4.508  14.606  0.00  0.00    +0.000 A 
ATOM      7  C   UNL     1       5.380   4.215  14.909  0.00  0.00    +0.000 A 
ATOM      8  C   UNL     1       4.827   4.444  16.200  0.00  0.00    +0.000 A 
ATOM      9  C   UNL     1       5.673   4.935  17.213  0.00  0.00    +0.000 A 
ENDROOT
BRANCH   1  10
ATOM     10  C   UNL     1       4.470   5.678  19.470  0.00  0.00    +0.000 C 
BRANCH  10  14
ATOM     11  C   UNL     1       1.198   2.942  20.360  0.00  0.00    +0.000 A 
ATOM     12  C   UNL     1       0.999   4.321  20.438  0.00  0.00    +0.000 A 
ATOM     13  C   UNL     1       2.040   5.227  20.132  0.00  0.00    +0.000 A 
ATOM     14  C   UNL     1       3.286   4.754  19.711  0.00  0.00    +0.000 A 
ATOM     15  C   UNL     1       3.465   3.345  19.631  0.00  0.00    +0.000 A 
ATOM     16  C   UNL     1       2.433   2.453  19.953  0.00  0.00    +0.000 A 
ENDBRANCH  10  14
ENDBRANCH   1  10
BRANCH   3  17
ATOM     17  C   UNL     1       7.701   7.595  17.739  0.00  0.00    +0.000 C 
BRANCH  17  18
ATOM     18  N   UNL     1       8.553   8.171  18.764  0.00  0.00    +0.000 N 
ATOM     19  C   UNL     1       8.736   9.563  18.657  0.00  0.00    +0.000 A 
ATOM     20  C   UNL     1       9.490  10.178  19.635  0.00  0.00    +0.000 A 
ATOM     21  C   UNL     1       9.630  11.543  19.543  0.00  0.00    +0.000 A 
ATOM     22  N   UNL     1       9.099  12.274  18.562  0.00  0.00    +0.000 NA
ATOM     23  C   UNL     1       8.389  11.582  17.655  0.00  0.00    +0.000 A 
ATOM     24  N   UNL     1       8.166  10.261  17.664  0.00  0.00    +0.000 NA
ATOM     25  H   UNL     1       9.467   7.726  18.757  0.00  0.00    +0.000 HD
ENDBRANCH  17  18
ENDBRANCH   3  17
TORSDOF 4
ENDMDL
MODEL 9
REMARK VINA RESULT:      -7.8      2.220      6.629
REMARK  Name = 
REMARK  4 active torsions:
REMARK  status: ('A' for Active; 'I' for Inactive)
REMARK    1  A    between atoms: C_4  and  C_5
REMARK    2  A    between atoms: C_5  and  N_6
REMARK    3  A    between atoms: C_8  and  C_9
REMARK    4  A    between atoms: C_9  and  N_10
REMARK                            x       y       z     vdW  Elec       q    Type
REMARK                         _______ _______ _______ _____ _____    ______ ____
ROOT
ATOM      1  N   UNL     1       3.563   6.128  18.313  0.00  0.00    +0.000 N 
ATOM      2  C   UNL     1       4.878   5.965  18.821  0.00  0.00    +0.000 A 
ATOM      3  C   UNL     1       5.276   4.839  18.117  0.00  0.00    +0.000 A 
ATOM      4  C   UNL     1       4.178   3.968  18.298  0.00  0.00    +0.000 A 
ATOM      5  C   UNL     1       4.058   2.574  18.244  0.00  0.00    +0.000 A 
ATOM      6  C   UNL     1       2.806   2.002  18.111  0.00  0.00    +0.000 A 
ATOM      7  C   UNL     1       1.703   2.820  17.898  0.00  0.00    +0.000 A 
ATOM      8  C   UNL     1       1.801   4.241  17.889  0.00  0.00    +0.000 A 
ATOM      9  C   UNL     1       3.053   4.826  18.160  0.00  0.00    +0.000 A 
ENDROOT
BRANCH   1  10
ATOM     10  C   UNL     1       3.215   7.453  17.756  0.00  0.00    +0.000 C 
BRANCH  10  14
ATOM     11  C   UNL     1       0.415   9.974  19.943  0.00  0.00    +0.000 A 
ATOM     12  C   UNL     1       0.700  10.243  18.605  0.00  0.00    +0.000 A 
ATOM     13  C   UNL     1       1.589   9.426  17.869  0.00  0.00    +0.000 A 
ATOM     14  C   UNL     1       2.175   8.306  18.467  0.00  0.00    +0.000 A 
ATOM     15  C   UNL     1       1.863   8.046  19.830  0.00  0.00    +0.000 A 
ATOM     16  C   UNL     1       0.995   8.871  20.556  0.00  0.00    +0.000 A 
ENDBRANCH  10  14
ENDBRANCH   1  10
BRANCH   3  17
ATOM     17  C   UNL     1       6.209   4.718  16.938  0.00  0.00    +0.000 C 
BRANCH  17  18
ATOM     18  N   UNL     1       5.644   4.015  15.800  0.00  0.00    +0.000 N 
ATOM     19  C   UNL     1       6.289   4.275  14.576  0.00  0.00    +0.000 A 
ATOM     20  C   UNL     1       5.834   3.594  13.466  0.00  0.00    +0.000 A 
ATOM     21  C   UNL     1       6.496   3.824  12.282  0.00  0.00    +0.000 A 
ATOM     22  N   UNL     1       7.518   4.672  12.162  0.00  0.00    +0.000 NA
ATOM     23  C   UNL     1       7.882   5.291  13.298  0.00  0.00    +0.000 A 
ATOM     24  N   UNL     1       7.327   5.121  14.506  0.00  0.00    +0.000 NA
ATOM     25  H   UNL     1       4.658   4.242  15.697  0.00  0.00    +0.000 HD
ENDBRANCH  17  18
ENDBRANCH   3  17
TORSDOF 4
ENDMDL
