MODEL 1
REMARK VINA RESULT:      -8.6      0.000      0.000
REMARK  Name = 
REMARK  8 active torsions:
REMARK  status: ('A' for Active; 'I' for Inactive)
REMARK    1  A    between atoms: C_1  and  C_2
REMARK    2  A    between atoms: C_2  and  O_3
REMARK    3  A    between atoms: O_3  and  C_4
REMARK    4  A    between atoms: C_4  and  C_6
REMARK    5  A    between atoms: C_6  and  C_7
REMARK    6  A    between atoms: C_12  and  N_13
REMARK    7  A    between atoms: C_14  and  C_16
REMARK    8  A    between atoms: C_19  and  C_20
REMARK                            x       y       z     vdW  Elec       q    Type
REMARK                         _______ _______ _______ _____ _____    ______ ____
ROOT
ATOM      1  C   UNL     1      -1.709  11.732  21.883  0.00  0.00    +0.000 C 
ATOM      2  C   UNL     1      -1.155  12.461  20.659  0.00  0.00    +0.000 C 
ATOM      3  C   UNL     1      -0.825  11.474  19.552  0.00  0.00    +0.000 C 
ATOM      4  C   UNL     1       0.049  10.352  20.040  0.00  0.00    +0.000 A 
ATOM      5  C   UNL     1       0.804   9.644  19.096  0.00  0.00    +0.000 A 
ATOM      6  C   UNL     1       1.615   8.564  19.463  0.00  0.00    +0.000 A 
ATOM      7  C   UNL     1       1.638   8.170  20.803  0.00  0.00    +0.000 A 
ATOM      8  C   UNL     1       0.890   8.871  21.762  0.00  0.00    +0.000 A 
ATOM      9  C   UNL     1       0.093   9.960  21.380  0.00  0.00    +0.000 A 
ATOM     10  C   UNL     1      -0.736  10.670  22.394  0.00  0.00    +0.000 C 
ATOM     11  O   UNL     1      -0.698  10.327  23.573  0.00  0.00    +0.000 OA
ENDROOT
BRANCH   6  12
ATOM     12  N   UNL     1       2.384   7.838  18.523  0.00  0.00    +0.000 N 
ATOM     13  C   UNL     1       2.672   6.483  18.604  0.00  0.00    +0.000 C 
ATOM     14  O   UNL     1       2.206   5.699  19.427  0.00  0.00    +0.000 OA
ATOM     15  H   UNL     1       2.734   8.367  17.738  0.00  0.00    +0.000 HD
BRANCH  13  16
ATOM     16  C   UNL     1       3.643   5.926  17.621  0.00  0.00    +0.000 A 
ATOM     17  C   UNL     1       4.434   6.850  16.917  0.00  0.00    +0.000 A 
ATOM     18  C   UNL     1       5.370   6.419  15.976  0.00  0.00    +0.000 A 
ATOM     19  C   UNL     1       5.528   5.054  15.731  0.00  0.00    +0.000 A 
ATOM     20  C   UNL     1       4.755   4.125  16.439  0.00  0.00    +0.000 A 
ATOM     21  C   UNL     1       3.816   4.558  17.387  0.00  0.00    +0.000 A 
BRANCH  19  22
ATOM     22  C   UNL     1       6.510   4.611  14.705  0.00  0.00    +0.000 C 
ATOM     23  N   UNL     1       7.631   5.221  14.490  0.00  0.00    +0.000 NA
ATOM     24  N   UNL     1       6.254   3.512  13.941  0.00  0.00    +0.000 N 
ATOM     25  H   UNL     1       7.720   6.062  15.064  0.00  0.00    +0.000 HD
ATOM     26  H   UNL     1       5.756   2.752  14.388  0.00  0.00    +0.000 HD
ATOM     27  H   UNL     1       7.088   3.203  13.449  0.00  0.00    +0.000 HD
ENDBRANCH  19  22
ENDBRANCH  13  16
ENDBRANCH   6  12
BRANCH   1  28
ATOM     28  C   UNL     1      -2.136  12.703  22.987  0.00  0.00    +0.000 C 
BRANCH  28  29
ATOM     29  C   UNL     1      -3.558  13.198  22.852  0.00  0.00    +0.000 C 
ATOM     30  O   UNL     1      -3.899  14.277  22.394  0.00  0.00    +0.000 OA
BRANCH  29  31
ATOM     31  O   UNL     1      -4.405  12.254  23.353  0.00  0.00    +0.000 OA
BRANCH  31  33
ATOM     32  C   UNL     1      -6.671  12.600  24.007  0.00  0.00    +0.000 C 
ATOM     33  C   UNL     1      -5.220  12.703  24.442  0.00  0.00    +0.000 C 
ENDBRANCH  31  33
ENDBRANCH  29  31
ENDBRANCH  28  29
ENDBRANCH   1  28
TORSDOF 7
ENDMDL
MODEL 2
REMARK VINA RESULT:      -8.4      0.621      1.042
REMARK  Name = 
REMARK  8 active torsions:
REMARK  status: ('A' for Active; 'I' for Inactive)
REMARK    1  A    between atoms: C_1  and  C_2
REMARK    2  A    between atoms: C_2  and  O_3
REMARK    3  A    between atoms: O_3  and  C_4
REMARK    4  A    between atoms: C_4  and  C_6
REMARK    5  A    between atoms: C_6  and  C_7
REMARK    6  A    between atoms: C_12  and  N_13
REMARK    7  A    between atoms: C_14  and  C_16
REMARK    8  A    between atoms: C_19  and  C_20
REMARK                            x       y       z     vdW  Elec       q    Type
REMARK                         _______ _______ _______ _____ _____    ______ ____
ROOT
ATOM      1  C   UNL     1      -1.491  12.008  21.916  0.00  0.00    +0.000 C 
ATOM      2  C   UNL     1      -0.770  12.739  20.783  0.00  0.00    +0.000 C 
ATOM      3  C   UNL     1      -0.477  11.789  19.634  0.00  0.00    +0.000 C 
ATOM      4  C   UNL     1       0.224  10.542  20.099  0.00  0.00    +0.000 A 
ATOM      5  C   UNL     1       0.959   9.808  19.159  0.00  0.00    +0.000 A 
ATOM      6  C   UNL     1       1.611   8.619  19.502  0.00  0.00    +0.000 A 
ATOM      7  C   UNL     1       1.492   8.143  20.811  0.00  0.00    +0.000 A 
ATOM      8  C   UNL     1       0.762   8.870  21.766  0.00  0.00    +0.000 A 
ATOM      9  C   UNL     1       0.126  10.067  21.409  0.00  0.00    +0.000 A 
ATOM     10  C   UNL     1      -0.687  10.808  22.414  0.00  0.00    +0.000 C 
ATOM     11  O   UNL     1      -0.774  10.392  23.566  0.00  0.00    +0.000 OA
ENDROOT
BRANCH   6  12
ATOM     12  N   UNL     1       2.357   7.864  18.567  0.00  0.00    +0.000 N 
ATOM     13  C   UNL     1       2.736   6.539  18.730  0.00  0.00    +0.000 C 
ATOM     14  O   UNL     1       2.379   5.798  19.643  0.00  0.00    +0.000 OA
ATOM     15  H   UNL     1       2.617   8.347  17.719  0.00  0.00    +0.000 HD
BRANCH  13  16
ATOM     16  C   UNL     1       3.669   5.960  17.723  0.00  0.00    +0.000 A 
ATOM     17  C   UNL     1       4.549   6.854  17.087  0.00  0.00    +0.000 A 
ATOM     18  C   UNL     1       5.457   6.401  16.129  0.00  0.00    +0.000 A 
ATOM     19  C   UNL     1       5.499   5.046  15.800  0.00  0.00    +0.000 A 
ATOM     20  C   UNL     1       4.636   4.146  16.438  0.00  0.00    +0.000 A 
ATOM     21  C   UNL     1       3.725   4.600  17.404  0.00  0.00    +0.000 A 
BRANCH  19  22
ATOM     22  C   UNL     1       6.454   4.583  14.756  0.00  0.00    +0.000 C 
ATOM     23  N   UNL     1       6.231   3.557  14.000  0.00  0.00    +0.000 NA
ATOM     24  N   UNL     1       7.625   5.250  14.554  0.00  0.00    +0.000 N 
ATOM     25  H   UNL     1       5.359   3.084  14.252  0.00  0.00    +0.000 HD
ATOM     26  H   UNL     1       7.604   6.255  14.675  0.00  0.00    +0.000 HD
ATOM     27  H   UNL     1       8.066   4.965  13.684  0.00  0.00    +0.000 HD
ENDBRANCH  19  22
ENDBRANCH  13  16
ENDBRANCH   6  12
BRANCH   1  28
ATOM     28  C   UNL     1      -1.883  12.954  23.054  0.00  0.00    +0.000 C 
BRANCH  28  29
ATOM     29  C   UNL     1      -3.345  12.888  23.431  0.00  0.00    +0.000 C 
ATOM     30  O   UNL     1      -3.873  12.013  24.100  0.00  0.00    +0.000 OA
BRANCH  29  31
ATOM     31  O   UNL     1      -3.994  13.952  22.875  0.00  0.00    +0.000 OA
BRANCH  31  33
ATOM     32  C   UNL     1      -6.272  14.402  23.412  0.00  0.00    +0.000 C 
ATOM     33  C   UNL     1      -4.826  14.682  23.782  0.00  0.00    +0.000 C 
ENDBRANCH  31  33
ENDBRANCH  29  31
ENDBRANCH  28  29
ENDBRANCH   1  28
TORSDOF 7
ENDMDL
MODEL 3
REMARK VINA RESULT:      -8.4      0.935      1.345
REMARK  Name = 
REMARK  8 active torsions:
REMARK  status: ('A' for Active; 'I' for Inactive)
REMARK    1  A    between atoms: C_1  and  C_2
REMARK    2  A    between atoms: C_2  and  O_3
REMARK    3  A    between atoms: O_3  and  C_4
REMARK    4  A    between atoms: C_4  and  C_6
REMARK    5  A    between atoms: C_6  and  C_7
REMARK    6  A    between atoms: C_12  and  N_13
REMARK    7  A    between atoms: C_14  and  C_16
REMARK    8  A    between atoms: C_19  and  C_20
REMARK                            x       y       z     vdW  Elec       q    Type
REMARK                         _______ _______ _______ _____ _____    ______ ____
ROOT
ATOM      1  C   UNL     1      -1.216  11.840  21.991  0.00  0.00    +0.000 C 
ATOM      2  C   UNL     1      -0.470  12.587  20.885  0.00  0.00    +0.000 C 
ATOM      3  C   UNL     1      -0.213  11.670  19.700  0.00  0.00    +0.000 C 
ATOM      4  C   UNL     1       0.442  10.382  20.117  0.00  0.00    +0.000 A 
ATOM      5  C   UNL     1       1.149   9.657  19.148  0.00  0.00    +0.000 A 
ATOM      6  C   UNL     1       1.757   8.432  19.445  0.00  0.00    +0.000 A 
ATOM      7  C   UNL     1       1.621   7.912  20.735  0.00  0.00    +0.000 A 
ATOM      8  C   UNL     1       0.920   8.629  21.718  0.00  0.00    +0.000 A 
ATOM      9  C   UNL     1       0.328   9.861  21.408  0.00  0.00    +0.000 A 
ATOM     10  C   UNL     1      -0.456  10.594  22.442  0.00  0.00    +0.000 C 
ATOM     11  O   UNL     1      -0.557  10.138  23.578  0.00  0.00    +0.000 OA
ENDROOT
BRANCH   6  12
ATOM     12  N   UNL     1       2.473   7.686  18.479  0.00  0.00    +0.000 N 
ATOM     13  C   UNL     1       3.067   6.452  18.704  0.00  0.00    +0.000 C 
ATOM     14  O   UNL     1       2.955   5.777  19.724  0.00  0.00    +0.000 OA
ATOM     15  H   UNL     1       2.539   8.102  17.561  0.00  0.00    +0.000 HD
BRANCH  13  16
ATOM     16  C   UNL     1       3.931   5.897  17.624  0.00  0.00    +0.000 A 
ATOM     17  C   UNL     1       4.742   6.811  16.928  0.00  0.00    +0.000 A 
ATOM     18  C   UNL     1       5.582   6.380  15.900  0.00  0.00    +0.000 A 
ATOM     19  C   UNL     1       5.624   5.029  15.559  0.00  0.00    +0.000 A 
ATOM     20  C   UNL     1       4.830   4.109  16.256  0.00  0.00    +0.000 A 
ATOM     21  C   UNL     1       3.987   4.540  17.292  0.00  0.00    +0.000 A 
BRANCH  19  22
ATOM     22  C   UNL     1       6.504   4.589  14.442  0.00  0.00    +0.000 C 
ATOM     23  N   UNL     1       7.604   5.195  14.130  0.00  0.00    +0.000 NA
ATOM     24  N   UNL     1       6.171   3.499  13.695  0.00  0.00    +0.000 N 
ATOM     25  H   UNL     1       7.752   6.030  14.702  0.00  0.00    +0.000 HD
ATOM     26  H   UNL     1       5.711   2.738  14.179  0.00  0.00    +0.000 HD
ATOM     27  H   UNL     1       6.954   3.190  13.126  0.00  0.00    +0.000 HD
ENDBRANCH  19  22
ENDBRANCH  13  16
ENDBRANCH   6  12
BRANCH   1  28
ATOM     28  C   UNL     1      -1.571  12.757  23.165  0.00  0.00    +0.000 C 
BRANCH  28  29
ATOM     29  C   UNL     1      -3.048  12.802  23.482  0.00  0.00    +0.000 C 
ATOM     30  O   UNL     1      -3.709  11.886  23.946  0.00  0.00    +0.000 OA
BRANCH  29  31
ATOM     31  O   UNL     1      -3.538  14.028  23.136  0.00  0.00    +0.000 OA
BRANCH  31  33
ATOM     32  C   UNL     1      -3.439  15.210  21.069  0.00  0.00    +0.000 C 
ATOM     33  C   UNL     1      -4.124  14.089  21.831  0.00  0.00    +0.000 C 
ENDBRANCH  31  33
ENDBRANCH  29  31
ENDBRANCH  28  29
ENDBRANCH   1  28
TORSDOF 7
ENDMDL
MODEL 4
REMARK VINA RESULT:      -8.4      0.787      1.410
REMARK  Name = 
REMARK  8 active torsions:
REMARK  status: ('A' for Active; 'I' for Inactive)
REMARK    1  A    between atoms: C_1  and  C_2
REMARK    2  A    between atoms: C_2  and  O_3
REMARK    3  A    between atoms: O_3  and  C_4
REMARK    4  A    between atoms: C_4  and  C_6
REMARK    5  A    between atoms: C_6  and  C_7
REMARK    6  A    between atoms: C_12  and  N_13
REMARK    7  A    between atoms: C_14  and  C_16
REMARK    8  A    between atoms: C_19  and  C_20
REMARK                            x       y       z     vdW  Elec       q    Type
REMARK                         _______ _______ _______ _____ _____    ______ ____
ROOT
ATOM      1  C   UNL     1      -1.665  11.782  21.987  0.00  0.00    +0.000 C 
ATOM      2  C   UNL     1      -1.059  12.580  20.832  0.00  0.00    +0.000 C 
ATOM      3  C   UNL     1      -0.727  11.665  19.665  0.00  0.00    +0.000 C 
ATOM      4  C   UNL     1       0.101  10.485  20.093  0.00  0.00    +0.000 A 
ATOM      5  C   UNL     1       0.862   9.824  19.119  0.00  0.00    +0.000 A 
ATOM      6  C   UNL     1       1.632   8.697  19.427  0.00  0.00    +0.000 A 
ATOM      7  C   UNL     1       1.608   8.208  20.737  0.00  0.00    +0.000 A 
ATOM      8  C   UNL     1       0.855   8.861  21.725  0.00  0.00    +0.000 A 
ATOM      9  C   UNL     1       0.099   9.998  21.403  0.00  0.00    +0.000 A 
ATOM     10  C   UNL     1      -0.737  10.659  22.444  0.00  0.00    +0.000 C 
ATOM     11  O   UNL     1      -0.739  10.231  23.596  0.00  0.00    +0.000 OA
ENDROOT
BRANCH   6  12
ATOM     12  N   UNL     1       2.405   8.016  18.457  0.00  0.00    +0.000 N 
ATOM     13  C   UNL     1       2.867   6.713  18.575  0.00  0.00    +0.000 C 
ATOM     14  O   UNL     1       2.573   5.927  19.472  0.00  0.00    +0.000 OA
ATOM     15  H   UNL     1       2.619   8.539  17.620  0.00  0.00    +0.000 HD
BRANCH  13  16
ATOM     16  C   UNL     1       3.815   6.223  17.536  0.00  0.00    +0.000 A 
ATOM     17  C   UNL     1       3.870   4.833  17.333  0.00  0.00    +0.000 A 
ATOM     18  C   UNL     1       4.730   4.284  16.381  0.00  0.00    +0.000 A 
ATOM     19  C   UNL     1       5.543   5.121  15.617  0.00  0.00    +0.000 A 
ATOM     20  C   UNL     1       5.485   6.508  15.802  0.00  0.00    +0.000 A 
ATOM     21  C   UNL     1       4.618   7.061  16.757  0.00  0.00    +0.000 A 
BRANCH  19  22
ATOM     22  C   UNL     1       6.476   4.518  14.625  0.00  0.00    +0.000 C 
ATOM     23  N   UNL     1       7.571   5.093  14.246  0.00  0.00    +0.000 NA
ATOM     24  N   UNL     1       6.199   3.302  14.075  0.00  0.00    +0.000 N 
ATOM     25  H   UNL     1       7.676   6.021  14.664  0.00  0.00    +0.000 HD
ATOM     26  H   UNL     1       5.741   2.625  14.673  0.00  0.00    +0.000 HD
ATOM     27  H   UNL     1       7.011   2.922  13.596  0.00  0.00    +0.000 HD
ENDBRANCH  19  22
ENDBRANCH  13  16
ENDBRANCH   6  12
BRANCH   1  28
ATOM     28  C   UNL     1      -2.095  12.684  23.147  0.00  0.00    +0.000 C 
BRANCH  28  29
ATOM     29  C   UNL     1      -3.557  12.561  23.511  0.00  0.00    +0.000 C 
ATOM     30  O   UNL     1      -4.026  12.676  24.632  0.00  0.00    +0.000 OA
BRANCH  29  31
ATOM     31  O   UNL     1      -4.270  12.267  22.386  0.00  0.00    +0.000 OA
BRANCH  31  33
ATOM     32  C   UNL     1      -4.726  13.673  20.515  0.00  0.00    +0.000 C 
ATOM     33  C   UNL     1      -5.131  13.318  21.935  0.00  0.00    +0.000 C 
ENDBRANCH  31  33
ENDBRANCH  29  31
ENDBRANCH  28  29
ENDBRANCH   1  28
TORSDOF 7
ENDMDL
MODEL 5
REMARK VINA RESULT:      -8.3      0.956      1.346
REMARK  Name = 
REMARK  8 active torsions:
REMARK  status: ('A' for Active; 'I' for Inactive)
REMARK    1  A    between atoms: C_1  and  C_2
REMARK    2  A    between atoms: C_2  and  O_3
REMARK    3  A    between atoms: O_3  and  C_4
REMARK    4  A    between atoms: C_4  and  C_6
REMARK    5  A    between atoms: C_6  and  C_7
REMARK    6  A    between atoms: C_12  and  N_13
REMARK    7  A    between atoms: C_14  and  C_16
REMARK    8  A    between atoms: C_19  and  C_20
REMARK                            x       y       z     vdW  Elec       q    Type
REMARK                         _______ _______ _______ _____ _____    ______ ____
ROOT
ATOM      1  C   UNL     1      -1.273  11.617  21.957  0.00  0.00    +0.000 C 
ATOM      2  C   UNL     1      -0.619  12.371  20.798  0.00  0.00    +0.000 C 
ATOM      3  C   UNL     1      -0.358  11.434  19.631  0.00  0.00    +0.000 C 
ATOM      4  C   UNL     1       0.389  10.200  20.056  0.00  0.00    +0.000 A 
ATOM      5  C   UNL     1       1.097   9.487  19.079  0.00  0.00    +0.000 A 
ATOM      6  C   UNL     1       1.788   8.309  19.384  0.00  0.00    +0.000 A 
ATOM      7  C   UNL     1       1.738   7.823  20.694  0.00  0.00    +0.000 A 
ATOM      8  C   UNL     1       1.036   8.528  21.685  0.00  0.00    +0.000 A 
ATOM      9  C   UNL     1       0.360   9.714  21.366  0.00  0.00    +0.000 A 
ATOM     10  C   UNL     1      -0.423  10.432  22.411  0.00  0.00    +0.000 C 
ATOM     11  O   UNL     1      -0.450  10.007  23.563  0.00  0.00    +0.000 OA
ENDROOT
BRANCH   6  12
ATOM     12  N   UNL     1       2.507   7.576  18.411  0.00  0.00    +0.000 N 
ATOM     13  C   UNL     1       3.156   6.371  18.637  0.00  0.00    +0.000 C 
ATOM     14  O   UNL     1       3.099   5.709  19.671  0.00  0.00    +0.000 OA
ATOM     15  H   UNL     1       2.531   7.979  17.485  0.00  0.00    +0.000 HD
BRANCH  13  16
ATOM     16  C   UNL     1       4.011   5.833  17.542  0.00  0.00    +0.000 A 
ATOM     17  C   UNL     1       4.760   6.766  16.805  0.00  0.00    +0.000 A 
ATOM     18  C   UNL     1       5.588   6.353  15.760  0.00  0.00    +0.000 A 
ATOM     19  C   UNL     1       5.679   4.998  15.444  0.00  0.00    +0.000 A 
ATOM     20  C   UNL     1       4.948   4.058  16.182  0.00  0.00    +0.000 A 
ATOM     21  C   UNL     1       4.118   4.473  17.234  0.00  0.00    +0.000 A 
BRANCH  19  22
ATOM     22  C   UNL     1       6.544   4.575  14.309  0.00  0.00    +0.000 C 
ATOM     23  N   UNL     1       7.610   5.219  13.955  0.00  0.00    +0.000 NA
ATOM     24  N   UNL     1       6.236   3.459  13.590  0.00  0.00    +0.000 N 
ATOM     25  H   UNL     1       7.739   6.069  14.508  0.00  0.00    +0.000 HD
ATOM     26  H   UNL     1       5.822   2.688  14.100  0.00  0.00    +0.000 HD
ATOM     27  H   UNL     1       7.015   3.172  13.003  0.00  0.00    +0.000 HD
ENDBRANCH  19  22
ENDBRANCH  13  16
ENDBRANCH   6  12
BRANCH   1  28
ATOM     28  C   UNL     1      -1.634  12.548  23.119  0.00  0.00    +0.000 C 
BRANCH  28  29
ATOM     29  C   UNL     1      -3.088  12.956  23.149  0.00  0.00    +0.000 C 
ATOM     30  O   UNL     1      -4.045  12.203  23.043  0.00  0.00    +0.000 OA
BRANCH  29  31
ATOM     31  O   UNL     1      -3.165  14.311  23.282  0.00  0.00    +0.000 OA
BRANCH  31  33
ATOM     32  C   UNL     1      -2.858  15.096  25.512  0.00  0.00    +0.000 C 
ATOM     33  C   UNL     1      -2.191  14.880  24.165  0.00  0.00    +0.000 C 
ENDBRANCH  31  33
ENDBRANCH  29  31
ENDBRANCH  28  29
ENDBRANCH   1  28
TORSDOF 7
ENDMDL
MODEL 6
REMARK VINA RESULT:      -8.2      1.354      2.081
REMARK  Name = 
REMARK  8 active torsions:
REMARK  status: ('A' for Active; 'I' for Inactive)
REMARK    1  A    between atoms: C_1  and  C_2
REMARK    2  A    between atoms: C_2  and  O_3
REMARK    3  A    between atoms: O_3  and  C_4
REMARK    4  A    between atoms: C_4  and  C_6
REMARK    5  A    between atoms: C_6  and  C_7
REMARK    6  A    between atoms: C_12  and  N_13
REMARK    7  A    between atoms: C_14  and  C_16
REMARK    8  A    between atoms: C_19  and  C_20
REMARK                            x       y       z     vdW  Elec       q    Type
REMARK                         _______ _______ _______ _____ _____    ______ ____
ROOT
ATOM      1  C   UNL     1      -1.038  11.650  22.694  0.00  0.00    +0.000 C 
ATOM      2  C   UNL     1      -0.824  10.212  23.167  0.00  0.00    +0.000 C 
ATOM      3  C   UNL     1       0.422   9.619  22.530  0.00  0.00    +0.000 C 
ATOM      4  C   UNL     1       0.417   9.775  21.034  0.00  0.00    +0.000 A 
ATOM      5  C   UNL     1       1.219   8.910  20.277  0.00  0.00    +0.000 A 
ATOM      6  C   UNL     1       1.299   9.012  18.884  0.00  0.00    +0.000 A 
ATOM      7  C   UNL     1       0.582  10.028  18.245  0.00  0.00    +0.000 A 
ATOM      8  C   UNL     1      -0.228  10.900  18.989  0.00  0.00    +0.000 A 
ATOM      9  C   UNL     1      -0.308  10.776  20.383  0.00  0.00    +0.000 A 
ATOM     10  C   UNL     1      -1.132  11.735  21.172  0.00  0.00    +0.000 C 
ATOM     11  O   UNL     1      -1.771  12.615  20.601  0.00  0.00    +0.000 OA
ENDROOT
BRANCH   6  12
ATOM     12  N   UNL     1       2.103   8.148  18.104  0.00  0.00    +0.000 N 
ATOM     13  C   UNL     1       2.627   6.938  18.536  0.00  0.00    +0.000 C 
ATOM     14  O   UNL     1       2.372   6.387  19.604  0.00  0.00    +0.000 OA
ATOM     15  H   UNL     1       2.291   8.454  17.160  0.00  0.00    +0.000 HD
BRANCH  13  16
ATOM     16  C   UNL     1       3.596   6.248  17.639  0.00  0.00    +0.000 A 
ATOM     17  C   UNL     1       4.488   7.064  16.921  0.00  0.00    +0.000 A 
ATOM     18  C   UNL     1       5.429   6.505  16.056  0.00  0.00    +0.000 A 
ATOM     19  C   UNL     1       5.493   5.120  15.903  0.00  0.00    +0.000 A 
ATOM     20  C   UNL     1       4.619   4.298  16.626  0.00  0.00    +0.000 A 
ATOM     21  C   UNL     1       3.674   4.859  17.497  0.00  0.00    +0.000 A 
BRANCH  19  22
ATOM     22  C   UNL     1       6.484   4.540  14.956  0.00  0.00    +0.000 C 
ATOM     23  N   UNL     1       6.300   3.416  14.342  0.00  0.00    +0.000 NA
ATOM     24  N   UNL     1       7.648   5.198  14.694  0.00  0.00    +0.000 N 
ATOM     25  H   UNL     1       5.431   2.963  14.635  0.00  0.00    +0.000 HD
ATOM     26  H   UNL     1       7.606   6.209  14.676  0.00  0.00    +0.000 HD
ATOM     27  H   UNL     1       8.117   4.807  13.881  0.00  0.00    +0.000 HD
ENDBRANCH  19  22
ENDBRANCH  13  16
ENDBRANCH   6  12
BRANCH   1  28
ATOM     28  C   UNL     1      -2.234  12.311  23.384  0.00  0.00    +0.000 C 
BRANCH  28  29
ATOM     29  C   UNL     1      -2.045  13.785  23.661  0.00  0.00    +0.000 C 
ATOM     30  O   UNL     1      -1.055  14.298  24.159  0.00  0.00    +0.000 OA
BRANCH  29  31
ATOM     31  O   UNL     1      -3.175  14.453  23.292  0.00  0.00    +0.000 OA
BRANCH  31  33
ATOM     32  C   UNL     1      -5.263  15.407  23.934  0.00  0.00    +0.000 C 
ATOM     33  C   UNL     1      -3.826  15.157  24.356  0.00  0.00    +0.000 C 
ENDBRANCH  31  33
ENDBRANCH  29  31
ENDBRANCH  28  29
ENDBRANCH   1  28
TORSDOF 7
ENDMDL
MODEL 7
REMARK VINA RESULT:      -8.2      6.518      9.792
REMARK  Name = 
REMARK  8 active torsions:
REMARK  status: ('A' for Active; 'I' for Inactive)
REMARK    1  A    between atoms: C_1  and  C_2
REMARK    2  A    between atoms: C_2  and  O_3
REMARK    3  A    between atoms: O_3  and  C_4
REMARK    4  A    between atoms: C_4  and  C_6
REMARK    5  A    between atoms: C_6  and  C_7
REMARK    6  A    between atoms: C_12  and  N_13
REMARK    7  A    between atoms: C_14  and  C_16
REMARK    8  A    between atoms: C_19  and  C_20
REMARK                            x       y       z     vdW  Elec       q    Type
REMARK                         _______ _______ _______ _____ _____    ______ ____
ROOT
ATOM      1  C   UNL     1       4.497   3.470  17.351  0.00  0.00    +0.000 C 
ATOM      2  C   UNL     1       3.786   4.649  16.685  0.00  0.00    +0.000 C 
ATOM      3  C   UNL     1       4.795   5.619  16.095  0.00  0.00    +0.000 C 
ATOM      4  C   UNL     1       5.840   6.024  17.098  0.00  0.00    +0.000 A 
ATOM      5  C   UNL     1       6.538   7.220  16.879  0.00  0.00    +0.000 A 
ATOM      6  C   UNL     1       7.549   7.650  17.745  0.00  0.00    +0.000 A 
ATOM      7  C   UNL     1       7.885   6.843  18.836  0.00  0.00    +0.000 A 
ATOM      8  C   UNL     1       7.192   5.645  19.071  0.00  0.00    +0.000 A 
ATOM      9  C   UNL     1       6.172   5.234  18.201  0.00  0.00    +0.000 A 
ATOM     10  C   UNL     1       5.474   3.937  18.429  0.00  0.00    +0.000 C 
ATOM     11  O   UNL     1       5.765   3.241  19.398  0.00  0.00    +0.000 OA
ENDROOT
BRANCH   6  12
ATOM     12  N   UNL     1       8.264   8.853  17.540  0.00  0.00    +0.000 N 
ATOM     13  C   UNL     1       8.882   9.595  18.536  0.00  0.00    +0.000 C 
ATOM     14  O   UNL     1       9.002   9.258  19.711  0.00  0.00    +0.000 OA
ATOM     15  H   UNL     1       8.321   9.174  16.583  0.00  0.00    +0.000 HD
BRANCH  13  16
ATOM     16  C   UNL     1       9.436  10.927  18.160  0.00  0.00    +0.000 A 
ATOM     17  C   UNL     1      10.835  11.062  18.188  0.00  0.00    +0.000 A 
ATOM     18  C   UNL     1      11.442  12.273  17.852  0.00  0.00    +0.000 A 
ATOM     19  C   UNL     1      10.655  13.363  17.480  0.00  0.00    +0.000 A 
ATOM     20  C   UNL     1       9.261  13.233  17.435  0.00  0.00    +0.000 A 
ATOM     21  C   UNL     1       8.650  12.015  17.770  0.00  0.00    +0.000 A 
BRANCH  19  22
ATOM     22  C   UNL     1      11.315  14.656  17.151  0.00  0.00    +0.000 C 
ATOM     23  N   UNL     1      12.314  15.129  17.824  0.00  0.00    +0.000 NA
ATOM     24  N   UNL     1      10.879  15.399  16.096  0.00  0.00    +0.000 N 
ATOM     25  H   UNL     1      12.543  14.539  18.627  0.00  0.00    +0.000 HD
ATOM     26  H   UNL     1      10.546  14.891  15.286  0.00  0.00    +0.000 HD
ATOM     27  H   UNL     1      11.546  16.129  15.859  0.00  0.00    +0.000 HD
ENDBRANCH  19  22
ENDBRANCH  13  16
ENDBRANCH   6  12
BRANCH   1  28
ATOM     28  C   UNL     1       3.510   2.426  17.880  0.00  0.00    +0.000 C 
BRANCH  28  29
ATOM     29  C   UNL     1       2.199   3.008  18.357  0.00  0.00    +0.000 C 
ATOM     30  O   UNL     1       1.213   3.211  17.666  0.00  0.00    +0.000 OA
BRANCH  29  31
ATOM     31  O   UNL     1       2.302   3.301  19.685  0.00  0.00    +0.000 OA
BRANCH  31  33
ATOM     32  C   UNL     1       2.044   5.606  20.236  0.00  0.00    +0.000 C 
ATOM     33  C   UNL     1       1.349   4.258  20.160  0.00  0.00    +0.000 C 
ENDBRANCH  31  33
ENDBRANCH  29  31
ENDBRANCH  28  29
ENDBRANCH   1  28
TORSDOF 7
ENDMDL
MODEL 8
REMARK VINA RESULT:      -8.2      3.610     11.237
REMARK  Name = 
REMARK  8 active torsions:
REMARK  status: ('A' for Active; 'I' for Inactive)
REMARK    1  A    between atoms: C_1  and  C_2
REMARK    2  A    between atoms: C_2  and  O_3
REMARK    3  A    between atoms: O_3  and  C_4
REMARK    4  A    between atoms: C_4  and  C_6
REMARK    5  A    between atoms: C_6  and  C_7
REMARK    6  A    between atoms: C_12  and  N_13
REMARK    7  A    between atoms: C_14  and  C_16
REMARK    8  A    between atoms: C_19  and  C_20
REMARK                            x       y       z     vdW  Elec       q    Type
REMARK                         _______ _______ _______ _____ _____    ______ ____
ROOT
ATOM      1  C   UNL     1       5.878   5.168  16.753  0.00  0.00    +0.000 C 
ATOM      2  C   UNL     1       5.036   6.135  15.919  0.00  0.00    +0.000 C 
ATOM      3  C   UNL     1       4.487   7.254  16.789  0.00  0.00    +0.000 C 
ATOM      4  C   UNL     1       3.782   6.725  18.007  0.00  0.00    +0.000 A 
ATOM      5  C   UNL     1       2.850   7.556  18.643  0.00  0.00    +0.000 A 
ATOM      6  C   UNL     1       2.177   7.154  19.802  0.00  0.00    +0.000 A 
ATOM      7  C   UNL     1       2.475   5.903  20.350  0.00  0.00    +0.000 A 
ATOM      8  C   UNL     1       3.404   5.058  19.722  0.00  0.00    +0.000 A 
ATOM      9  C   UNL     1       4.060   5.470  18.554  0.00  0.00    +0.000 A 
ATOM     10  C   UNL     1       5.080   4.588  17.920  0.00  0.00    +0.000 C 
ATOM     11  O   UNL     1       5.325   3.484  18.398  0.00  0.00    +0.000 OA
ENDROOT
BRANCH   6  12
ATOM     12  N   UNL     1       1.233   7.979  20.458  0.00  0.00    +0.000 N 
ATOM     13  C   UNL     1       0.917   9.279  20.089  0.00  0.00    +0.000 C 
ATOM     14  O   UNL     1       1.314   9.855  19.080  0.00  0.00    +0.000 OA
ATOM     15  H   UNL     1       0.760   7.565  21.249  0.00  0.00    +0.000 HD
BRANCH  13  16
ATOM     16  C   UNL     1       0.031  10.057  21.001  0.00  0.00    +0.000 A 
ATOM     17  C   UNL     1      -0.667  11.139  20.437  0.00  0.00    +0.000 A 
ATOM     18  C   UNL     1      -1.517  11.924  21.216  0.00  0.00    +0.000 A 
ATOM     19  C   UNL     1      -1.684  11.632  22.570  0.00  0.00    +0.000 A 
ATOM     20  C   UNL     1      -1.004  10.547  23.138  0.00  0.00    +0.000 A 
ATOM     21  C   UNL     1      -0.151   9.755  22.354  0.00  0.00    +0.000 A 
BRANCH  19  22
ATOM     22  C   UNL     1      -2.573  12.495  23.394  0.00  0.00    +0.000 C 
ATOM     23  N   UNL     1      -3.673  12.070  23.928  0.00  0.00    +0.000 NA
ATOM     24  N   UNL     1      -2.242  13.797  23.625  0.00  0.00    +0.000 N 
ATOM     25  H   UNL     1      -3.873  11.103  23.662  0.00  0.00    +0.000 HD
ATOM     26  H   UNL     1      -1.257  14.006  23.728  0.00  0.00    +0.000 HD
ATOM     27  H   UNL     1      -2.811  14.195  24.368  0.00  0.00    +0.000 HD
ENDBRANCH  19  22
ENDBRANCH  13  16
ENDBRANCH   6  12
BRANCH   1  28
ATOM     28  C   UNL     1       6.521   4.076  15.894  0.00  0.00    +0.000 C 
BRANCH  28  29
ATOM     29  C   UNL     1       6.704   4.465  14.444  0.00  0.00    +0.000 C 
ATOM     30  O   UNL     1       7.555   5.226  14.010  0.00  0.00    +0.000 OA
BRANCH  29  31
ATOM     31  O   UNL     1       5.742   3.852  13.697  0.00  0.00    +0.000 OA
BRANCH  31  33
ATOM     32  C   UNL     1       4.888   3.213  11.565  0.00  0.00    +0.000 C 
ATOM     33  C   UNL     1       6.143   3.525  12.361  0.00  0.00    +0.000 C 
ENDBRANCH  31  33
ENDBRANCH  29  31
ENDBRANCH  28  29
ENDBRANCH   1  28
TORSDOF 7
ENDMDL
MODEL 9
REMARK VINA RESULT:      -8.0      1.484      2.431
REMARK  Name = 
REMARK  8 active torsions:
REMARK  status: ('A' for Active; 'I' for Inactive)
REMARK    1  A    between atoms: C_1  and  C_2
REMARK    2  A    between atoms: C_2  and  O_3
REMARK    3  A    between atoms: O_3  and  C_4
REMARK    4  A    between atoms: C_4  and  C_6
REMARK    5  A    between atoms: C_6  and  C_7
REMARK    6  A    between atoms: C_12  and  N_13
REMARK    7  A    between atoms: C_14  and  C_16
REMARK    8  A    between atoms: C_19  and  C_20
REMARK                            x       y       z     vdW  Elec       q    Type
REMARK                         _______ _______ _______ _____ _____    ______ ____
ROOT
ATOM      1  C   UNL     1      -1.039  11.469  22.672  0.00  0.00    +0.000 C 
ATOM      2  C   UNL     1      -0.759  10.045  23.153  0.00  0.00    +0.000 C 
ATOM      3  C   UNL     1       0.494   9.494  22.493  0.00  0.00    +0.000 C 
ATOM      4  C   UNL     1       0.450   9.636  20.996  0.00  0.00    +0.000 A 
ATOM      5  C   UNL     1       1.268   8.794  20.229  0.00  0.00    +0.000 A 
ATOM      6  C   UNL     1       1.313   8.886  18.834  0.00  0.00    +0.000 A 
ATOM      7  C   UNL     1       0.544   9.867  18.201  0.00  0.00    +0.000 A 
ATOM      8  C   UNL     1      -0.283  10.715  18.956  0.00  0.00    +0.000 A 
ATOM      9  C   UNL     1      -0.328  10.601  20.352  0.00  0.00    +0.000 A 
ATOM     10  C   UNL     1      -1.170  11.535  21.151  0.00  0.00    +0.000 C 
ATOM     11  O   UNL     1      -1.855  12.385  20.587  0.00  0.00    +0.000 OA
ENDROOT
BRANCH   6  12
ATOM     12  N   UNL     1       2.132   8.046  18.043  0.00  0.00    +0.000 N 
ATOM     13  C   UNL     1       2.701   6.854  18.470  0.00  0.00    +0.000 C 
ATOM     14  O   UNL     1       2.480   6.298  19.543  0.00  0.00    +0.000 OA
ATOM     15  H   UNL     1       2.296   8.356  17.096  0.00  0.00    +0.000 HD
BRANCH  13  16
ATOM     16  C   UNL     1       3.678   6.193  17.560  0.00  0.00    +0.000 A 
ATOM     17  C   UNL     1       4.583   7.031  16.885  0.00  0.00    +0.000 A 
ATOM     18  C   UNL     1       5.533   6.499  16.011  0.00  0.00    +0.000 A 
ATOM     19  C   UNL     1       5.591   5.121  15.807  0.00  0.00    +0.000 A 
ATOM     20  C   UNL     1       4.703   4.277  16.486  0.00  0.00    +0.000 A 
ATOM     21  C   UNL     1       3.750   4.811  17.366  0.00  0.00    +0.000 A 
BRANCH  19  22
ATOM     22  C   UNL     1       6.591   4.571  14.851  0.00  0.00    +0.000 C 
ATOM     23  N   UNL     1       6.379   3.513  14.137  0.00  0.00    +0.000 NA
ATOM     24  N   UNL     1       7.796   5.188  14.689  0.00  0.00    +0.000 N 
ATOM     25  H   UNL     1       5.477   3.083  14.357  0.00  0.00    +0.000 HD
ATOM     26  H   UNL     1       7.803   6.199  14.755  0.00  0.00    +0.000 HD
ATOM     27  H   UNL     1       8.278   4.843  13.864  0.00  0.00    +0.000 HD
ENDBRANCH  19  22
ENDBRANCH  13  16
ENDBRANCH   6  12
BRANCH   1  28
ATOM     28  C   UNL     1      -2.244  12.090  23.383  0.00  0.00    +0.000 C 
BRANCH  28  29
ATOM     29  C   UNL     1      -2.203  13.600  23.455  0.00  0.00    +0.000 C 
ATOM     30  O   UNL     1      -3.160  14.348  23.329  0.00  0.00    +0.000 OA
BRANCH  29  31
ATOM     31  O   UNL     1      -0.914  13.998  23.654  0.00  0.00    +0.000 OA
BRANCH  31  33
ATOM     32  C   UNL     1      -1.322  15.449  25.502  0.00  0.00    +0.000 C 
ATOM     33  C   UNL     1      -0.770  15.355  24.090  0.00  0.00    +0.000 C 
ENDBRANCH  31  33
ENDBRANCH  29  31
ENDBRANCH  28  29
ENDBRANCH   1  28
TORSDOF 7
ENDMDL
