MODEL 1
REMARK VINA RESULT:      -6.4      0.000      0.000
REMARK  Name = 
REMARK  10 active torsions:
REMARK  status: ('A' for Active; 'I' for Inactive)
REMARK    1  A    between atoms: C_1  and  N_2
REMARK    2  A    between atoms: N_2  and  C_3
REMARK    3  A    between atoms: N_2  and  C_4
REMARK    4  A    between atoms: C_4  and  C_5
REMARK    5  A    between atoms: C_5  and  N_6
REMARK    6  A    between atoms: N_6  and  C_7
REMARK    7  A    between atoms: N_6  and  C_8
REMARK    8  A    between atoms: C_10  and  C_11
REMARK    9  A    between atoms: C_11  and  C_12
REMARK   10  A    between atoms: N_20  and  C_21
REMARK                            x       y       z     vdW  Elec       q    Type
REMARK                         _______ _______ _______ _____ _____    ______ ____
ROOT
ATOM      1  C   UNL     1       4.813   5.229  18.112  0.00  0.00    +0.000 A 
ATOM      2  N   UNL     1       4.581   6.524  17.798  0.00  0.00    +0.000 NA
ATOM      3  C   UNL     1       3.303   6.952  17.770  0.00  0.00    +0.000 A 
ATOM      4  N   UNL     1       2.238   6.183  18.038  0.00  0.00    +0.000 NA
ATOM      5  C   UNL     1       2.479   4.893  18.339  0.00  0.00    +0.000 A 
ATOM      6  C   UNL     1       3.762   4.357  18.389  0.00  0.00    +0.000 A 
ATOM      7  C   UNL     1       3.942   2.910  18.765  0.00  0.00    +0.000 C 
ATOM      8  C   UNL     1       3.555   2.661  20.234  0.00  0.00    +0.000 C 
ATOM      9  N   UNL     1       2.112   2.451  20.471  0.00  0.00    +0.000 NA
ATOM     10  C   UNL     1       1.908   2.069  21.875  0.00  0.00    +0.000 C 
ATOM     11  C   UNL     1       1.290   3.644  20.171  0.00  0.00    +0.000 C 
ATOM     12  C   UNL     1       1.274   4.056  18.693  0.00  0.00    +0.000 C 
ENDROOT
BRANCH   1  13
ATOM     13  N   UNL     1       6.158   4.768  18.182  0.00  0.00    +0.000 N 
ATOM     14  C   UNL     1       6.855   5.457  19.277  0.00  0.00    +0.000 C 
BRANCH  13  15
ATOM     15  C   UNL     1       6.855   4.872  16.871  0.00  0.00    +0.000 C 
BRANCH  15  16
ATOM     16  C   UNL     1       6.130   4.029  15.786  0.00  0.00    +0.000 C 
BRANCH  16  18
ATOM     17  C   UNL     1       7.375   5.196  14.091  0.00  0.00    +0.000 C 
ATOM     18  N   UNL     1       6.072   4.608  14.425  0.00  0.00    +0.000 NA
ATOM     19  C   UNL     1       5.713   3.607  13.420  0.00  0.00    +0.000 C 
ENDBRANCH  16  18
ENDBRANCH  15  16
ENDBRANCH  13  15
ENDBRANCH   1  13
BRANCH   3  20
ATOM     20  C   UNL     1       3.045   8.408  17.452  0.00  0.00    +0.000 C 
BRANCH  20  21
ATOM     21  C   UNL     1       2.015   9.004  18.377  0.00  0.00    +0.000 C 
ATOM     22  C   UNL     1       1.739  10.489  18.325  0.00  0.00    +0.000 C 
ATOM     23  C   UNL     1       0.696   9.519  17.849  0.00  0.00    +0.000 C 
ENDBRANCH  20  21
ENDBRANCH   3  20
TORSDOF 6
ENDMDL
MODEL 2
REMARK VINA RESULT:      -6.3      1.132      1.434
REMARK  Name = 
REMARK  10 active torsions:
REMARK  status: ('A' for Active; 'I' for Inactive)
REMARK    1  A    between atoms: C_1  and  N_2
REMARK    2  A    between atoms: N_2  and  C_3
REMARK    3  A    between atoms: N_2  and  C_4
REMARK    4  A    between atoms: C_4  and  C_5
REMARK    5  A    between atoms: C_5  and  N_6
REMARK    6  A    between atoms: N_6  and  C_7
REMARK    7  A    between atoms: N_6  and  C_8
REMARK    8  A    between atoms: C_10  and  C_11
REMARK    9  A    between atoms: C_11  and  C_12
REMARK   10  A    between atoms: N_20  and  C_21
REMARK                            x       y       z     vdW  Elec       q    Type
REMARK                         _______ _______ _______ _____ _____    ______ ____
ROOT
ATOM      1  C   UNL     1       4.439   5.923  17.254  0.00  0.00    +0.000 A 
ATOM      2  N   UNL     1       4.076   7.226  17.260  0.00  0.00    +0.000 NA
ATOM      3  C   UNL     1       2.896   7.555  17.822  0.00  0.00    +0.000 A 
ATOM      4  N   UNL     1       2.051   6.678  18.383  0.00  0.00    +0.000 NA
ATOM      5  C   UNL     1       2.417   5.382  18.362  0.00  0.00    +0.000 A 
ATOM      6  C   UNL     1       3.613   4.944  17.803  0.00  0.00    +0.000 A 
ATOM      7  C   UNL     1       3.957   3.479  17.852  0.00  0.00    +0.000 C 
ATOM      8  C   UNL     1       4.219   3.014  19.295  0.00  0.00    +0.000 C 
ATOM      9  N   UNL     1       3.008   2.664  20.066  0.00  0.00    +0.000 NA
ATOM     10  C   UNL     1       3.413   2.089  21.356  0.00  0.00    +0.000 C 
ATOM     11  C   UNL     1       2.117   3.819  20.310  0.00  0.00    +0.000 C 
ATOM     12  C   UNL     1       1.482   4.416  19.048  0.00  0.00    +0.000 C 
ENDROOT
BRANCH   1  13
ATOM     13  N   UNL     1       5.699   5.562  16.698  0.00  0.00    +0.000 N 
ATOM     14  C   UNL     1       6.763   6.334  17.356  0.00  0.00    +0.000 C 
BRANCH  13  15
ATOM     15  C   UNL     1       5.710   5.673  15.215  0.00  0.00    +0.000 C 
BRANCH  15  16
ATOM     16  C   UNL     1       5.521   4.282  14.550  0.00  0.00    +0.000 C 
BRANCH  16  18
ATOM     17  C   UNL     1       5.910   3.367  12.360  0.00  0.00    +0.000 C 
ATOM     18  N   UNL     1       6.558   3.864  13.580  0.00  0.00    +0.000 NA
ATOM     19  C   UNL     1       7.464   4.962  13.242  0.00  0.00    +0.000 C 
ENDBRANCH  16  18
ENDBRANCH  15  16
ENDBRANCH  13  15
ENDBRANCH   1  13
BRANCH   3  20
ATOM     20  C   UNL     1       2.505   9.015  17.858  0.00  0.00    +0.000 C 
BRANCH  20  21
ATOM     21  C   UNL     1       1.101   9.200  18.374  0.00  0.00    +0.000 C 
ATOM     22  C   UNL     1       0.885   9.752  19.764  0.00  0.00    +0.000 C 
ATOM     23  C   UNL     1       0.515  10.580  18.567  0.00  0.00    +0.000 C 
ENDBRANCH  20  21
ENDBRANCH   3  20
TORSDOF 6
ENDMDL
MODEL 3
REMARK VINA RESULT:      -6.2      1.428      5.278
REMARK  Name = 
REMARK  10 active torsions:
REMARK  status: ('A' for Active; 'I' for Inactive)
REMARK    1  A    between atoms: C_1  and  N_2
REMARK    2  A    between atoms: N_2  and  C_3
REMARK    3  A    between atoms: N_2  and  C_4
REMARK    4  A    between atoms: C_4  and  C_5
REMARK    5  A    between atoms: C_5  and  N_6
REMARK    6  A    between atoms: N_6  and  C_7
REMARK    7  A    between atoms: N_6  and  C_8
REMARK    8  A    between atoms: C_10  and  C_11
REMARK    9  A    between atoms: C_11  and  C_12
REMARK   10  A    between atoms: N_20  and  C_21
REMARK                            x       y       z     vdW  Elec       q    Type
REMARK                         _______ _______ _______ _____ _____    ______ ____
ROOT
ATOM      1  C   UNL     1       2.783   5.652  18.361  0.00  0.00    +0.000 A 
ATOM      2  N   UNL     1       2.141   6.843  18.389  0.00  0.00    +0.000 NA
ATOM      3  C   UNL     1       2.773   7.918  17.878  0.00  0.00    +0.000 A 
ATOM      4  N   UNL     1       4.000   7.892  17.336  0.00  0.00    +0.000 NA
ATOM      5  C   UNL     1       4.634   6.704  17.323  0.00  0.00    +0.000 A 
ATOM      6  C   UNL     1       4.066   5.539  17.829  0.00  0.00    +0.000 A 
ATOM      7  C   UNL     1       4.834   4.247  17.744  0.00  0.00    +0.000 C 
ATOM      8  C   UNL     1       4.992   3.785  16.285  0.00  0.00    +0.000 C 
ATOM      9  N   UNL     1       6.119   4.400  15.555  0.00  0.00    +0.000 NA
ATOM     10  C   UNL     1       6.248   3.754  14.242  0.00  0.00    +0.000 C 
ATOM     11  C   UNL     1       5.966   5.858  15.364  0.00  0.00    +0.000 C 
ATOM     12  C   UNL     1       5.988   6.681  16.658  0.00  0.00    +0.000 C 
ENDROOT
BRANCH   1  13
ATOM     13  N   UNL     1       2.115   4.499  18.863  0.00  0.00    +0.000 N 
ATOM     14  C   UNL     1       1.194   3.983  17.840  0.00  0.00    +0.000 C 
BRANCH  13  15
ATOM     15  C   UNL     1       1.467   4.754  20.177  0.00  0.00    +0.000 C 
BRANCH  15  16
ATOM     16  C   UNL     1       2.456   4.493  21.347  0.00  0.00    +0.000 C 
BRANCH  16  18
ATOM     17  C   UNL     1       1.282   2.423  21.695  0.00  0.00    +0.000 C 
ATOM     18  N   UNL     1       2.584   3.093  21.808  0.00  0.00    +0.000 NA
ATOM     19  C   UNL     1       3.584   2.353  21.037  0.00  0.00    +0.000 C 
ENDBRANCH  16  18
ENDBRANCH  15  16
ENDBRANCH  13  15
ENDBRANCH   1  13
BRANCH   3  20
ATOM     20  C   UNL     1       2.044   9.242  17.880  0.00  0.00    +0.000 C 
BRANCH  20  21
ATOM     21  C   UNL     1       1.035   9.319  18.997  0.00  0.00    +0.000 C 
ATOM     22  C   UNL     1       0.859  10.615  19.754  0.00  0.00    +0.000 C 
ATOM     23  C   UNL     1      -0.235  10.126  18.849  0.00  0.00    +0.000 C 
ENDBRANCH  20  21
ENDBRANCH   3  20
TORSDOF 6
ENDMDL
MODEL 4
REMARK VINA RESULT:      -5.8      1.296      5.434
REMARK  Name = 
REMARK  10 active torsions:
REMARK  status: ('A' for Active; 'I' for Inactive)
REMARK    1  A    between atoms: C_1  and  N_2
REMARK    2  A    between atoms: N_2  and  C_3
REMARK    3  A    between atoms: N_2  and  C_4
REMARK    4  A    between atoms: C_4  and  C_5
REMARK    5  A    between atoms: C_5  and  N_6
REMARK    6  A    between atoms: N_6  and  C_7
REMARK    7  A    between atoms: N_6  and  C_8
REMARK    8  A    between atoms: C_10  and  C_11
REMARK    9  A    between atoms: C_11  and  C_12
REMARK   10  A    between atoms: N_20  and  C_21
REMARK                            x       y       z     vdW  Elec       q    Type
REMARK                         _______ _______ _______ _____ _____    ______ ____
ROOT
ATOM      1  C   UNL     1       3.872   4.376  18.028  0.00  0.00    +0.000 A 
ATOM      2  N   UNL     1       2.952   5.270  18.458  0.00  0.00    +0.000 NA
ATOM      3  C   UNL     1       3.258   6.580  18.388  0.00  0.00    +0.000 A 
ATOM      4  N   UNL     1       4.416   7.067  17.916  0.00  0.00    +0.000 NA
ATOM      5  C   UNL     1       5.328   6.168  17.501  0.00  0.00    +0.000 A 
ATOM      6  C   UNL     1       5.106   4.795  17.537  0.00  0.00    +0.000 A 
ATOM      7  C   UNL     1       6.172   3.863  17.022  0.00  0.00    +0.000 C 
ATOM      8  C   UNL     1       6.352   4.005  15.501  0.00  0.00    +0.000 C 
ATOM      9  N   UNL     1       7.240   5.108  15.080  0.00  0.00    +0.000 NA
ATOM     10  C   UNL     1       7.449   5.027  13.628  0.00  0.00    +0.000 C 
ATOM     11  C   UNL     1       6.710   6.447  15.417  0.00  0.00    +0.000 C 
ATOM     12  C   UNL     1       6.601   6.734  16.921  0.00  0.00    +0.000 C 
ENDROOT
BRANCH   1  13
ATOM     13  N   UNL     1       3.551   2.989  18.060  0.00  0.00    +0.000 N 
ATOM     14  C   UNL     1       2.366   2.742  17.226  0.00  0.00    +0.000 C 
BRANCH  13  15
ATOM     15  C   UNL     1       3.422   2.475  19.450  0.00  0.00    +0.000 C 
BRANCH  15  16
ATOM     16  C   UNL     1       1.954   2.073  19.761  0.00  0.00    +0.000 C 
BRANCH  16  18
ATOM     17  C   UNL     1       2.235   3.095  21.921  0.00  0.00    +0.000 C 
ATOM     18  N   UNL     1       1.276   2.822  20.843  0.00  0.00    +0.000 NA
ATOM     19  C   UNL     1       0.708   4.082  20.362  0.00  0.00    +0.000 C 
ENDBRANCH  16  18
ENDBRANCH  15  16
ENDBRANCH  13  15
ENDBRANCH   1  13
BRANCH   3  20
ATOM     20  C   UNL     1       2.218   7.581  18.838  0.00  0.00    +0.000 C 
BRANCH  20  21
ATOM     21  C   UNL     1       1.931   8.603  17.767  0.00  0.00    +0.000 C 
ATOM     22  C   UNL     1       0.736   9.517  17.911  0.00  0.00    +0.000 C 
ATOM     23  C   UNL     1       2.124  10.080  18.024  0.00  0.00    +0.000 C 
ENDBRANCH  20  21
ENDBRANCH   3  20
TORSDOF 6
ENDMDL
MODEL 5
REMARK VINA RESULT:      -5.8      1.811      6.398
REMARK  Name = 
REMARK  10 active torsions:
REMARK  status: ('A' for Active; 'I' for Inactive)
REMARK    1  A    between atoms: C_1  and  N_2
REMARK    2  A    between atoms: N_2  and  C_3
REMARK    3  A    between atoms: N_2  and  C_4
REMARK    4  A    between atoms: C_4  and  C_5
REMARK    5  A    between atoms: C_5  and  N_6
REMARK    6  A    between atoms: N_6  and  C_7
REMARK    7  A    between atoms: N_6  and  C_8
REMARK    8  A    between atoms: C_10  and  C_11
REMARK    9  A    between atoms: C_11  and  C_12
REMARK   10  A    between atoms: N_20  and  C_21
REMARK                            x       y       z     vdW  Elec       q    Type
REMARK                         _______ _______ _______ _____ _____    ______ ____
ROOT
ATOM      1  C   UNL     1       2.408   6.401  18.653  0.00  0.00    +0.000 A 
ATOM      2  N   UNL     1       1.559   5.518  19.228  0.00  0.00    +0.000 NA
ATOM      3  C   UNL     1       1.676   4.217  18.899  0.00  0.00    +0.000 A 
ATOM      4  N   UNL     1       2.583   3.729  18.040  0.00  0.00    +0.000 NA
ATOM      5  C   UNL     1       3.416   4.617  17.465  0.00  0.00    +0.000 A 
ATOM      6  C   UNL     1       3.371   5.980  17.738  0.00  0.00    +0.000 A 
ATOM      7  C   UNL     1       4.362   6.898  17.073  0.00  0.00    +0.000 C 
ATOM      8  C   UNL     1       5.793   6.633  17.574  0.00  0.00    +0.000 C 
ATOM      9  N   UNL     1       6.496   5.526  16.893  0.00  0.00    +0.000 NA
ATOM     10  C   UNL     1       7.891   5.491  17.353  0.00  0.00    +0.000 C 
ATOM     11  C   UNL     1       5.875   4.205  17.131  0.00  0.00    +0.000 C 
ATOM     12  C   UNL     1       4.466   4.044  16.545  0.00  0.00    +0.000 C 
ENDROOT
BRANCH   1  13
ATOM     13  N   UNL     1       2.323   7.775  19.017  0.00  0.00    +0.000 N 
ATOM     14  C   UNL     1       1.763   7.889  20.372  0.00  0.00    +0.000 C 
BRANCH  13  15
ATOM     15  C   UNL     1       1.595   8.580  18.000  0.00  0.00    +0.000 C 
BRANCH  15  16
ATOM     16  C   UNL     1       1.928  10.091  18.142  0.00  0.00    +0.000 C 
BRANCH  16  18
ATOM     17  C   UNL     1      -0.455  10.257  18.424  0.00  0.00    +0.000 C 
ATOM     18  N   UNL     1       0.817  10.979  18.551  0.00  0.00    +0.000 NA
ATOM     19  C   UNL     1       0.976  11.455  19.926  0.00  0.00    +0.000 C 
ENDBRANCH  16  18
ENDBRANCH  15  16
ENDBRANCH  13  15
ENDBRANCH   1  13
BRANCH   3  20
ATOM     20  C   UNL     1       0.749   3.226  19.566  0.00  0.00    +0.000 C 
BRANCH  20  21
ATOM     21  C   UNL     1       1.489   2.339  20.535  0.00  0.00    +0.000 C 
ATOM     22  C   UNL     1       2.610   2.918  21.367  0.00  0.00    +0.000 C 
ATOM     23  C   UNL     1       1.325   2.505  22.028  0.00  0.00    +0.000 C 
ENDBRANCH  20  21
ENDBRANCH   3  20
TORSDOF 6
ENDMDL
MODEL 6
REMARK VINA RESULT:      -5.7      2.648      5.572
REMARK  Name = 
REMARK  10 active torsions:
REMARK  status: ('A' for Active; 'I' for Inactive)
REMARK    1  A    between atoms: C_1  and  N_2
REMARK    2  A    between atoms: N_2  and  C_3
REMARK    3  A    between atoms: N_2  and  C_4
REMARK    4  A    between atoms: C_4  and  C_5
REMARK    5  A    between atoms: C_5  and  N_6
REMARK    6  A    between atoms: N_6  and  C_7
REMARK    7  A    between atoms: N_6  and  C_8
REMARK    8  A    between atoms: C_10  and  C_11
REMARK    9  A    between atoms: C_11  and  C_12
REMARK   10  A    between atoms: N_20  and  C_21
REMARK                            x       y       z     vdW  Elec       q    Type
REMARK                         _______ _______ _______ _____ _____    ______ ____
ROOT
ATOM      1  C   UNL     1       6.971   5.641  17.053  0.00  0.00    +0.000 A 
ATOM      2  N   UNL     1       7.158   5.488  15.722  0.00  0.00    +0.000 NA
ATOM      3  C   UNL     1       6.372   4.612  15.066  0.00  0.00    +0.000 A 
ATOM      4  N   UNL     1       5.408   3.877  15.642  0.00  0.00    +0.000 NA
ATOM      5  C   UNL     1       5.238   4.030  16.969  0.00  0.00    +0.000 A 
ATOM      6  C   UNL     1       6.002   4.907  17.732  0.00  0.00    +0.000 A 
ATOM      7  C   UNL     1       5.722   5.036  19.206  0.00  0.00    +0.000 C 
ATOM      8  C   UNL     1       4.348   5.681  19.460  0.00  0.00    +0.000 C 
ATOM      9  N   UNL     1       3.205   4.748  19.416  0.00  0.00    +0.000 NA
ATOM     10  C   UNL     1       1.989   5.461  19.832  0.00  0.00    +0.000 C 
ATOM     11  C   UNL     1       2.984   4.156  18.079  0.00  0.00    +0.000 C 
ATOM     12  C   UNL     1       4.113   3.239  17.590  0.00  0.00    +0.000 C 
ENDROOT
BRANCH   1  13
ATOM     13  N   UNL     1       7.768   6.590  17.754  0.00  0.00    +0.000 N 
ATOM     14  C   UNL     1       8.050   6.088  19.107  0.00  0.00    +0.000 C 
BRANCH  13  15
ATOM     15  C   UNL     1       7.166   7.951  17.736  0.00  0.00    +0.000 C 
BRANCH  15  16
ATOM     16  C   UNL     1       8.251   9.037  17.497  0.00  0.00    +0.000 C 
BRANCH  16  18
ATOM     17  C   UNL     1       9.301   9.978  19.446  0.00  0.00    +0.000 C 
ATOM     18  N   UNL     1       8.258  10.184  18.433  0.00  0.00    +0.000 NA
ATOM     19  C   UNL     1       8.490  11.452  17.740  0.00  0.00    +0.000 C 
ENDBRANCH  16  18
ENDBRANCH  15  16
ENDBRANCH  13  15
ENDBRANCH   1  13
BRANCH   3  20
ATOM     20  C   UNL     1       6.557   4.464  13.573  0.00  0.00    +0.000 C 
BRANCH  20  21
ATOM     21  C   UNL     1       5.743   3.321  13.023  0.00  0.00    +0.000 C 
ATOM     22  C   UNL     1       4.872   3.544  11.808  0.00  0.00    +0.000 C 
ATOM     23  C   UNL     1       6.093   2.676  11.702  0.00  0.00    +0.000 C 
ENDBRANCH  20  21
ENDBRANCH   3  20
TORSDOF 6
ENDMDL
MODEL 7
REMARK VINA RESULT:      -5.7      2.077      5.355
REMARK  Name = 
REMARK  10 active torsions:
REMARK  status: ('A' for Active; 'I' for Inactive)
REMARK    1  A    between atoms: C_1  and  N_2
REMARK    2  A    between atoms: N_2  and  C_3
REMARK    3  A    between atoms: N_2  and  C_4
REMARK    4  A    between atoms: C_4  and  C_5
REMARK    5  A    between atoms: C_5  and  N_6
REMARK    6  A    between atoms: N_6  and  C_7
REMARK    7  A    between atoms: N_6  and  C_8
REMARK    8  A    between atoms: C_10  and  C_11
REMARK    9  A    between atoms: C_11  and  C_12
REMARK   10  A    between atoms: N_20  and  C_21
REMARK                            x       y       z     vdW  Elec       q    Type
REMARK                         _______ _______ _______ _____ _____    ______ ____
ROOT
ATOM      1  C   UNL     1       3.083   6.227  18.589  0.00  0.00    +0.000 A 
ATOM      2  N   UNL     1       2.977   5.122  19.362  0.00  0.00    +0.000 NA
ATOM      3  C   UNL     1       2.327   5.228  20.537  0.00  0.00    +0.000 A 
ATOM      4  N   UNL     1       1.769   6.358  20.998  0.00  0.00    +0.000 NA
ATOM      5  C   UNL     1       1.890   7.454  20.226  0.00  0.00    +0.000 A 
ATOM      6  C   UNL     1       2.546   7.445  18.999  0.00  0.00    +0.000 A 
ATOM      7  C   UNL     1       2.606   8.712  18.187  0.00  0.00    +0.000 C 
ATOM      8  C   UNL     1       1.212   9.114  17.674  0.00  0.00    +0.000 C 
ATOM      9  N   UNL     1       0.391   9.877  18.637  0.00  0.00    +0.000 NA
ATOM     10  C   UNL     1      -0.835  10.330  17.967  0.00  0.00    +0.000 C 
ATOM     11  C   UNL     1       0.025   9.098  19.839  0.00  0.00    +0.000 C 
ATOM     12  C   UNL     1       1.208   8.702  20.732  0.00  0.00    +0.000 C 
ENDROOT
BRANCH   1  13
ATOM     13  N   UNL     1       3.735   6.124  17.327  0.00  0.00    +0.000 N 
ATOM     14  C   UNL     1       3.791   4.713  16.919  0.00  0.00    +0.000 C 
BRANCH  13  15
ATOM     15  C   UNL     1       5.060   6.801  17.324  0.00  0.00    +0.000 C 
BRANCH  15  16
ATOM     16  C   UNL     1       6.216   5.763  17.306  0.00  0.00    +0.000 C 
BRANCH  16  18
ATOM     17  C   UNL     1       7.611   7.699  17.602  0.00  0.00    +0.000 C 
ATOM     18  N   UNL     1       7.544   6.240  17.752  0.00  0.00    +0.000 NA
ATOM     19  C   UNL     1       7.815   5.877  19.143  0.00  0.00    +0.000 C 
ENDBRANCH  16  18
ENDBRANCH  15  16
ENDBRANCH  13  15
ENDBRANCH   1  13
BRANCH   3  20
ATOM     20  C   UNL     1       2.179   3.986  21.387  0.00  0.00    +0.000 C 
BRANCH  20  21
ATOM     21  C   UNL     1       1.166   3.033  20.805  0.00  0.00    +0.000 C 
ATOM     22  C   UNL     1       0.699   3.222  19.380  0.00  0.00    +0.000 C 
ATOM     23  C   UNL     1       1.553   2.038  19.736  0.00  0.00    +0.000 C 
ENDBRANCH  20  21
ENDBRANCH   3  20
TORSDOF 6
ENDMDL
MODEL 8
REMARK VINA RESULT:      -5.7      1.267      5.200
REMARK  Name = 
REMARK  10 active torsions:
REMARK  status: ('A' for Active; 'I' for Inactive)
REMARK    1  A    between atoms: C_1  and  N_2
REMARK    2  A    between atoms: N_2  and  C_3
REMARK    3  A    between atoms: N_2  and  C_4
REMARK    4  A    between atoms: C_4  and  C_5
REMARK    5  A    between atoms: C_5  and  N_6
REMARK    6  A    between atoms: N_6  and  C_7
REMARK    7  A    between atoms: N_6  and  C_8
REMARK    8  A    between atoms: C_10  and  C_11
REMARK    9  A    between atoms: C_11  and  C_12
REMARK   10  A    between atoms: N_20  and  C_21
REMARK                            x       y       z     vdW  Elec       q    Type
REMARK                         _______ _______ _______ _____ _____    ______ ____
ROOT
ATOM      1  C   UNL     1       2.931   4.563  17.807  0.00  0.00    +0.000 A 
ATOM      2  N   UNL     1       2.265   5.620  18.326  0.00  0.00    +0.000 NA
ATOM      3  C   UNL     1       2.955   6.755  18.555  0.00  0.00    +0.000 A 
ATOM      4  N   UNL     1       4.262   6.915  18.300  0.00  0.00    +0.000 NA
ATOM      5  C   UNL     1       4.917   5.853  17.794  0.00  0.00    +0.000 A 
ATOM      6  C   UNL     1       4.293   4.639  17.526  0.00  0.00    +0.000 A 
ATOM      7  C   UNL     1       5.097   3.513  16.930  0.00  0.00    +0.000 C 
ATOM      8  C   UNL     1       5.539   3.842  15.493  0.00  0.00    +0.000 C 
ATOM      9  N   UNL     1       6.768   4.655  15.390  0.00  0.00    +0.000 NA
ATOM     10  C   UNL     1       7.159   4.754  13.978  0.00  0.00    +0.000 C 
ATOM     11  C   UNL     1       6.616   6.017  15.946  0.00  0.00    +0.000 C 
ATOM     12  C   UNL     1       6.373   6.068  17.460  0.00  0.00    +0.000 C 
ENDROOT
BRANCH   1  13
ATOM     13  N   UNL     1       2.210   3.368  17.524  0.00  0.00    +0.000 N 
ATOM     14  C   UNL     1       0.767   3.637  17.598  0.00  0.00    +0.000 C 
BRANCH  13  15
ATOM     15  C   UNL     1       2.651   2.232  18.378  0.00  0.00    +0.000 C 
BRANCH  15  16
ATOM     16  C   UNL     1       1.849   2.191  19.708  0.00  0.00    +0.000 C 
BRANCH  16  18
ATOM     17  C   UNL     1       4.040   2.506  20.648  0.00  0.00    +0.000 C 
ATOM     18  N   UNL     1       2.603   2.490  20.946  0.00  0.00    +0.000 NA
ATOM     19  C   UNL     1       2.208   3.773  21.529  0.00  0.00    +0.000 C 
ENDBRANCH  16  18
ENDBRANCH  15  16
ENDBRANCH  13  15
ENDBRANCH   1  13
BRANCH   3  20
ATOM     20  C   UNL     1       2.205   7.947  19.105  0.00  0.00    +0.000 C 
BRANCH  20  21
ATOM     21  C   UNL     1       1.779   8.889  18.008  0.00  0.00    +0.000 C 
ATOM     22  C   UNL     1       0.504   9.685  18.163  0.00  0.00    +0.000 C 
ATOM     23  C   UNL     1       1.832  10.387  18.199  0.00  0.00    +0.000 C 
ENDBRANCH  20  21
ENDBRANCH   3  20
TORSDOF 6
ENDMDL
MODEL 9
REMARK VINA RESULT:      -5.5      1.922      5.986
REMARK  Name = 
REMARK  10 active torsions:
REMARK  status: ('A' for Active; 'I' for Inactive)
REMARK    1  A    between atoms: C_1  and  N_2
REMARK    2  A    between atoms: N_2  and  C_3
REMARK    3  A    between atoms: N_2  and  C_4
REMARK    4  A    between atoms: C_4  and  C_5
REMARK    5  A    between atoms: C_5  and  N_6
REMARK    6  A    between atoms: N_6  and  C_7
REMARK    7  A    between atoms: N_6  and  C_8
REMARK    8  A    between atoms: C_10  and  C_11
REMARK    9  A    between atoms: C_11  and  C_12
REMARK   10  A    between atoms: N_20  and  C_21
REMARK                            x       y       z     vdW  Elec       q    Type
REMARK                         _______ _______ _______ _____ _____    ______ ____
ROOT
ATOM      1  C   UNL     1       3.101   6.732  18.391  0.00  0.00    +0.000 A 
ATOM      2  N   UNL     1       4.088   6.990  17.503  0.00  0.00    +0.000 NA
ATOM      3  C   UNL     1       5.045   6.058  17.328  0.00  0.00    +0.000 A 
ATOM      4  N   UNL     1       5.088   4.882  17.973  0.00  0.00    +0.000 NA
ATOM      5  C   UNL     1       4.106   4.640  18.862  0.00  0.00    +0.000 A 
ATOM      6  C   UNL     1       3.077   5.541  19.114  0.00  0.00    +0.000 A 
ATOM      7  C   UNL     1       2.002   5.175  20.103  0.00  0.00    +0.000 C 
ATOM      8  C   UNL     1       1.138   4.012  19.585  0.00  0.00    +0.000 C 
ATOM      9  N   UNL     1       1.696   2.666  19.828  0.00  0.00    +0.000 NA
ATOM     10  C   UNL     1       0.702   1.658  19.432  0.00  0.00    +0.000 C 
ATOM     11  C   UNL     1       2.957   2.415  19.097  0.00  0.00    +0.000 C 
ATOM     12  C   UNL     1       4.138   3.290  19.536  0.00  0.00    +0.000 C 
ENDROOT
BRANCH   1  13
ATOM     13  N   UNL     1       2.061   7.690  18.561  0.00  0.00    +0.000 N 
ATOM     14  C   UNL     1       2.269   8.809  17.630  0.00  0.00    +0.000 C 
BRANCH  13  15
ATOM     15  C   UNL     1       1.914   8.112  19.980  0.00  0.00    +0.000 C 
BRANCH  15  16
ATOM     16  C   UNL     1       1.218   9.498  20.080  0.00  0.00    +0.000 C 
BRANCH  16  18
ATOM     17  C   UNL     1      -0.296   8.699  21.770  0.00  0.00    +0.000 C 
ATOM     18  N   UNL     1      -0.186   9.502  20.546  0.00  0.00    +0.000 NA
ATOM     19  C   UNL     1      -0.672  10.858  20.804  0.00  0.00    +0.000 C 
ENDBRANCH  16  18
ENDBRANCH  15  16
ENDBRANCH  13  15
ENDBRANCH   1  13
BRANCH   3  20
ATOM     20  C   UNL     1       6.131   6.331  16.312  0.00  0.00    +0.000 C 
BRANCH  20  21
ATOM     21  C   UNL     1       6.632   5.058  15.680  0.00  0.00    +0.000 C 
ATOM     22  C   UNL     1       5.804   4.382  14.611  0.00  0.00    +0.000 C 
ATOM     23  C   UNL     1       7.108   5.032  14.245  0.00  0.00    +0.000 C 
ENDBRANCH  20  21
ENDBRANCH   3  20
TORSDOF 6
ENDMDL
