MODEL 1
REMARK VINA RESULT:      -7.5      0.000      0.000
REMARK  Name = 
REMARK  7 active torsions:
REMARK  status: ('A' for Active; 'I' for Inactive)
REMARK    1  A    between atoms: C_1  and  O_2
REMARK    2  A    between atoms: O_2  and  C_3
REMARK    3  A    between atoms: C_6  and  N_7
REMARK    4  A    between atoms: N_7  and  C_8
REMARK    5  A    between atoms: C_8  and  C_9
REMARK    6  A    between atoms: N_11  and  C_12
REMARK    7  A    between atoms: C_17  and  C_19
REMARK                            x       y       z     vdW  Elec       q    Type
REMARK                         _______ _______ _______ _____ _____    ______ ____
ROOT
ATOM      1  N   UNL     1       4.560   4.265  18.408  0.00  0.00    +0.000 N 
ATOM      2  C   UNL     1       3.881   3.046  18.642  0.00  0.00    +0.000 C 
ATOM      3  O   UNL     1       3.874   2.134  17.812  0.00  0.00    +0.000 OA
ENDROOT
BRANCH   1   7
ATOM      4  C   UNL     1       6.637   4.594  14.719  0.00  0.00    +0.000 A 
ATOM      5  C   UNL     1       5.245   4.490  14.735  0.00  0.00    +0.000 A 
ATOM      6  C   UNL     1       4.544   4.432  15.947  0.00  0.00    +0.000 A 
ATOM      7  C   UNL     1       5.239   4.424  17.159  0.00  0.00    +0.000 A 
ATOM      8  C   UNL     1       6.636   4.511  17.138  0.00  0.00    +0.000 A 
ATOM      9  C   UNL     1       7.332   4.617  15.926  0.00  0.00    +0.000 A 
BRANCH   4  11
ATOM     10  C   UNL     1       6.613   3.752  12.497  0.00  0.00    +0.000 C 
ATOM     11  O   UNL     1       7.203   4.603  13.474  0.00  0.00    +0.000 OA
ENDBRANCH   4  11
ENDBRANCH   1   7
BRANCH   2  12
ATOM     12  C   UNL     1       3.126   2.866  19.888  0.00  0.00    +0.000 A 
ATOM     13  C   UNL     1       1.747   3.002  19.965  0.00  0.00    +0.000 A 
ATOM     14  S   UNL     1       1.273   2.653  21.573  0.00  0.00    +0.000 S 
ATOM     15  N   UNL     1       2.838   2.341  22.061  0.00  0.00    +0.000 NA
ATOM     16  N   UNL     1       3.717   2.481  21.085  0.00  0.00    +0.000 NA
ENDBRANCH   2  12
BRANCH   1  17
ATOM     17  C   UNL     1       4.392   5.473  19.244  0.00  0.00    +0.000 C 
BRANCH  17  18
ATOM     18  C   UNL     1       3.039   6.193  19.075  0.00  0.00    +0.000 C 
ATOM     19  O   UNL     1       2.323   5.977  18.099  0.00  0.00    +0.000 OA
ATOM     20  N   UNL     1       2.700   7.082  20.074  0.00  0.00    +0.000 N 
ATOM     21  H   UNL     1       3.437   7.360  20.708  0.00  0.00    +0.000 HD
BRANCH  20  22
ATOM     22  C   UNL     1       1.465   7.839  20.071  0.00  0.00    +0.000 C 
ATOM     23  C   UNL     1       1.079   8.429  21.425  0.00  0.00    +0.000 C 
ATOM     24  C   UNL     1       0.062   9.509  21.074  0.00  0.00    +0.000 C 
ATOM     25  C   UNL     1       0.466  10.022  19.693  0.00  0.00    +0.000 C 
ATOM     26  C   UNL     1       1.567   9.087  19.197  0.00  0.00    +0.000 C 
ENDBRANCH  20  22
ENDBRANCH  17  18
ENDBRANCH   1  17
TORSDOF 6
ENDMDL
MODEL 2
REMARK VINA RESULT:      -7.5      0.470      1.053
REMARK  Name = 
REMARK  7 active torsions:
REMARK  status: ('A' for Active; 'I' for Inactive)
REMARK    1  A    between atoms: C_1  and  O_2
REMARK    2  A    between atoms: O_2  and  C_3
REMARK    3  A    between atoms: C_6  and  N_7
REMARK    4  A    between atoms: N_7  and  C_8
REMARK    5  A    between atoms: C_8  and  C_9
REMARK    6  A    between atoms: N_11  and  C_12
REMARK    7  A    between atoms: C_17  and  C_19
REMARK                            x       y       z     vdW  Elec       q    Type
REMARK                         _______ _______ _______ _____ _____    ______ ____
ROOT
ATOM      1  N   UNL     1       4.654   4.406  18.560  0.00  0.00    +0.000 N 
ATOM      2  C   UNL     1       3.970   3.175  18.710  0.00  0.00    +0.000 C 
ATOM      3  O   UNL     1       4.029   2.288  17.857  0.00  0.00    +0.000 OA
ENDROOT
BRANCH   1   7
ATOM      4  C   UNL     1       6.890   5.153  15.027  0.00  0.00    +0.000 A 
ATOM      5  C   UNL     1       7.534   4.730  16.191  0.00  0.00    +0.000 A 
ATOM      6  C   UNL     1       6.803   4.431  17.349  0.00  0.00    +0.000 A 
ATOM      7  C   UNL     1       5.417   4.606  17.365  0.00  0.00    +0.000 A 
ATOM      8  C   UNL     1       4.775   5.047  16.202  0.00  0.00    +0.000 A 
ATOM      9  C   UNL     1       5.504   5.299  15.032  0.00  0.00    +0.000 A 
BRANCH   4  11
ATOM     10  C   UNL     1       7.476   4.761  12.758  0.00  0.00    +0.000 C 
ATOM     11  O   UNL     1       7.718   5.449  13.981  0.00  0.00    +0.000 OA
ENDBRANCH   4  11
ENDBRANCH   1   7
BRANCH   2  12
ATOM     12  C   UNL     1       3.133   2.954  19.896  0.00  0.00    +0.000 A 
ATOM     13  C   UNL     1       1.749   3.048  19.873  0.00  0.00    +0.000 A 
ATOM     14  S   UNL     1       1.169   2.661  21.438  0.00  0.00    +0.000 S 
ATOM     15  N   UNL     1       2.704   2.388  22.035  0.00  0.00    +0.000 NA
ATOM     16  N   UNL     1       3.647   2.569  21.127  0.00  0.00    +0.000 NA
ENDBRANCH   2  12
BRANCH   1  17
ATOM     17  C   UNL     1       4.418   5.587  19.416  0.00  0.00    +0.000 C 
BRANCH  17  18
ATOM     18  C   UNL     1       3.062   6.287  19.193  0.00  0.00    +0.000 C 
ATOM     19  O   UNL     1       2.401   6.081  18.177  0.00  0.00    +0.000 OA
ATOM     20  N   UNL     1       2.656   7.147  20.193  0.00  0.00    +0.000 N 
ATOM     21  H   UNL     1       3.354   7.423  20.870  0.00  0.00    +0.000 HD
BRANCH  20  22
ATOM     22  C   UNL     1       1.409   7.883  20.142  0.00  0.00    +0.000 C 
ATOM     23  C   UNL     1       0.995   8.521  21.466  0.00  0.00    +0.000 C 
ATOM     24  C   UNL     1      -0.034   9.568  21.057  0.00  0.00    +0.000 C 
ATOM     25  C   UNL     1       0.380  10.031  19.662  0.00  0.00    +0.000 C 
ATOM     26  C   UNL     1       1.502   9.095  19.219  0.00  0.00    +0.000 C 
ENDBRANCH  20  22
ENDBRANCH  17  18
ENDBRANCH   1  17
TORSDOF 6
ENDMDL
MODEL 3
REMARK VINA RESULT:      -7.2      1.088      1.127
REMARK  Name = 
REMARK  7 active torsions:
REMARK  status: ('A' for Active; 'I' for Inactive)
REMARK    1  A    between atoms: C_1  and  O_2
REMARK    2  A    between atoms: O_2  and  C_3
REMARK    3  A    between atoms: C_6  and  N_7
REMARK    4  A    between atoms: N_7  and  C_8
REMARK    5  A    between atoms: C_8  and  C_9
REMARK    6  A    between atoms: N_11  and  C_12
REMARK    7  A    between atoms: C_17  and  C_19
REMARK                            x       y       z     vdW  Elec       q    Type
REMARK                         _______ _______ _______ _____ _____    ______ ____
ROOT
ATOM      1  N   UNL     1       4.364   4.553  18.612  0.00  0.00    +0.000 N 
ATOM      2  C   UNL     1       3.653   3.329  18.610  0.00  0.00    +0.000 C 
ATOM      3  O   UNL     1       3.805   2.488  17.722  0.00  0.00    +0.000 OA
ENDROOT
BRANCH   1   7
ATOM      4  C   UNL     1       7.072   5.139  15.394  0.00  0.00    +0.000 A 
ATOM      5  C   UNL     1       5.716   5.428  15.233  0.00  0.00    +0.000 A 
ATOM      6  C   UNL     1       4.821   5.288  16.302  0.00  0.00    +0.000 A 
ATOM      7  C   UNL     1       5.270   4.802  17.533  0.00  0.00    +0.000 A 
ATOM      8  C   UNL     1       6.627   4.496  17.685  0.00  0.00    +0.000 A 
ATOM      9  C   UNL     1       7.529   4.683  16.628  0.00  0.00    +0.000 A 
BRANCH   4  11
ATOM     10  C   UNL     1       7.257   4.822  13.046  0.00  0.00    +0.000 C 
ATOM     11  O   UNL     1       7.832   5.279  14.266  0.00  0.00    +0.000 OA
ENDBRANCH   4  11
ENDBRANCH   1   7
BRANCH   2  12
ATOM     12  C   UNL     1       2.674   3.060  19.671  0.00  0.00    +0.000 A 
ATOM     13  C   UNL     1       3.032   2.626  20.939  0.00  0.00    +0.000 A 
ATOM     14  S   UNL     1       1.602   2.495  21.873  0.00  0.00    +0.000 S 
ATOM     15  N   UNL     1       0.629   3.006  20.617  0.00  0.00    +0.000 NA
ATOM     16  N   UNL     1       1.311   3.277  19.518  0.00  0.00    +0.000 NA
ENDBRANCH   2  12
BRANCH   1  17
ATOM     17  C   UNL     1       4.040   5.690  19.498  0.00  0.00    +0.000 C 
BRANCH  17  18
ATOM     18  C   UNL     1       2.779   6.482  19.097  0.00  0.00    +0.000 C 
ATOM     19  O   UNL     1       2.154   6.206  18.075  0.00  0.00    +0.000 OA
ATOM     20  N   UNL     1       2.413   7.505  19.949  0.00  0.00    +0.000 N 
ATOM     21  H   UNL     1       3.100   7.801  20.629  0.00  0.00    +0.000 HD
BRANCH  20  22
ATOM     22  C   UNL     1       1.254   8.344  19.721  0.00  0.00    +0.000 C 
ATOM     23  C   UNL     1       0.782   9.120  20.948  0.00  0.00    +0.000 C 
ATOM     24  C   UNL     1      -0.096  10.221  20.366  0.00  0.00    +0.000 C 
ATOM     25  C   UNL     1       0.490  10.533  18.990  0.00  0.00    +0.000 C 
ATOM     26  C   UNL     1       1.552   9.467  18.730  0.00  0.00    +0.000 C 
ENDBRANCH  20  22
ENDBRANCH  17  18
ENDBRANCH   1  17
TORSDOF 6
ENDMDL
MODEL 4
REMARK VINA RESULT:      -7.2      1.220      1.692
REMARK  Name = 
REMARK  7 active torsions:
REMARK  status: ('A' for Active; 'I' for Inactive)
REMARK    1  A    between atoms: C_1  and  O_2
REMARK    2  A    between atoms: O_2  and  C_3
REMARK    3  A    between atoms: C_6  and  N_7
REMARK    4  A    between atoms: N_7  and  C_8
REMARK    5  A    between atoms: C_8  and  C_9
REMARK    6  A    between atoms: N_11  and  C_12
REMARK    7  A    between atoms: C_17  and  C_19
REMARK                            x       y       z     vdW  Elec       q    Type
REMARK                         _______ _______ _______ _____ _____    ______ ____
ROOT
ATOM      1  N   UNL     1       4.116   4.739  17.992  0.00  0.00    +0.000 N 
ATOM      2  C   UNL     1       4.287   3.781  19.019  0.00  0.00    +0.000 C 
ATOM      3  O   UNL     1       5.294   3.074  19.091  0.00  0.00    +0.000 OA
ENDROOT
BRANCH   1   7
ATOM      4  C   UNL     1       7.087   5.172  14.989  0.00  0.00    +0.000 A 
ATOM      5  C   UNL     1       7.160   5.922  16.164  0.00  0.00    +0.000 A 
ATOM      6  C   UNL     1       6.215   5.752  17.184  0.00  0.00    +0.000 A 
ATOM      7  C   UNL     1       5.152   4.862  17.012  0.00  0.00    +0.000 A 
ATOM      8  C   UNL     1       5.072   4.124  15.826  0.00  0.00    +0.000 A 
ATOM      9  C   UNL     1       6.045   4.262  14.827  0.00  0.00    +0.000 A 
BRANCH   4  11
ATOM     10  C   UNL     1       7.737   5.143  12.703  0.00  0.00    +0.000 C 
ATOM     11  O   UNL     1       8.045   5.460  14.057  0.00  0.00    +0.000 OA
ENDBRANCH   4  11
ENDBRANCH   1   7
BRANCH   2  12
ATOM     12  C   UNL     1       3.221   3.586  20.011  0.00  0.00    +0.000 A 
ATOM     13  C   UNL     1       2.468   2.425  20.094  0.00  0.00    +0.000 A 
ATOM     14  S   UNL     1       1.388   2.591  21.414  0.00  0.00    +0.000 S 
ATOM     15  N   UNL     1       1.953   4.114  21.797  0.00  0.00    +0.000 NA
ATOM     16  N   UNL     1       2.917   4.521  20.991  0.00  0.00    +0.000 NA
ENDBRANCH   2  12
BRANCH   1  17
ATOM     17  C   UNL     1       2.837   5.424  17.711  0.00  0.00    +0.000 C 
BRANCH  17  18
ATOM     18  C   UNL     1       2.743   6.866  18.252  0.00  0.00    +0.000 C 
ATOM     19  O   UNL     1       3.274   7.802  17.657  0.00  0.00    +0.000 OA
ATOM     20  N   UNL     1       2.039   7.024  19.428  0.00  0.00    +0.000 N 
ATOM     21  H   UNL     1       1.835   6.186  19.955  0.00  0.00    +0.000 HD
BRANCH  20  22
ATOM     22  C   UNL     1       1.855   8.310  20.069  0.00  0.00    +0.000 C 
ATOM     23  C   UNL     1       1.018   9.304  19.267  0.00  0.00    +0.000 C 
ATOM     24  C   UNL     1       0.597  10.341  20.301  0.00  0.00    +0.000 C 
ATOM     25  C   UNL     1       0.490   9.585  21.624  0.00  0.00    +0.000 C 
ATOM     26  C   UNL     1       1.053   8.190  21.363  0.00  0.00    +0.000 C 
ENDBRANCH  20  22
ENDBRANCH  17  18
ENDBRANCH   1  17
TORSDOF 6
ENDMDL
MODEL 5
REMARK VINA RESULT:      -6.8      2.009      6.702
REMARK  Name = 
REMARK  7 active torsions:
REMARK  status: ('A' for Active; 'I' for Inactive)
REMARK    1  A    between atoms: C_1  and  O_2
REMARK    2  A    between atoms: O_2  and  C_3
REMARK    3  A    between atoms: C_6  and  N_7
REMARK    4  A    between atoms: N_7  and  C_8
REMARK    5  A    between atoms: C_8  and  C_9
REMARK    6  A    between atoms: N_11  and  C_12
REMARK    7  A    between atoms: C_17  and  C_19
REMARK                            x       y       z     vdW  Elec       q    Type
REMARK                         _______ _______ _______ _____ _____    ______ ____
ROOT
ATOM      1  N   UNL     1       3.088   5.909  19.020  0.00  0.00    +0.000 N 
ATOM      2  C   UNL     1       2.333   4.727  19.214  0.00  0.00    +0.000 C 
ATOM      3  O   UNL     1       1.128   4.758  19.474  0.00  0.00    +0.000 OA
ENDROOT
BRANCH   1   7
ATOM      4  C   UNL     1       0.960   9.572  19.319  0.00  0.00    +0.000 A 
ATOM      5  C   UNL     1       1.182   8.793  20.455  0.00  0.00    +0.000 A 
ATOM      6  C   UNL     1       1.926   7.608  20.380  0.00  0.00    +0.000 A 
ATOM      7  C   UNL     1       2.411   7.164  19.147  0.00  0.00    +0.000 A 
ATOM      8  C   UNL     1       2.172   7.938  18.006  0.00  0.00    +0.000 A 
ATOM      9  C   UNL     1       1.468   9.147  18.093  0.00  0.00    +0.000 A 
BRANCH   4  11
ATOM     10  C   UNL     1      -0.417  10.818  20.801  0.00  0.00    +0.000 C 
ATOM     11  O   UNL     1       0.186  10.682  19.519  0.00  0.00    +0.000 OA
ENDBRANCH   4  11
ENDBRANCH   1   7
BRANCH   2  12
ATOM     12  C   UNL     1       3.003   3.423  19.146  0.00  0.00    +0.000 A 
ATOM     13  C   UNL     1       2.930   2.591  18.038  0.00  0.00    +0.000 A 
ATOM     14  S   UNL     1       3.894   1.210  18.352  0.00  0.00    +0.000 S 
ATOM     15  N   UNL     1       4.348   1.761  19.861  0.00  0.00    +0.000 NA
ATOM     16  N   UNL     1       3.819   2.935  20.158  0.00  0.00    +0.000 NA
ENDBRANCH   2  12
BRANCH   1  17
ATOM     17  C   UNL     1       4.564   5.941  18.960  0.00  0.00    +0.000 C 
BRANCH  17  18
ATOM     18  C   UNL     1       5.149   6.189  17.555  0.00  0.00    +0.000 C 
ATOM     19  O   UNL     1       5.605   7.288  17.243  0.00  0.00    +0.000 OA
ATOM     20  N   UNL     1       5.121   5.114  16.691  0.00  0.00    +0.000 N 
ATOM     21  H   UNL     1       4.534   4.333  16.952  0.00  0.00    +0.000 HD
BRANCH  20  22
ATOM     22  C   UNL     1       5.632   5.177  15.337  0.00  0.00    +0.000 C 
ATOM     23  C   UNL     1       7.145   5.005  15.221  0.00  0.00    +0.000 C 
ATOM     24  C   UNL     1       7.359   4.655  13.753  0.00  0.00    +0.000 C 
ATOM     25  C   UNL     1       6.101   3.902  13.321  0.00  0.00    +0.000 C 
ATOM     26  C   UNL     1       5.114   4.024  14.480  0.00  0.00    +0.000 C 
ENDBRANCH  20  22
ENDBRANCH  17  18
ENDBRANCH   1  17
TORSDOF 6
ENDMDL
MODEL 6
REMARK VINA RESULT:      -6.7      2.008      6.646
REMARK  Name = 
REMARK  7 active torsions:
REMARK  status: ('A' for Active; 'I' for Inactive)
REMARK    1  A    between atoms: C_1  and  O_2
REMARK    2  A    between atoms: O_2  and  C_3
REMARK    3  A    between atoms: C_6  and  N_7
REMARK    4  A    between atoms: N_7  and  C_8
REMARK    5  A    between atoms: C_8  and  C_9
REMARK    6  A    between atoms: N_11  and  C_12
REMARK    7  A    between atoms: C_17  and  C_19
REMARK                            x       y       z     vdW  Elec       q    Type
REMARK                         _______ _______ _______ _____ _____    ______ ____
ROOT
ATOM      1  N   UNL     1       3.058   5.877  19.029  0.00  0.00    +0.000 N 
ATOM      2  C   UNL     1       2.331   4.679  19.228  0.00  0.00    +0.000 C 
ATOM      3  O   UNL     1       1.124   4.683  19.480  0.00  0.00    +0.000 OA
ENDROOT
BRANCH   1   7
ATOM      4  C   UNL     1       1.081   9.613  19.442  0.00  0.00    +0.000 A 
ATOM      5  C   UNL     1       1.522   9.185  18.188  0.00  0.00    +0.000 A 
ATOM      6  C   UNL     1       2.130   7.933  18.030  0.00  0.00    +0.000 A 
ATOM      7  C   UNL     1       2.351   7.116  19.142  0.00  0.00    +0.000 A 
ATOM      8  C   UNL     1       1.923   7.556  20.400  0.00  0.00    +0.000 A 
ATOM      9  C   UNL     1       1.273   8.788  20.548  0.00  0.00    +0.000 A 
BRANCH   4  11
ATOM     10  C   UNL     1       0.659  11.589  20.692  0.00  0.00    +0.000 C 
ATOM     11  O   UNL     1       0.541  10.869  19.469  0.00  0.00    +0.000 OA
ENDBRANCH   4  11
ENDBRANCH   1   7
BRANCH   2  12
ATOM     12  C   UNL     1       3.032   3.391  19.175  0.00  0.00    +0.000 A 
ATOM     13  C   UNL     1       3.027   2.572  18.056  0.00  0.00    +0.000 A 
ATOM     14  S   UNL     1       4.008   1.209  18.396  0.00  0.00    +0.000 S 
ATOM     15  N   UNL     1       4.382   1.751  19.930  0.00  0.00    +0.000 NA
ATOM     16  N   UNL     1       3.814   2.908  20.217  0.00  0.00    +0.000 NA
ENDBRANCH   2  12
BRANCH   1  17
ATOM     17  C   UNL     1       4.533   5.945  18.978  0.00  0.00    +0.000 C 
BRANCH  17  18
ATOM     18  C   UNL     1       5.122   6.189  17.573  0.00  0.00    +0.000 C 
ATOM     19  O   UNL     1       5.583   7.285  17.261  0.00  0.00    +0.000 OA
ATOM     20  N   UNL     1       5.089   5.113  16.711  0.00  0.00    +0.000 N 
ATOM     21  H   UNL     1       4.498   4.335  16.971  0.00  0.00    +0.000 HD
BRANCH  20  22
ATOM     22  C   UNL     1       5.602   5.172  15.356  0.00  0.00    +0.000 C 
ATOM     23  C   UNL     1       7.120   5.051  15.247  0.00  0.00    +0.000 C 
ATOM     24  C   UNL     1       7.351   4.685  13.786  0.00  0.00    +0.000 C 
ATOM     25  C   UNL     1       6.121   3.883  13.363  0.00  0.00    +0.000 C 
ATOM     26  C   UNL     1       5.127   3.989  14.517  0.00  0.00    +0.000 C 
ENDBRANCH  20  22
ENDBRANCH  17  18
ENDBRANCH   1  17
TORSDOF 6
ENDMDL
MODEL 7
REMARK VINA RESULT:      -6.7      2.079      6.717
REMARK  Name = 
REMARK  7 active torsions:
REMARK  status: ('A' for Active; 'I' for Inactive)
REMARK    1  A    between atoms: C_1  and  O_2
REMARK    2  A    between atoms: O_2  and  C_3
REMARK    3  A    between atoms: C_6  and  N_7
REMARK    4  A    between atoms: N_7  and  C_8
REMARK    5  A    between atoms: C_8  and  C_9
REMARK    6  A    between atoms: N_11  and  C_12
REMARK    7  A    between atoms: C_17  and  C_19
REMARK                            x       y       z     vdW  Elec       q    Type
REMARK                         _______ _______ _______ _____ _____    ______ ____
ROOT
ATOM      1  N   UNL     1       3.048   6.022  18.879  0.00  0.00    +0.000 N 
ATOM      2  C   UNL     1       2.316   4.836  19.125  0.00  0.00    +0.000 C 
ATOM      3  O   UNL     1       1.132   4.859  19.469  0.00  0.00    +0.000 OA
ENDROOT
BRANCH   1   7
ATOM      4  C   UNL     1       0.930   9.676  19.315  0.00  0.00    +0.000 A 
ATOM      5  C   UNL     1       1.143   8.851  20.420  0.00  0.00    +0.000 A 
ATOM      6  C   UNL     1       1.884   7.667  20.300  0.00  0.00    +0.000 A 
ATOM      7  C   UNL     1       2.375   7.273  19.053  0.00  0.00    +0.000 A 
ATOM      8  C   UNL     1       2.145   8.094  17.944  0.00  0.00    +0.000 A 
ATOM      9  C   UNL     1       1.445   9.301  18.076  0.00  0.00    +0.000 A 
BRANCH   4  11
ATOM     10  C   UNL     1      -1.199  10.715  19.134  0.00  0.00    +0.000 C 
ATOM     11  O   UNL     1       0.159  10.780  19.556  0.00  0.00    +0.000 OA
ENDBRANCH   4  11
ENDBRANCH   1   7
BRANCH   2  12
ATOM     12  C   UNL     1       2.987   3.535  19.010  0.00  0.00    +0.000 A 
ATOM     13  C   UNL     1       3.583   2.893  20.086  0.00  0.00    +0.000 A 
ATOM     14  S   UNL     1       4.190   1.390  19.532  0.00  0.00    +0.000 S 
ATOM     15  N   UNL     1       3.649   1.646  17.974  0.00  0.00    +0.000 NA
ATOM     16  N   UNL     1       3.029   2.804  17.831  0.00  0.00    +0.000 NA
ENDBRANCH   2  12
BRANCH   1  17
ATOM     17  C   UNL     1       4.516   6.063  18.716  0.00  0.00    +0.000 C 
BRANCH  17  18
ATOM     18  C   UNL     1       5.019   5.733  17.295  0.00  0.00    +0.000 C 
ATOM     19  O   UNL     1       4.808   6.496  16.355  0.00  0.00    +0.000 OA
ATOM     20  N   UNL     1       5.704   4.543  17.159  0.00  0.00    +0.000 N 
ATOM     21  H   UNL     1       5.634   3.885  17.924  0.00  0.00    +0.000 HD
BRANCH  20  22
ATOM     22  C   UNL     1       6.244   4.084  15.895  0.00  0.00    +0.000 C 
ATOM     23  C   UNL     1       5.210   3.934  14.781  0.00  0.00    +0.000 C 
ATOM     24  C   UNL     1       6.049   3.903  13.510  0.00  0.00    +0.000 C 
ATOM     25  C   UNL     1       7.275   4.766  13.803  0.00  0.00    +0.000 C 
ATOM     26  C   UNL     1       7.217   5.095  15.293  0.00  0.00    +0.000 C 
ENDBRANCH  20  22
ENDBRANCH  17  18
ENDBRANCH   1  17
TORSDOF 6
ENDMDL
MODEL 8
REMARK VINA RESULT:      -6.7      2.127      6.458
REMARK  Name = 
REMARK  7 active torsions:
REMARK  status: ('A' for Active; 'I' for Inactive)
REMARK    1  A    between atoms: C_1  and  O_2
REMARK    2  A    between atoms: O_2  and  C_3
REMARK    3  A    between atoms: C_6  and  N_7
REMARK    4  A    between atoms: N_7  and  C_8
REMARK    5  A    between atoms: C_8  and  C_9
REMARK    6  A    between atoms: N_11  and  C_12
REMARK    7  A    between atoms: C_17  and  C_19
REMARK                            x       y       z     vdW  Elec       q    Type
REMARK                         _______ _______ _______ _____ _____    ______ ____
ROOT
ATOM      1  N   UNL     1       3.275   5.640  19.086  0.00  0.00    +0.000 N 
ATOM      2  C   UNL     1       2.527   4.439  19.075  0.00  0.00    +0.000 C 
ATOM      3  O   UNL     1       1.295   4.437  19.040  0.00  0.00    +0.000 OA
ENDROOT
BRANCH   1   7
ATOM      4  C   UNL     1       1.252   9.374  19.119  0.00  0.00    +0.000 A 
ATOM      5  C   UNL     1       1.815   8.890  17.937  0.00  0.00    +0.000 A 
ATOM      6  C   UNL     1       2.441   7.637  17.901  0.00  0.00    +0.000 A 
ATOM      7  C   UNL     1       2.555   6.877  19.068  0.00  0.00    +0.000 A 
ATOM      8  C   UNL     1       2.005   7.373  20.255  0.00  0.00    +0.000 A 
ATOM      9  C   UNL     1       1.337   8.605  20.278  0.00  0.00    +0.000 A 
BRANCH   4  11
ATOM     10  C   UNL     1      -0.698  10.696  18.809  0.00  0.00    +0.000 C 
ATOM     11  O   UNL     1       0.706  10.625  19.031  0.00  0.00    +0.000 OA
ENDBRANCH   4  11
ENDBRANCH   1   7
BRANCH   2  12
ATOM     12  C   UNL     1       3.228   3.151  19.149  0.00  0.00    +0.000 A 
ATOM     13  C   UNL     1       3.752   2.640  20.328  0.00  0.00    +0.000 A 
ATOM     14  S   UNL     1       4.426   1.104  19.982  0.00  0.00    +0.000 S 
ATOM     15  N   UNL     1       4.000   1.181  18.370  0.00  0.00    +0.000 NA
ATOM     16  N   UNL     1       3.372   2.302  18.060  0.00  0.00    +0.000 NA
ENDBRANCH   2  12
BRANCH   1  17
ATOM     17  C   UNL     1       4.721   5.706  19.381  0.00  0.00    +0.000 C 
BRANCH  17  18
ATOM     18  C   UNL     1       5.624   4.988  18.358  0.00  0.00    +0.000 C 
ATOM     19  O   UNL     1       6.652   4.414  18.712  0.00  0.00    +0.000 OA
ATOM     20  N   UNL     1       5.206   5.039  17.044  0.00  0.00    +0.000 N 
ATOM     21  H   UNL     1       4.485   5.711  16.819  0.00  0.00    +0.000 HD
BRANCH  20  22
ATOM     22  C   UNL     1       5.937   4.415  15.959  0.00  0.00    +0.000 C 
ATOM     23  C   UNL     1       5.098   4.117  14.719  0.00  0.00    +0.000 C 
ATOM     24  C   UNL     1       6.134   3.916  13.620  0.00  0.00    +0.000 C 
ATOM     25  C   UNL     1       7.313   4.810  13.996  0.00  0.00    +0.000 C 
ATOM     26  C   UNL     1       7.017   5.336  15.399  0.00  0.00    +0.000 C 
ENDBRANCH  20  22
ENDBRANCH  17  18
ENDBRANCH   1  17
TORSDOF 6
ENDMDL
MODEL 9
REMARK VINA RESULT:      -6.7      1.962      6.577
REMARK  Name = 
REMARK  7 active torsions:
REMARK  status: ('A' for Active; 'I' for Inactive)
REMARK    1  A    between atoms: C_1  and  O_2
REMARK    2  A    between atoms: O_2  and  C_3
REMARK    3  A    between atoms: C_6  and  N_7
REMARK    4  A    between atoms: N_7  and  C_8
REMARK    5  A    between atoms: C_8  and  C_9
REMARK    6  A    between atoms: N_11  and  C_12
REMARK    7  A    between atoms: C_17  and  C_19
REMARK                            x       y       z     vdW  Elec       q    Type
REMARK                         _______ _______ _______ _____ _____    ______ ____
ROOT
ATOM      1  N   UNL     1       3.005   5.988  19.010  0.00  0.00    +0.000 N 
ATOM      2  C   UNL     1       2.319   4.784  19.298  0.00  0.00    +0.000 C 
ATOM      3  O   UNL     1       1.135   4.773  19.641  0.00  0.00    +0.000 OA
ENDROOT
BRANCH   1   7
ATOM      4  C   UNL     1       0.984   9.693  19.480  0.00  0.00    +0.000 A 
ATOM      5  C   UNL     1       1.450   9.301  18.224  0.00  0.00    +0.000 A 
ATOM      6  C   UNL     1       2.074   8.059  18.046  0.00  0.00    +0.000 A 
ATOM      7  C   UNL     1       2.284   7.217  19.141  0.00  0.00    +0.000 A 
ATOM      8  C   UNL     1       1.830   7.621  20.402  0.00  0.00    +0.000 A 
ATOM      9  C   UNL     1       1.165   8.843  20.569  0.00  0.00    +0.000 A 
BRANCH   4  11
ATOM     10  C   UNL     1       1.208  12.007  18.991  0.00  0.00    +0.000 C 
ATOM     11  O   UNL     1       0.431  10.942  19.529  0.00  0.00    +0.000 OA
ENDBRANCH   4  11
ENDBRANCH   1   7
BRANCH   2  12
ATOM     12  C   UNL     1       3.041   3.507  19.229  0.00  0.00    +0.000 A 
ATOM     13  C   UNL     1       2.778   2.540  18.269  0.00  0.00    +0.000 A 
ATOM     14  S   UNL     1       3.876   1.247  18.510  0.00  0.00    +0.000 S 
ATOM     15  N   UNL     1       4.616   2.000  19.803  0.00  0.00    +0.000 NA
ATOM     16  N   UNL     1       4.091   3.181  20.077  0.00  0.00    +0.000 NA
ENDBRANCH   2  12
BRANCH   1  17
ATOM     17  C   UNL     1       4.471   6.080  18.846  0.00  0.00    +0.000 C 
BRANCH  17  18
ATOM     18  C   UNL     1       4.985   5.754  17.429  0.00  0.00    +0.000 C 
ATOM     19  O   UNL     1       4.771   6.513  16.486  0.00  0.00    +0.000 OA
ATOM     20  N   UNL     1       5.683   4.571  17.298  0.00  0.00    +0.000 N 
ATOM     21  H   UNL     1       5.615   3.913  18.063  0.00  0.00    +0.000 HD
BRANCH  20  22
ATOM     22  C   UNL     1       6.235   4.116  16.038  0.00  0.00    +0.000 C 
ATOM     23  C   UNL     1       5.208   3.947  14.921  0.00  0.00    +0.000 C 
ATOM     24  C   UNL     1       6.052   3.924  13.652  0.00  0.00    +0.000 C 
ATOM     25  C   UNL     1       7.264   4.806  13.947  0.00  0.00    +0.000 C 
ATOM     26  C   UNL     1       7.194   5.139  15.436  0.00  0.00    +0.000 C 
ENDBRANCH  20  22
ENDBRANCH  17  18
ENDBRANCH   1  17
TORSDOF 6
ENDMDL
