MODEL 1
REMARK VINA RESULT:      -7.3      0.000      0.000
REMARK  Name = 
REMARK  7 active torsions:
REMARK  status: ('A' for Active; 'I' for Inactive)
REMARK    1  A    between atoms: C_2  and  C_3
REMARK    2  A    between atoms: C_8  and  O_9
REMARK    3  A    between atoms: O_9  and  C_10
REMARK    4  A    between atoms: N_14  and  C_15
REMARK    5  A    between atoms: C_20  and  C_21
REMARK    6  A    between atoms: C_28  and  O_29
REMARK    7  A    between atoms: O_29  and  C_30
REMARK                            x       y       z     vdW  Elec       q    Type
REMARK                         _______ _______ _______ _____ _____    ______ ____
ROOT
ATOM      1  C   UNL     1       2.330   6.767  18.983  0.00  0.00    +0.000 A 
ATOM      2  C   UNL     1       2.232   8.161  19.075  0.00  0.00    +0.000 A 
ATOM      3  C   UNL     1       1.605   8.807  20.192  0.00  0.00    +0.000 A 
ATOM      4  C   UNL     1       1.427  10.200  20.367  0.00  0.00    +0.000 A 
ATOM      5  N   UNL     1       1.862  11.078  19.348  0.00  0.00    +0.000 N 
ATOM      6  N   UNL     1       0.813  10.731  21.442  0.00  0.00    +0.000 NA
ATOM      7  C   UNL     1       0.358   9.873  22.355  0.00  0.00    +0.000 A 
ATOM      8  N   UNL     1       0.447   8.541  22.286  0.00  0.00    +0.000 NA
ATOM      9  C   UNL     1       1.065   8.023  21.223  0.00  0.00    +0.000 A 
ATOM     10  C   UNL     1       1.201   6.648  21.140  0.00  0.00    +0.000 A 
ATOM     11  C   UNL     1       1.871   6.028  20.073  0.00  0.00    +0.000 A 
ATOM     12  H   UNL     1       2.855  10.984  19.168  0.00  0.00    +0.000 HD
ENDROOT
BRANCH   5  13
ATOM     13  C   UNL     1       1.318  12.324  18.963  0.00  0.00    +0.000 A 
ATOM     14  C   UNL     1      -0.071  12.458  18.858  0.00  0.00    +0.000 A 
ATOM     15  C   UNL     1      -0.658  13.714  18.672  0.00  0.00    +0.000 A 
ATOM     16  C   UNL     1       0.131  14.866  18.600  0.00  0.00    +0.000 A 
ATOM     17 CL   UNL     1      -0.679  16.380  18.425  0.00  0.00    +0.000 Cl
ATOM     18  C   UNL     1       1.521  14.769  18.699  0.00  0.00    +0.000 A 
ATOM     19  C   UNL     1       2.460  15.942  18.644  0.00  0.00    +0.000 C 
ATOM     20  C   UNL     1       2.091  13.492  18.872  0.00  0.00    +0.000 A 
ENDBRANCH   5  13
BRANCH  11  21
ATOM     21  O   UNL     1       2.087   4.680  20.197  0.00  0.00    +0.000 OA
ATOM     22  C   UNL     1       0.836   3.994  20.101  0.00  0.00    +0.000 C 
ENDBRANCH  11  21
BRANCH   1  23
ATOM     23  O   UNL     1       2.976   6.228  17.885  0.00  0.00    +0.000 OA
BRANCH  23  29
ATOM     24  C   UNL     1       6.534   4.801  14.610  0.00  0.00    +0.000 C 
ATOM     25  O   UNL     1       7.450   5.594  14.388  0.00  0.00    +0.000 OA
ATOM     26  N   UNL     1       5.601   5.012  15.621  0.00  0.00    +0.000 N 
ATOM     27  C   UNL     1       5.670   6.291  16.313  0.00  0.00    +0.000 C 
ATOM     28  C   UNL     1       5.471   6.111  17.811  0.00  0.00    +0.000 C 
ATOM     29  C   UNL     1       4.145   5.413  18.170  0.00  0.00    +0.000 C 
ATOM     30  C   UNL     1       4.064   4.103  17.363  0.00  0.00    +0.000 C 
ATOM     31  C   UNL     1       4.353   4.277  15.862  0.00  0.00    +0.000 C 
BRANCH  24  33
ATOM     32  C   UNL     1       6.528   3.681  12.436  0.00  0.00    +0.000 C 
ATOM     33  C   UNL     1       6.434   3.572  13.774  0.00  0.00    +0.000 C 
ENDBRANCH  24  33
ENDBRANCH  23  29
ENDBRANCH   1  23
TORSDOF 5
ENDMDL
MODEL 2
REMARK VINA RESULT:      -7.1      4.313      7.137
REMARK  Name = 
REMARK  7 active torsions:
REMARK  status: ('A' for Active; 'I' for Inactive)
REMARK    1  A    between atoms: C_2  and  C_3
REMARK    2  A    between atoms: C_8  and  O_9
REMARK    3  A    between atoms: O_9  and  C_10
REMARK    4  A    between atoms: N_14  and  C_15
REMARK    5  A    between atoms: C_20  and  C_21
REMARK    6  A    between atoms: C_28  and  O_29
REMARK    7  A    between atoms: O_29  and  C_30
REMARK                            x       y       z     vdW  Elec       q    Type
REMARK                         _______ _______ _______ _____ _____    ______ ____
ROOT
ATOM      1  C   UNL     1       1.172  12.437  19.604  0.00  0.00    +0.000 A 
ATOM      2  C   UNL     1      -0.188  12.572  19.910  0.00  0.00    +0.000 A 
ATOM      3  C   UNL     1      -0.799  13.854  20.112  0.00  0.00    +0.000 A 
ATOM      4  C   UNL     1      -2.150  14.098  20.455  0.00  0.00    +0.000 A 
ATOM      5  N   UNL     1      -3.012  12.998  20.663  0.00  0.00    +0.000 N 
ATOM      6  N   UNL     1      -2.646  15.337  20.642  0.00  0.00    +0.000 NA
ATOM      7  C   UNL     1      -1.793  16.350  20.500  0.00  0.00    +0.000 A 
ATOM      8  N   UNL     1      -0.494  16.241  20.204  0.00  0.00    +0.000 NA
ATOM      9  C   UNL     1      -0.013  15.012  20.009  0.00  0.00    +0.000 A 
ATOM     10  C   UNL     1       1.321  14.870  19.669  0.00  0.00    +0.000 A 
ATOM     11  C   UNL     1       1.895  13.614  19.412  0.00  0.00    +0.000 A 
ATOM     12  H   UNL     1      -3.076  12.407  19.841  0.00  0.00    +0.000 HD
ENDROOT
BRANCH   5  13
ATOM     13  C   UNL     1      -4.116  12.891  21.540  0.00  0.00    +0.000 A 
ATOM     14  C   UNL     1      -3.906  13.017  22.917  0.00  0.00    +0.000 A 
ATOM     15  C   UNL     1      -4.986  13.114  23.801  0.00  0.00    +0.000 A 
ATOM     16  C   UNL     1      -6.300  13.101  23.324  0.00  0.00    +0.000 A 
ATOM     17 CL   UNL     1      -7.570  13.281  24.478  0.00  0.00    +0.000 Cl
ATOM     18  C   UNL     1      -6.546  12.976  21.955  0.00  0.00    +0.000 A 
ATOM     19  C   UNL     1      -7.917  12.960  21.337  0.00  0.00    +0.000 C 
ATOM     20  C   UNL     1      -5.443  12.865  21.085  0.00  0.00    +0.000 A 
ENDBRANCH   5  13
BRANCH  11  21
ATOM     21  O   UNL     1       3.174  13.624  18.918  0.00  0.00    +0.000 OA
ATOM     22  C   UNL     1       3.438  14.898  18.325  0.00  0.00    +0.000 C 
ENDBRANCH  11  21
BRANCH   1  23
ATOM     23  O   UNL     1       1.672  11.164  19.396  0.00  0.00    +0.000 OA
BRANCH  23  29
ATOM     24  C   UNL     1       2.502   6.195  19.198  0.00  0.00    +0.000 C 
ATOM     25  O   UNL     1       2.506   5.579  20.266  0.00  0.00    +0.000 OA
ATOM     26  N   UNL     1       2.109   7.528  19.116  0.00  0.00    +0.000 N 
ATOM     27  C   UNL     1       1.841   8.207  20.375  0.00  0.00    +0.000 C 
ATOM     28  C   UNL     1       0.600   9.082  20.269  0.00  0.00    +0.000 C 
ATOM     29  C   UNL     1       0.687  10.127  19.139  0.00  0.00    +0.000 C 
ATOM     30  C   UNL     1       1.050   9.389  17.836  0.00  0.00    +0.000 C 
ATOM     31  C   UNL     1       2.252   8.438  17.973  0.00  0.00    +0.000 C 
BRANCH  24  33
ATOM     32  C   UNL     1       3.507   4.275  18.065  0.00  0.00    +0.000 C 
ATOM     33  C   UNL     1       2.920   5.481  17.959  0.00  0.00    +0.000 C 
ENDBRANCH  24  33
ENDBRANCH  23  29
ENDBRANCH   1  23
TORSDOF 5
ENDMDL
MODEL 3
REMARK VINA RESULT:      -7.0      4.713      9.253
REMARK  Name = 
REMARK  7 active torsions:
REMARK  status: ('A' for Active; 'I' for Inactive)
REMARK    1  A    between atoms: C_2  and  C_3
REMARK    2  A    between atoms: C_8  and  O_9
REMARK    3  A    between atoms: O_9  and  C_10
REMARK    4  A    between atoms: N_14  and  C_15
REMARK    5  A    between atoms: C_20  and  C_21
REMARK    6  A    between atoms: C_28  and  O_29
REMARK    7  A    between atoms: O_29  and  C_30
REMARK                            x       y       z     vdW  Elec       q    Type
REMARK                         _______ _______ _______ _____ _____    ______ ____
ROOT
ATOM      1  C   UNL     1       1.992  13.886  19.485  0.00  0.00    +0.000 A 
ATOM      2  C   UNL     1       2.094  12.579  18.994  0.00  0.00    +0.000 A 
ATOM      3  C   UNL     1       0.937  11.772  18.733  0.00  0.00    +0.000 A 
ATOM      4  C   UNL     1       0.930  10.436  18.267  0.00  0.00    +0.000 A 
ATOM      5  N   UNL     1       2.164   9.778  18.059  0.00  0.00    +0.000 N 
ATOM      6  N   UNL     1      -0.204   9.738  18.060  0.00  0.00    +0.000 NA
ATOM      7  C   UNL     1      -1.349  10.365  18.325  0.00  0.00    +0.000 A 
ATOM      8  N   UNL     1      -1.465  11.613  18.791  0.00  0.00    +0.000 NA
ATOM      9  C   UNL     1      -0.338  12.301  18.984  0.00  0.00    +0.000 A 
ATOM     10  C   UNL     1      -0.429  13.607  19.434  0.00  0.00    +0.000 A 
ATOM     11  C   UNL     1       0.707  14.409  19.627  0.00  0.00    +0.000 A 
ATOM     12  H   UNL     1       2.741  10.265  17.382  0.00  0.00    +0.000 HD
ENDROOT
BRANCH   5  13
ATOM     13  C   UNL     1       2.470   8.406  18.202  0.00  0.00    +0.000 A 
ATOM     14  C   UNL     1       3.435   7.833  17.368  0.00  0.00    +0.000 A 
ATOM     15  C   UNL     1       3.908   6.537  17.602  0.00  0.00    +0.000 A 
ATOM     16  C   UNL     1       3.434   5.791  18.686  0.00  0.00    +0.000 A 
ATOM     17 CL   UNL     1       4.111   4.224  18.933  0.00  0.00    +0.000 Cl
ATOM     18  C   UNL     1       2.469   6.332  19.539  0.00  0.00    +0.000 A 
ATOM     19  C   UNL     1       1.900   5.622  20.735  0.00  0.00    +0.000 C 
ATOM     20  C   UNL     1       1.998   7.633  19.275  0.00  0.00    +0.000 A 
ENDBRANCH   5  13
BRANCH  11  21
ATOM     21  O   UNL     1       0.474  15.731  19.906  0.00  0.00    +0.000 OA
ATOM     22  C   UNL     1      -0.584  16.207  19.070  0.00  0.00    +0.000 C 
ENDBRANCH  11  21
BRANCH   1  23
ATOM     23  O   UNL     1       3.159  14.604  19.681  0.00  0.00    +0.000 OA
BRANCH  23  29
ATOM     24  C   UNL     1       7.699  16.414  18.441  0.00  0.00    +0.000 C 
ATOM     25  O   UNL     1       8.350  15.784  17.606  0.00  0.00    +0.000 OA
ATOM     26  N   UNL     1       6.370  16.110  18.725  0.00  0.00    +0.000 N 
ATOM     27  C   UNL     1       5.827  14.916  18.094  0.00  0.00    +0.000 C 
ATOM     28  C   UNL     1       4.411  15.161  17.592  0.00  0.00    +0.000 C 
ATOM     29  C   UNL     1       3.446  15.633  18.696  0.00  0.00    +0.000 C 
ATOM     30  C   UNL     1       4.084  16.848  19.398  0.00  0.00    +0.000 C 
ATOM     31  C   UNL     1       5.545  16.623  19.825  0.00  0.00    +0.000 C 
BRANCH  24  33
ATOM     32  C   UNL     1       9.654  17.802  18.919  0.00  0.00    +0.000 C 
ATOM     33  C   UNL     1       8.355  17.543  19.157  0.00  0.00    +0.000 C 
ENDBRANCH  24  33
ENDBRANCH  23  29
ENDBRANCH   1  23
TORSDOF 5
ENDMDL
MODEL 4
REMARK VINA RESULT:      -7.0      4.755      9.400
REMARK  Name = 
REMARK  7 active torsions:
REMARK  status: ('A' for Active; 'I' for Inactive)
REMARK    1  A    between atoms: C_2  and  C_3
REMARK    2  A    between atoms: C_8  and  O_9
REMARK    3  A    between atoms: O_9  and  C_10
REMARK    4  A    between atoms: N_14  and  C_15
REMARK    5  A    between atoms: C_20  and  C_21
REMARK    6  A    between atoms: C_28  and  O_29
REMARK    7  A    between atoms: O_29  and  C_30
REMARK                            x       y       z     vdW  Elec       q    Type
REMARK                         _______ _______ _______ _____ _____    ______ ____
ROOT
ATOM      1  C   UNL     1       2.091  14.058  19.074  0.00  0.00    +0.000 A 
ATOM      2  C   UNL     1       2.105  12.668  18.901  0.00  0.00    +0.000 A 
ATOM      3  C   UNL     1       0.910  11.925  18.624  0.00  0.00    +0.000 A 
ATOM      4  C   UNL     1       0.810  10.522  18.464  0.00  0.00    +0.000 A 
ATOM      5  N   UNL     1       1.971   9.731  18.618  0.00  0.00    +0.000 N 
ATOM      6  N   UNL     1      -0.357   9.895  18.219  0.00  0.00    +0.000 NA
ATOM      7  C   UNL     1      -1.444  10.661  18.141  0.00  0.00    +0.000 A 
ATOM      8  N   UNL     1      -1.476  11.989  18.299  0.00  0.00    +0.000 NA
ATOM      9  C   UNL     1      -0.314  12.604  18.531  0.00  0.00    +0.000 A 
ATOM     10  C   UNL     1      -0.311  13.981  18.666  0.00  0.00    +0.000 A 
ATOM     11  C   UNL     1       0.873  14.707  18.875  0.00  0.00    +0.000 A 
ATOM     12  H   UNL     1       2.697   9.996  17.963  0.00  0.00    +0.000 HD
ENDROOT
BRANCH   5  13
ATOM     13  C   UNL     1       2.083   8.409  19.105  0.00  0.00    +0.000 A 
ATOM     14  C   UNL     1       1.630   8.118  20.396  0.00  0.00    +0.000 A 
ATOM     15  C   UNL     1       1.541   6.795  20.843  0.00  0.00    +0.000 A 
ATOM     16  C   UNL     1       1.891   5.734  20.003  0.00  0.00    +0.000 A 
ATOM     17 CL   UNL     1       1.698   4.133  20.616  0.00  0.00    +0.000 Cl
ATOM     18  C   UNL     1       2.347   5.989  18.707  0.00  0.00    +0.000 A 
ATOM     19  C   UNL     1       2.739   4.924  17.721  0.00  0.00    +0.000 C 
ATOM     20  C   UNL     1       2.442   7.329  18.284  0.00  0.00    +0.000 A 
ENDBRANCH   5  13
BRANCH  11  21
ATOM     21  O   UNL     1       0.763  16.072  18.818  0.00  0.00    +0.000 OA
ATOM     22  C   UNL     1      -0.285  16.495  19.694  0.00  0.00    +0.000 C 
ENDBRANCH  11  21
BRANCH   1  23
ATOM     23  O   UNL     1       3.294  14.699  19.309  0.00  0.00    +0.000 OA
BRANCH  23  29
ATOM     24  C   UNL     1       7.936  16.661  19.133  0.00  0.00    +0.000 C 
ATOM     25  O   UNL     1       8.877  15.876  19.007  0.00  0.00    +0.000 OA
ATOM     26  N   UNL     1       6.611  16.251  19.015  0.00  0.00    +0.000 N 
ATOM     27  C   UNL     1       6.382  14.820  18.878  0.00  0.00    +0.000 C 
ATOM     28  C   UNL     1       5.308  14.537  17.838  0.00  0.00    +0.000 C 
ATOM     29  C   UNL     1       3.968  15.237  18.139  0.00  0.00    +0.000 C 
ATOM     30  C   UNL     1       4.254  16.735  18.357  0.00  0.00    +0.000 C 
ATOM     31  C   UNL     1       5.400  17.014  19.344  0.00  0.00    +0.000 C 
BRANCH  24  33
ATOM     32  C   UNL     1       8.833  18.427  20.567  0.00  0.00    +0.000 C 
ATOM     33  C   UNL     1       8.232  18.095  19.410  0.00  0.00    +0.000 C 
ENDBRANCH  24  33
ENDBRANCH  23  29
ENDBRANCH   1  23
TORSDOF 5
ENDMDL
MODEL 5
REMARK VINA RESULT:      -7.0      5.003      9.447
REMARK  Name = 
REMARK  7 active torsions:
REMARK  status: ('A' for Active; 'I' for Inactive)
REMARK    1  A    between atoms: C_2  and  C_3
REMARK    2  A    between atoms: C_8  and  O_9
REMARK    3  A    between atoms: O_9  and  C_10
REMARK    4  A    between atoms: N_14  and  C_15
REMARK    5  A    between atoms: C_20  and  C_21
REMARK    6  A    between atoms: C_28  and  O_29
REMARK    7  A    between atoms: O_29  and  C_30
REMARK                            x       y       z     vdW  Elec       q    Type
REMARK                         _______ _______ _______ _____ _____    ______ ____
ROOT
ATOM      1  C   UNL     1      -0.946  11.274  18.336  0.00  0.00    +0.000 A 
ATOM      2  C   UNL     1      -0.237  10.067  18.387  0.00  0.00    +0.000 A 
ATOM      3  C   UNL     1       0.438   9.632  19.575  0.00  0.00    +0.000 A 
ATOM      4  C   UNL     1       1.204   8.451  19.723  0.00  0.00    +0.000 A 
ATOM      5  N   UNL     1       1.378   7.604  18.606  0.00  0.00    +0.000 N 
ATOM      6  N   UNL     1       1.823   8.118  20.874  0.00  0.00    +0.000 NA
ATOM      7  C   UNL     1       1.691   8.968  21.891  0.00  0.00    +0.000 A 
ATOM      8  N   UNL     1       1.015  10.122  21.862  0.00  0.00    +0.000 NA
ATOM      9  C   UNL     1       0.398  10.439  20.722  0.00  0.00    +0.000 A 
ATOM     10  C   UNL     1      -0.337  11.611  20.672  0.00  0.00    +0.000 A 
ATOM     11  C   UNL     1      -1.046  11.998  19.524  0.00  0.00    +0.000 A 
ATOM     12  H   UNL     1       0.492   7.271  18.243  0.00  0.00    +0.000 HD
ENDROOT
BRANCH   5  13
ATOM     13  C   UNL     1       2.483   6.785  18.279  0.00  0.00    +0.000 A 
ATOM     14  C   UNL     1       2.285   5.410  18.109  0.00  0.00    +0.000 A 
ATOM     15  C   UNL     1       3.302   4.597  17.598  0.00  0.00    +0.000 A 
ATOM     16  C   UNL     1       4.536   5.144  17.234  0.00  0.00    +0.000 A 
ATOM     17 CL   UNL     1       5.714   4.079  16.560  0.00  0.00    +0.000 Cl
ATOM     18  C   UNL     1       4.768   6.513  17.390  0.00  0.00    +0.000 A 
ATOM     19  C   UNL     1       6.052   7.203  17.022  0.00  0.00    +0.000 C 
ATOM     20  C   UNL     1       3.734   7.310  17.920  0.00  0.00    +0.000 A 
ENDBRANCH   5  13
BRANCH  11  21
ATOM     21  O   UNL     1      -1.870  13.085  19.659  0.00  0.00    +0.000 OA
ATOM     22  C   UNL     1      -1.112  14.189  20.160  0.00  0.00    +0.000 C 
ENDBRANCH  11  21
BRANCH   1  23
ATOM     23  O   UNL     1      -1.592  11.603  17.158  0.00  0.00    +0.000 OA
BRANCH  23  29
ATOM     24  C   UNL     1      -6.505  11.170  18.207  0.00  0.00    +0.000 C 
ATOM     25  O   UNL     1      -7.286  11.866  17.556  0.00  0.00    +0.000 OA
ATOM     26  N   UNL     1      -5.155  11.075  17.884  0.00  0.00    +0.000 N 
ATOM     27  C   UNL     1      -4.675  11.953  16.827  0.00  0.00    +0.000 C 
ATOM     28  C   UNL     1      -3.717  11.217  15.900  0.00  0.00    +0.000 C 
ATOM     29  C   UNL     1      -2.509  10.604  16.635  0.00  0.00    +0.000 C 
ATOM     30  C   UNL     1      -3.046   9.745  17.796  0.00  0.00    +0.000 C 
ATOM     31  C   UNL     1      -4.080  10.465  18.678  0.00  0.00    +0.000 C 
BRANCH  24  33
ATOM     32  C   UNL     1      -7.308  11.047  20.514  0.00  0.00    +0.000 C 
ATOM     33  C   UNL     1      -7.032  10.398  19.367  0.00  0.00    +0.000 C 
ENDBRANCH  24  33
ENDBRANCH  23  29
ENDBRANCH   1  23
TORSDOF 5
ENDMDL
MODEL 6
REMARK VINA RESULT:      -6.9      3.978      7.011
REMARK  Name = 
REMARK  7 active torsions:
REMARK  status: ('A' for Active; 'I' for Inactive)
REMARK    1  A    between atoms: C_2  and  C_3
REMARK    2  A    between atoms: C_8  and  O_9
REMARK    3  A    between atoms: O_9  and  C_10
REMARK    4  A    between atoms: N_14  and  C_15
REMARK    5  A    between atoms: C_20  and  C_21
REMARK    6  A    between atoms: C_28  and  O_29
REMARK    7  A    between atoms: O_29  and  C_30
REMARK                            x       y       z     vdW  Elec       q    Type
REMARK                         _______ _______ _______ _____ _____    ______ ____
ROOT
ATOM      1  C   UNL     1       1.575  12.459  19.089  0.00  0.00    +0.000 A 
ATOM      2  C   UNL     1       0.241  12.723  19.424  0.00  0.00    +0.000 A 
ATOM      3  C   UNL     1      -0.238  14.056  19.647  0.00  0.00    +0.000 A 
ATOM      4  C   UNL     1      -1.552  14.428  20.018  0.00  0.00    +0.000 A 
ATOM      5  N   UNL     1      -2.513  13.415  20.238  0.00  0.00    +0.000 N 
ATOM      6  N   UNL     1      -1.922  15.707  20.223  0.00  0.00    +0.000 NA
ATOM      7  C   UNL     1      -0.978  16.634  20.069  0.00  0.00    +0.000 A 
ATOM      8  N   UNL     1       0.299  16.402  19.745  0.00  0.00    +0.000 NA
ATOM      9  C   UNL     1       0.655  15.133  19.534  0.00  0.00    +0.000 A 
ATOM     10  C   UNL     1       1.961  14.865  19.165  0.00  0.00    +0.000 A 
ATOM     11  C   UNL     1       2.405  13.562  18.889  0.00  0.00    +0.000 A 
ATOM     12  H   UNL     1      -2.650  12.840  19.415  0.00  0.00    +0.000 HD
ENDROOT
BRANCH   5  13
ATOM     13  C   UNL     1      -3.603  13.409  21.137  0.00  0.00    +0.000 A 
ATOM     14  C   UNL     1      -4.901  13.555  20.635  0.00  0.00    +0.000 A 
ATOM     15  C   UNL     1      -6.015  13.361  21.459  0.00  0.00    +0.000 A 
ATOM     16  C   UNL     1      -5.854  13.004  22.801  0.00  0.00    +0.000 A 
ATOM     17 CL   UNL     1      -7.282  12.730  23.730  0.00  0.00    +0.000 Cl
ATOM     18  C   UNL     1      -4.573  12.850  23.336  0.00  0.00    +0.000 A 
ATOM     19  C   UNL     1      -4.289  12.459  24.759  0.00  0.00    +0.000 C 
ATOM     20  C   UNL     1      -3.466  13.065  22.491  0.00  0.00    +0.000 A 
ENDBRANCH   5  13
BRANCH  11  21
ATOM     21  O   UNL     1       3.668  13.451  18.369  0.00  0.00    +0.000 OA
ATOM     22  C   UNL     1       4.286  14.740  18.357  0.00  0.00    +0.000 C 
ENDBRANCH  11  21
BRANCH   1  23
ATOM     23  O   UNL     1       1.945  11.145  18.864  0.00  0.00    +0.000 OA
BRANCH  23  29
ATOM     24  C   UNL     1       2.205   6.170  19.642  0.00  0.00    +0.000 C 
ATOM     25  O   UNL     1       2.100   5.773  20.804  0.00  0.00    +0.000 OA
ATOM     26  N   UNL     1       1.971   7.497  19.290  0.00  0.00    +0.000 N 
ATOM     27  C   UNL     1       1.738   8.429  20.384  0.00  0.00    +0.000 C 
ATOM     28  C   UNL     1       0.610   9.394  20.046  0.00  0.00    +0.000 C 
ATOM     29  C   UNL     1       0.857  10.188  18.749  0.00  0.00    +0.000 C 
ATOM     30  C   UNL     1       1.179   9.180  17.629  0.00  0.00    +0.000 C 
ATOM     31  C   UNL     1       2.258   8.152  18.008  0.00  0.00    +0.000 C 
BRANCH  24  33
ATOM     32  C   UNL     1       2.286   3.892  18.758  0.00  0.00    +0.000 C 
ATOM     33  C   UNL     1       2.583   5.193  18.583  0.00  0.00    +0.000 C 
ENDBRANCH  24  33
ENDBRANCH  23  29
ENDBRANCH   1  23
TORSDOF 5
ENDMDL
MODEL 7
REMARK VINA RESULT:      -6.9      4.998      9.525
REMARK  Name = 
REMARK  7 active torsions:
REMARK  status: ('A' for Active; 'I' for Inactive)
REMARK    1  A    between atoms: C_2  and  C_3
REMARK    2  A    between atoms: C_8  and  O_9
REMARK    3  A    between atoms: O_9  and  C_10
REMARK    4  A    between atoms: N_14  and  C_15
REMARK    5  A    between atoms: C_20  and  C_21
REMARK    6  A    between atoms: C_28  and  O_29
REMARK    7  A    between atoms: O_29  and  C_30
REMARK                            x       y       z     vdW  Elec       q    Type
REMARK                         _______ _______ _______ _____ _____    ______ ____
ROOT
ATOM      1  C   UNL     1      -0.949  11.175  18.294  0.00  0.00    +0.000 A 
ATOM      2  C   UNL     1      -0.182  10.005  18.350  0.00  0.00    +0.000 A 
ATOM      3  C   UNL     1       0.479   9.586  19.553  0.00  0.00    +0.000 A 
ATOM      4  C   UNL     1       1.300   8.444  19.708  0.00  0.00    +0.000 A 
ATOM      5  N   UNL     1       1.550   7.623  18.585  0.00  0.00    +0.000 N 
ATOM      6  N   UNL     1       1.900   8.126  20.872  0.00  0.00    +0.000 NA
ATOM      7  C   UNL     1       1.696   8.953  21.896  0.00  0.00    +0.000 A 
ATOM      8  N   UNL     1       0.963  10.071  21.862  0.00  0.00    +0.000 NA
ATOM      9  C   UNL     1       0.364  10.374  20.708  0.00  0.00    +0.000 A 
ATOM     10  C   UNL     1      -0.427  11.508  20.652  0.00  0.00    +0.000 A 
ATOM     11  C   UNL     1      -1.121  11.876  19.487  0.00  0.00    +0.000 A 
ATOM     12  H   UNL     1       0.693   7.252  18.192  0.00  0.00    +0.000 HD
ENDROOT
BRANCH   5  13
ATOM     13  C   UNL     1       2.703   6.866  18.282  0.00  0.00    +0.000 A 
ATOM     14  C   UNL     1       3.741   7.464  17.560  0.00  0.00    +0.000 A 
ATOM     15  C   UNL     1       4.974   6.820  17.407  0.00  0.00    +0.000 A 
ATOM     16  C   UNL     1       5.199   5.567  17.986  0.00  0.00    +0.000 A 
ATOM     17 CL   UNL     1       6.765   4.870  17.795  0.00  0.00    +0.000 Cl
ATOM     18  C   UNL     1       4.184   4.940  18.713  0.00  0.00    +0.000 A 
ATOM     19  C   UNL     1       4.324   3.601  19.382  0.00  0.00    +0.000 C 
ATOM     20  C   UNL     1       2.947   5.601  18.841  0.00  0.00    +0.000 A 
ENDBRANCH   5  13
BRANCH  11  21
ATOM     21  O   UNL     1      -2.002  12.918  19.612  0.00  0.00    +0.000 OA
ATOM     22  C   UNL     1      -1.650  13.696  20.759  0.00  0.00    +0.000 C 
ENDBRANCH  11  21
BRANCH   1  23
ATOM     23  O   UNL     1      -1.576  11.488  17.101  0.00  0.00    +0.000 OA
BRANCH  23  29
ATOM     24  C   UNL     1      -6.486  11.164  18.200  0.00  0.00    +0.000 C 
ATOM     25  O   UNL     1      -7.260  11.867  17.548  0.00  0.00    +0.000 OA
ATOM     26  N   UNL     1      -5.141  11.038  17.866  0.00  0.00    +0.000 N 
ATOM     27  C   UNL     1      -4.654  11.894  16.794  0.00  0.00    +0.000 C 
ATOM     28  C   UNL     1      -3.719  11.129  15.867  0.00  0.00    +0.000 C 
ATOM     29  C   UNL     1      -2.517  10.502  16.598  0.00  0.00    +0.000 C 
ATOM     30  C   UNL     1      -3.060   9.667  17.774  0.00  0.00    +0.000 C 
ATOM     31  C   UNL     1      -4.071  10.417  18.657  0.00  0.00    +0.000 C 
BRANCH  24  33
ATOM     32  C   UNL     1      -7.421  11.103  20.459  0.00  0.00    +0.000 C 
ATOM     33  C   UNL     1      -7.017  10.416  19.374  0.00  0.00    +0.000 C 
ENDBRANCH  24  33
ENDBRANCH  23  29
ENDBRANCH   1  23
TORSDOF 5
ENDMDL
MODEL 8
REMARK VINA RESULT:      -6.9      5.668     10.798
REMARK  Name = 
REMARK  7 active torsions:
REMARK  status: ('A' for Active; 'I' for Inactive)
REMARK    1  A    between atoms: C_2  and  C_3
REMARK    2  A    between atoms: C_8  and  O_9
REMARK    3  A    between atoms: O_9  and  C_10
REMARK    4  A    between atoms: N_14  and  C_15
REMARK    5  A    between atoms: C_20  and  C_21
REMARK    6  A    between atoms: C_28  and  O_29
REMARK    7  A    between atoms: O_29  and  C_30
REMARK                            x       y       z     vdW  Elec       q    Type
REMARK                         _______ _______ _______ _____ _____    ______ ____
ROOT
ATOM      1  C   UNL     1      -4.261  12.729  20.035  0.00  0.00    +0.000 A 
ATOM      2  C   UNL     1      -3.026  12.121  19.781  0.00  0.00    +0.000 A 
ATOM      3  C   UNL     1      -2.789  11.343  18.599  0.00  0.00    +0.000 A 
ATOM      4  C   UNL     1      -1.594  10.664  18.263  0.00  0.00    +0.000 A 
ATOM      5  N   UNL     1      -0.510  10.700  19.169  0.00  0.00    +0.000 N 
ATOM      6  N   UNL     1      -1.455   9.939  17.136  0.00  0.00    +0.000 NA
ATOM      7  C   UNL     1      -2.515   9.873  16.333  0.00  0.00    +0.000 A 
ATOM      8  N   UNL     1      -3.701  10.450  16.556  0.00  0.00    +0.000 NA
ATOM      9  C   UNL     1      -3.827  11.175  17.670  0.00  0.00    +0.000 A 
ATOM     10  C   UNL     1      -5.032  11.811  17.912  0.00  0.00    +0.000 A 
ATOM     11  C   UNL     1      -5.234  12.622  19.041  0.00  0.00    +0.000 A 
ATOM     12  H   UNL     1      -0.204  11.648  19.354  0.00  0.00    +0.000 HD
ENDROOT
BRANCH   5  13
ATOM     13  C   UNL     1       0.475   9.715  19.409  0.00  0.00    +0.000 A 
ATOM     14  C   UNL     1       0.449   9.004  20.614  0.00  0.00    +0.000 A 
ATOM     15  C   UNL     1       1.278   7.895  20.811  0.00  0.00    +0.000 A 
ATOM     16  C   UNL     1       2.142   7.464  19.800  0.00  0.00    +0.000 A 
ATOM     17 CL   UNL     1       3.089   6.054  20.106  0.00  0.00    +0.000 Cl
ATOM     18  C   UNL     1       2.196   8.150  18.585  0.00  0.00    +0.000 A 
ATOM     19  C   UNL     1       3.080   7.767  17.432  0.00  0.00    +0.000 C 
ATOM     20  C   UNL     1       1.362   9.273  18.415  0.00  0.00    +0.000 A 
ENDBRANCH   5  13
BRANCH  11  21
ATOM     21  O   UNL     1      -6.407  13.330  19.075  0.00  0.00    +0.000 OA
ATOM     22  C   UNL     1      -7.429  12.517  19.656  0.00  0.00    +0.000 C 
ENDBRANCH  11  21
BRANCH   1  23
ATOM     23  O   UNL     1      -4.393  13.486  21.185  0.00  0.00    +0.000 OA
BRANCH  23  29
ATOM     24  C   UNL     1      -0.927  15.939  23.903  0.00  0.00    +0.000 C 
ATOM     25  O   UNL     1       0.244  15.862  23.529  0.00  0.00    +0.000 OA
ATOM     26  N   UNL     1      -1.982  15.455  23.135  0.00  0.00    +0.000 N 
ATOM     27  C   UNL     1      -1.626  14.719  21.931  0.00  0.00    +0.000 C 
ATOM     28  C   UNL     1      -2.533  15.102  20.770  0.00  0.00    +0.000 C 
ATOM     29  C   UNL     1      -4.029  14.888  21.070  0.00  0.00    +0.000 C 
ATOM     30  C   UNL     1      -4.357  15.611  22.390  0.00  0.00    +0.000 C 
ATOM     31  C   UNL     1      -3.385  15.287  23.537  0.00  0.00    +0.000 C 
BRANCH  24  33
ATOM     32  C   UNL     1      -1.085  15.860  26.342  0.00  0.00    +0.000 C 
ATOM     33  C   UNL     1      -1.218  16.583  25.215  0.00  0.00    +0.000 C 
ENDBRANCH  24  33
ENDBRANCH  23  29
ENDBRANCH   1  23
TORSDOF 5
ENDMDL
MODEL 9
REMARK VINA RESULT:      -6.9      4.533      9.066
REMARK  Name = 
REMARK  7 active torsions:
REMARK  status: ('A' for Active; 'I' for Inactive)
REMARK    1  A    between atoms: C_2  and  C_3
REMARK    2  A    between atoms: C_8  and  O_9
REMARK    3  A    between atoms: O_9  and  C_10
REMARK    4  A    between atoms: N_14  and  C_15
REMARK    5  A    between atoms: C_20  and  C_21
REMARK    6  A    between atoms: C_28  and  O_29
REMARK    7  A    between atoms: O_29  and  C_30
REMARK                            x       y       z     vdW  Elec       q    Type
REMARK                         _______ _______ _______ _____ _____    ______ ____
ROOT
ATOM      1  C   UNL     1       1.299  13.862  19.482  0.00  0.00    +0.000 A 
ATOM      2  C   UNL     1       1.530  12.504  19.230  0.00  0.00    +0.000 A 
ATOM      3  C   UNL     1       0.513  11.647  18.691  0.00  0.00    +0.000 A 
ATOM      4  C   UNL     1       0.633  10.261  18.430  0.00  0.00    +0.000 A 
ATOM      5  N   UNL     1       1.844   9.607  18.747  0.00  0.00    +0.000 N 
ATOM      6  N   UNL     1      -0.378   9.520  17.935  0.00  0.00    +0.000 NA
ATOM      7  C   UNL     1      -1.527  10.152  17.704  0.00  0.00    +0.000 A 
ATOM      8  N   UNL     1      -1.765  11.448  17.935  0.00  0.00    +0.000 NA
ATOM      9  C   UNL     1      -0.756  12.178  18.415  0.00  0.00    +0.000 A 
ATOM     10  C   UNL     1      -0.962  13.529  18.633  0.00  0.00    +0.000 A 
ATOM     11  C   UNL     1       0.058  14.373  19.101  0.00  0.00    +0.000 A 
ATOM     12  H   UNL     1       2.632  10.013  18.256  0.00  0.00    +0.000 HD
ENDROOT
BRANCH   5  13
ATOM     13  C   UNL     1       2.046   8.272  19.164  0.00  0.00    +0.000 A 
ATOM     14  C   UNL     1       1.616   7.883  20.437  0.00  0.00    +0.000 A 
ATOM     15  C   UNL     1       1.618   6.536  20.814  0.00  0.00    +0.000 A 
ATOM     16  C   UNL     1       2.038   5.547  19.920  0.00  0.00    +0.000 A 
ATOM     17 CL   UNL     1       1.955   3.906  20.448  0.00  0.00    +0.000 Cl
ATOM     18  C   UNL     1       2.474   5.899  18.641  0.00  0.00    +0.000 A 
ATOM     19  C   UNL     1       2.936   4.916  17.601  0.00  0.00    +0.000 C 
ATOM     20  C   UNL     1       2.477   7.263  18.288  0.00  0.00    +0.000 A 
ENDBRANCH   5  13
BRANCH  11  21
ATOM     21  O   UNL     1      -0.223  15.715  19.109  0.00  0.00    +0.000 OA
ATOM     22  C   UNL     1      -1.121  15.999  20.185  0.00  0.00    +0.000 C 
ENDBRANCH  11  21
BRANCH   1  23
ATOM     23  O   UNL     1       2.344  14.623  19.974  0.00  0.00    +0.000 OA
BRANCH  23  29
ATOM     24  C   UNL     1       7.052  15.619  18.471  0.00  0.00    +0.000 C 
ATOM     25  O   UNL     1       7.463  15.030  17.469  0.00  0.00    +0.000 OA
ATOM     26  N   UNL     1       5.720  15.558  18.869  0.00  0.00    +0.000 N 
ATOM     27  C   UNL     1       4.861  14.645  18.130  0.00  0.00    +0.000 C 
ATOM     28  C   UNL     1       3.502  15.276  17.858  0.00  0.00    +0.000 C 
ATOM     29  C   UNL     1       2.774  15.731  19.138  0.00  0.00    +0.000 C 
ATOM     30  C   UNL     1       3.737  16.630  19.937  0.00  0.00    +0.000 C 
ATOM     31  C   UNL     1       5.137  16.025  20.134  0.00  0.00    +0.000 C 
BRANCH  24  33
ATOM     32  C   UNL     1       9.039  15.812  19.884  0.00  0.00    +0.000 C 
ATOM     33  C   UNL     1       8.014  16.431  19.268  0.00  0.00    +0.000 C 
ENDBRANCH  24  33
ENDBRANCH  23  29
ENDBRANCH   1  23
TORSDOF 5
ENDMDL
