MODEL 1
REMARK VINA RESULT:      -7.5      0.000      0.000
REMARK  Name = 
REMARK  5 active torsions:
REMARK  status: ('A' for Active; 'I' for Inactive)
REMARK    1  A    between atoms: C_2  and  C_12
REMARK    2  A    between atoms: N_3  and  C_4
REMARK    3  A    between atoms: C_4  and  C_5
REMARK    4  A    between atoms: C_5  and  N_6
REMARK    5  A    between atoms: C_14  and  C_15
REMARK                            x       y       z     vdW  Elec       q    Type
REMARK                         _______ _______ _______ _____ _____    ______ ____
ROOT
ATOM      1  O   UNL     1       4.505   5.538  19.354  0.00  0.00    +0.000 OA
ATOM      2  C   UNL     1       3.398   5.693  18.839  0.00  0.00    +0.000 C 
ATOM      3  N   UNL     1       2.857   4.763  17.980  0.00  0.00    +0.000 N 
ATOM      4  H   UNL     1       1.906   4.905  17.641  0.00  0.00    +0.000 HD
ENDROOT
BRANCH   2   5
ATOM      5  C   UNL     1       2.616   6.898  19.095  0.00  0.00    +0.000 A 
ATOM      6  C   UNL     1       1.898   7.148  20.289  0.00  0.00    +0.000 A 
ATOM      7  C   UNL     1       1.361   8.396  20.134  0.00  0.00    +0.000 A 
ATOM      8  O   UNL     1       1.705   8.864  18.898  0.00  0.00    +0.000 OA
ATOM      9  N   UNL     1       2.500   7.927  18.242  0.00  0.00    +0.000 NA
BRANCH   7  10
ATOM     10  C   UNL     1       0.575   9.270  21.000  0.00  0.00    +0.000 A 
ATOM     11  C   UNL     1       0.352   8.919  22.342  0.00  0.00    +0.000 A 
ATOM     12  C   UNL     1      -0.350   9.770  23.201  0.00  0.00    +0.000 A 
ATOM     13  C   UNL     1      -0.842  10.981  22.726  0.00  0.00    +0.000 A 
ATOM     14  C   UNL     1      -0.644  11.336  21.392  0.00  0.00    +0.000 A 
ATOM     15  C   UNL     1       0.057  10.485  20.535  0.00  0.00    +0.000 A 
ENDBRANCH   7  10
ENDBRANCH   2   5
BRANCH   3  16
ATOM     16  C   UNL     1       3.578   3.532  17.716  0.00  0.00    +0.000 C 
BRANCH  16  17
ATOM     17  C   UNL     1       2.880   2.266  18.213  0.00  0.00    +0.000 C 
BRANCH  17  18
ATOM     18  N   UNL     1       2.566   2.296  19.633  0.00  0.00    +0.000 N 
ATOM     19  C   UNL     1       1.341   2.824  20.151  0.00  0.00    +0.000 C 
ATOM     20  C   UNL     1       1.529   2.632  21.635  0.00  0.00    +0.000 C 
ATOM     21  O   UNL     1       2.950   2.602  21.819  0.00  0.00    +0.000 OA
ATOM     22  C   UNL     1       3.531   2.330  20.610  0.00  0.00    +0.000 C 
ATOM     23  O   UNL     1       4.729   2.175  20.446  0.00  0.00    +0.000 OA
ENDBRANCH  17  18
ENDBRANCH  16  17
ENDBRANCH   3  16
TORSDOF 5
ENDMDL
MODEL 2
REMARK VINA RESULT:      -7.4      3.866      7.688
REMARK  Name = 
REMARK  5 active torsions:
REMARK  status: ('A' for Active; 'I' for Inactive)
REMARK    1  A    between atoms: C_2  and  C_12
REMARK    2  A    between atoms: N_3  and  C_4
REMARK    3  A    between atoms: C_4  and  C_5
REMARK    4  A    between atoms: C_5  and  N_6
REMARK    5  A    between atoms: C_14  and  C_15
REMARK                            x       y       z     vdW  Elec       q    Type
REMARK                         _______ _______ _______ _____ _____    ______ ____
ROOT
ATOM      1  O   UNL     1       4.745   3.196  19.796  0.00  0.00    +0.000 OA
ATOM      2  C   UNL     1       4.847   4.232  19.138  0.00  0.00    +0.000 C 
ATOM      3  N   UNL     1       4.106   5.355  19.430  0.00  0.00    +0.000 N 
ATOM      4  H   UNL     1       4.283   6.208  18.901  0.00  0.00    +0.000 HD
ENDROOT
BRANCH   2   5
ATOM      5  C   UNL     1       5.745   4.304  17.990  0.00  0.00    +0.000 A 
ATOM      6  C   UNL     1       5.342   4.122  16.646  0.00  0.00    +0.000 A 
ATOM      7  C   UNL     1       6.470   4.324  15.899  0.00  0.00    +0.000 A 
ATOM      8  O   UNL     1       7.509   4.580  16.748  0.00  0.00    +0.000 OA
ATOM      9  N   UNL     1       7.057   4.574  18.065  0.00  0.00    +0.000 NA
BRANCH   7  10
ATOM     10  C   UNL     1       6.739   4.351  14.465  0.00  0.00    +0.000 A 
ATOM     11  C   UNL     1       6.056   3.475  13.602  0.00  0.00    +0.000 A 
ATOM     12  C   UNL     1       6.259   3.525  12.220  0.00  0.00    +0.000 A 
ATOM     13  C   UNL     1       7.151   4.447  11.684  0.00  0.00    +0.000 A 
ATOM     14  C   UNL     1       7.850   5.310  12.527  0.00  0.00    +0.000 A 
ATOM     15  C   UNL     1       7.647   5.259  13.908  0.00  0.00    +0.000 A 
ENDBRANCH   7  10
ENDBRANCH   2   5
BRANCH   3  16
ATOM     16  C   UNL     1       3.221   5.347  20.580  0.00  0.00    +0.000 C 
BRANCH  16  17
ATOM     17  C   UNL     1       1.732   5.353  20.236  0.00  0.00    +0.000 C 
BRANCH  17  18
ATOM     18  N   UNL     1       1.277   4.126  19.601  0.00  0.00    +0.000 N 
ATOM     19  C   UNL     1       1.180   2.878  20.293  0.00  0.00    +0.000 C 
ATOM     20  C   UNL     1       0.689   1.959  19.202  0.00  0.00    +0.000 C 
ATOM     21  O   UNL     1       1.120   2.582  17.984  0.00  0.00    +0.000 OA
ATOM     22  C   UNL     1       1.397   3.895  18.252  0.00  0.00    +0.000 C 
ATOM     23  O   UNL     1       1.727   4.710  17.407  0.00  0.00    +0.000 OA
ENDBRANCH  17  18
ENDBRANCH  16  17
ENDBRANCH   3  16
TORSDOF 5
ENDMDL
MODEL 3
REMARK VINA RESULT:      -7.3      1.467      1.882
REMARK  Name = 
REMARK  5 active torsions:
REMARK  status: ('A' for Active; 'I' for Inactive)
REMARK    1  A    between atoms: C_2  and  C_12
REMARK    2  A    between atoms: N_3  and  C_4
REMARK    3  A    between atoms: C_4  and  C_5
REMARK    4  A    between atoms: C_5  and  N_6
REMARK    5  A    between atoms: C_14  and  C_15
REMARK                            x       y       z     vdW  Elec       q    Type
REMARK                         _______ _______ _______ _____ _____    ______ ____
ROOT
ATOM      1  O   UNL     1       3.685   6.054  17.237  0.00  0.00    +0.000 OA
ATOM      2  C   UNL     1       3.459   6.309  18.421  0.00  0.00    +0.000 C 
ATOM      3  N   UNL     1       4.013   5.573  19.443  0.00  0.00    +0.000 N 
ATOM      4  H   UNL     1       3.852   5.873  20.404  0.00  0.00    +0.000 HD
ENDROOT
BRANCH   2   5
ATOM      5  C   UNL     1       2.559   7.396  18.793  0.00  0.00    +0.000 A 
ATOM      6  C   UNL     1       2.017   7.580  20.088  0.00  0.00    +0.000 A 
ATOM      7  C   UNL     1       1.282   8.731  20.012  0.00  0.00    +0.000 A 
ATOM      8  O   UNL     1       1.345   9.200  18.731  0.00  0.00    +0.000 OA
ATOM      9  N   UNL     1       2.152   8.367  17.960  0.00  0.00    +0.000 NA
BRANCH   7  10
ATOM     10  C   UNL     1       0.528   9.511  20.988  0.00  0.00    +0.000 A 
ATOM     11  C   UNL     1      -0.101  10.707  20.602  0.00  0.00    +0.000 A 
ATOM     12  C   UNL     1      -0.874  11.438  21.509  0.00  0.00    +0.000 A 
ATOM     13  C   UNL     1      -1.023  10.985  22.815  0.00  0.00    +0.000 A 
ATOM     14  C   UNL     1      -0.391   9.809  23.219  0.00  0.00    +0.000 A 
ATOM     15  C   UNL     1       0.381   9.080  22.312  0.00  0.00    +0.000 A 
ENDBRANCH   7  10
ENDBRANCH   2   5
BRANCH   3  16
ATOM     16  C   UNL     1       4.939   4.501  19.130  0.00  0.00    +0.000 C 
BRANCH  16  17
ATOM     17  C   UNL     1       4.351   3.096  19.254  0.00  0.00    +0.000 C 
BRANCH  17  18
ATOM     18  N   UNL     1       2.997   3.077  19.785  0.00  0.00    +0.000 N 
ATOM     19  C   UNL     1       2.692   2.705  21.133  0.00  0.00    +0.000 C 
ATOM     20  C   UNL     1       1.189   2.837  21.154  0.00  0.00    +0.000 C 
ATOM     21  O   UNL     1       0.793   2.675  19.786  0.00  0.00    +0.000 OA
ATOM     22  C   UNL     1       1.888   2.893  18.996  0.00  0.00    +0.000 C 
ATOM     23  O   UNL     1       1.864   2.891  17.777  0.00  0.00    +0.000 OA
ENDBRANCH  17  18
ENDBRANCH  16  17
ENDBRANCH   3  16
TORSDOF 5
ENDMDL
MODEL 4
REMARK VINA RESULT:      -7.3      5.514      6.704
REMARK  Name = 
REMARK  5 active torsions:
REMARK  status: ('A' for Active; 'I' for Inactive)
REMARK    1  A    between atoms: C_2  and  C_12
REMARK    2  A    between atoms: N_3  and  C_4
REMARK    3  A    between atoms: C_4  and  C_5
REMARK    4  A    between atoms: C_5  and  N_6
REMARK    5  A    between atoms: C_14  and  C_15
REMARK                            x       y       z     vdW  Elec       q    Type
REMARK                         _______ _______ _______ _____ _____    ______ ____
ROOT
ATOM      1  O   UNL     1       7.845   4.874  17.339  0.00  0.00    +0.000 OA
ATOM      2  C   UNL     1       7.115   5.723  17.850  0.00  0.00    +0.000 C 
ATOM      3  N   UNL     1       5.914   5.394  18.436  0.00  0.00    +0.000 N 
ATOM      4  H   UNL     1       5.384   6.125  18.909  0.00  0.00    +0.000 HD
ENDROOT
BRANCH   2   5
ATOM      5  C   UNL     1       7.483   7.135  17.829  0.00  0.00    +0.000 A 
ATOM      6  C   UNL     1       8.388   7.741  18.733  0.00  0.00    +0.000 A 
ATOM      7  C   UNL     1       8.484   9.045  18.330  0.00  0.00    +0.000 A 
ATOM      8  O   UNL     1       7.655   9.228  17.261  0.00  0.00    +0.000 OA
ATOM      9  N   UNL     1       7.026   8.028  16.938  0.00  0.00    +0.000 NA
BRANCH   7  10
ATOM     10  C   UNL     1       9.282  10.182  18.779  0.00  0.00    +0.000 A 
ATOM     11  C   UNL     1       9.317  10.526  20.141  0.00  0.00    +0.000 A 
ATOM     12  C   UNL     1      10.118  11.576  20.596  0.00  0.00    +0.000 A 
ATOM     13  C   UNL     1      10.891  12.300  19.694  0.00  0.00    +0.000 A 
ATOM     14  C   UNL     1      10.853  11.983  18.337  0.00  0.00    +0.000 A 
ATOM     15  C   UNL     1      10.051  10.933  17.883  0.00  0.00    +0.000 A 
ENDBRANCH   7  10
ENDBRANCH   2   5
BRANCH   3  16
ATOM     16  C   UNL     1       5.515   4.001  18.511  0.00  0.00    +0.000 C 
BRANCH  16  17
ATOM     17  C   UNL     1       4.454   3.587  17.492  0.00  0.00    +0.000 C 
BRANCH  17  18
ATOM     18  N   UNL     1       3.133   3.404  18.071  0.00  0.00    +0.000 N 
ATOM     19  C   UNL     1       2.372   2.202  17.915  0.00  0.00    +0.000 C 
ATOM     20  C   UNL     1       1.112   2.537  18.674  0.00  0.00    +0.000 C 
ATOM     21  O   UNL     1       1.041   3.968  18.644  0.00  0.00    +0.000 OA
ATOM     22  C   UNL     1       2.286   4.451  18.346  0.00  0.00    +0.000 C 
ATOM     23  O   UNL     1       2.570   5.636  18.308  0.00  0.00    +0.000 OA
ENDBRANCH  17  18
ENDBRANCH  16  17
ENDBRANCH   3  16
TORSDOF 5
ENDMDL
MODEL 5
REMARK VINA RESULT:      -7.3      4.917      7.563
REMARK  Name = 
REMARK  5 active torsions:
REMARK  status: ('A' for Active; 'I' for Inactive)
REMARK    1  A    between atoms: C_2  and  C_12
REMARK    2  A    between atoms: N_3  and  C_4
REMARK    3  A    between atoms: C_4  and  C_5
REMARK    4  A    between atoms: C_5  and  N_6
REMARK    5  A    between atoms: C_14  and  C_15
REMARK                            x       y       z     vdW  Elec       q    Type
REMARK                         _______ _______ _______ _____ _____    ______ ____
ROOT
ATOM      1  O   UNL     1       7.697   6.084  16.017  0.00  0.00    +0.000 OA
ATOM      2  C   UNL     1       6.941   5.117  15.922  0.00  0.00    +0.000 C 
ATOM      3  N   UNL     1       6.809   4.408  14.749  0.00  0.00    +0.000 N 
ATOM      4  H   UNL     1       6.227   3.572  14.746  0.00  0.00    +0.000 HD
ENDROOT
BRANCH   2   5
ATOM      5  C   UNL     1       6.121   4.694  17.052  0.00  0.00    +0.000 A 
ATOM      6  C   UNL     1       4.712   4.572  17.018  0.00  0.00    +0.000 A 
ATOM      7  C   UNL     1       4.359   4.104  18.254  0.00  0.00    +0.000 A 
ATOM      8  O   UNL     1       5.491   3.983  19.009  0.00  0.00    +0.000 OA
ATOM      9  N   UNL     1       6.604   4.348  18.256  0.00  0.00    +0.000 NA
BRANCH   7  10
ATOM     10  C   UNL     1       3.091   3.705  18.857  0.00  0.00    +0.000 A 
ATOM     11  C   UNL     1       2.734   4.180  20.130  0.00  0.00    +0.000 A 
ATOM     12  C   UNL     1       1.499   3.855  20.699  0.00  0.00    +0.000 A 
ATOM     13  C   UNL     1       0.609   3.043  20.004  0.00  0.00    +0.000 A 
ATOM     14  C   UNL     1       0.956   2.549  18.747  0.00  0.00    +0.000 A 
ATOM     15  C   UNL     1       2.190   2.875  18.180  0.00  0.00    +0.000 A 
ENDBRANCH   7  10
ENDBRANCH   2   5
BRANCH   3  16
ATOM     16  C   UNL     1       7.625   4.767  13.604  0.00  0.00    +0.000 C 
BRANCH  16  17
ATOM     17  C   UNL     1       6.929   4.605  12.252  0.00  0.00    +0.000 C 
BRANCH  17  18
ATOM     18  N   UNL     1       6.588   3.227  11.936  0.00  0.00    +0.000 N 
ATOM     19  C   UNL     1       7.482   2.337  11.259  0.00  0.00    +0.000 C 
ATOM     20  C   UNL     1       6.653   1.080  11.171  0.00  0.00    +0.000 C 
ATOM     21  O   UNL     1       5.295   1.536  11.234  0.00  0.00    +0.000 OA
ATOM     22  C   UNL     1       5.294   2.799  11.761  0.00  0.00    +0.000 C 
ATOM     23  O   UNL     1       4.285   3.439  12.003  0.00  0.00    +0.000 OA
ENDBRANCH  17  18
ENDBRANCH  16  17
ENDBRANCH   3  16
TORSDOF 5
ENDMDL
MODEL 6
REMARK VINA RESULT:      -7.3      5.608      8.764
REMARK  Name = 
REMARK  5 active torsions:
REMARK  status: ('A' for Active; 'I' for Inactive)
REMARK    1  A    between atoms: C_2  and  C_12
REMARK    2  A    between atoms: N_3  and  C_4
REMARK    3  A    between atoms: C_4  and  C_5
REMARK    4  A    between atoms: C_5  and  N_6
REMARK    5  A    between atoms: C_14  and  C_15
REMARK                            x       y       z     vdW  Elec       q    Type
REMARK                         _______ _______ _______ _____ _____    ______ ____
ROOT
ATOM      1  O   UNL     1       7.729   6.758  16.363  0.00  0.00    +0.000 OA
ATOM      2  C   UNL     1       7.343   6.888  17.525  0.00  0.00    +0.000 C 
ATOM      3  N   UNL     1       7.714   7.964  18.299  0.00  0.00    +0.000 N 
ATOM      4  H   UNL     1       7.306   8.061  19.228  0.00  0.00    +0.000 HD
ENDROOT
BRANCH   2   5
ATOM      5  C   UNL     1       6.492   5.879  18.147  0.00  0.00    +0.000 A 
ATOM      6  C   UNL     1       5.089   5.800  17.977  0.00  0.00    +0.000 A 
ATOM      7  C   UNL     1       4.702   4.693  18.682  0.00  0.00    +0.000 A 
ATOM      8  O   UNL     1       5.806   4.151  19.276  0.00  0.00    +0.000 OA
ATOM      9  N   UNL     1       6.936   4.891  18.939  0.00  0.00    +0.000 NA
BRANCH   7  10
ATOM     10  C   UNL     1       3.423   4.014  18.870  0.00  0.00    +0.000 A 
ATOM     11  C   UNL     1       3.204   3.226  20.013  0.00  0.00    +0.000 A 
ATOM     12  C   UNL     1       1.967   2.615  20.238  0.00  0.00    +0.000 A 
ATOM     13  C   UNL     1       0.936   2.779  19.319  0.00  0.00    +0.000 A 
ATOM     14  C   UNL     1       1.144   3.543  18.171  0.00  0.00    +0.000 A 
ATOM     15  C   UNL     1       2.380   4.153  17.947  0.00  0.00    +0.000 A 
ENDBRANCH   7  10
ENDBRANCH   2   5
BRANCH   3  16
ATOM     16  C   UNL     1       8.533   9.012  17.718  0.00  0.00    +0.000 C 
BRANCH  16  17
ATOM     17  C   UNL     1       8.823  10.184  18.655  0.00  0.00    +0.000 C 
BRANCH  17  18
ATOM     18  N   UNL     1       9.651  11.218  18.053  0.00  0.00    +0.000 N 
ATOM     19  C   UNL     1      11.027  11.413  18.394  0.00  0.00    +0.000 C 
ATOM     20  C   UNL     1      11.395  12.587  17.520  0.00  0.00    +0.000 C 
ATOM     21  O   UNL     1      10.152  13.259  17.275  0.00  0.00    +0.000 OA
ATOM     22  C   UNL     1       9.134  12.384  17.541  0.00  0.00    +0.000 C 
ATOM     23  O   UNL     1       7.953  12.634  17.368  0.00  0.00    +0.000 OA
ENDBRANCH  17  18
ENDBRANCH  16  17
ENDBRANCH   3  16
TORSDOF 5
ENDMDL
MODEL 7
REMARK VINA RESULT:      -7.3      1.315      1.527
REMARK  Name = 
REMARK  5 active torsions:
REMARK  status: ('A' for Active; 'I' for Inactive)
REMARK    1  A    between atoms: C_2  and  C_12
REMARK    2  A    between atoms: N_3  and  C_4
REMARK    3  A    between atoms: C_4  and  C_5
REMARK    4  A    between atoms: C_5  and  N_6
REMARK    5  A    between atoms: C_14  and  C_15
REMARK                            x       y       z     vdW  Elec       q    Type
REMARK                         _______ _______ _______ _____ _____    ______ ____
ROOT
ATOM      1  O   UNL     1       4.631   6.779  17.286  0.00  0.00    +0.000 OA
ATOM      2  C   UNL     1       3.521   6.512  17.748  0.00  0.00    +0.000 C 
ATOM      3  N   UNL     1       3.033   5.224  17.772  0.00  0.00    +0.000 N 
ATOM      4  H   UNL     1       2.142   5.048  18.233  0.00  0.00    +0.000 HD
ENDROOT
BRANCH   2   5
ATOM      5  C   UNL     1       2.654   7.564  18.269  0.00  0.00    +0.000 A 
ATOM      6  C   UNL     1       2.085   7.564  19.564  0.00  0.00    +0.000 A 
ATOM      7  C   UNL     1       1.397   8.743  19.657  0.00  0.00    +0.000 A 
ATOM      8  O   UNL     1       1.513   9.405  18.468  0.00  0.00    +0.000 OA
ATOM      9  N   UNL     1       2.308   8.670  17.592  0.00  0.00    +0.000 NA
BRANCH   7  10
ATOM     10  C   UNL     1       0.647   9.391  20.728  0.00  0.00    +0.000 A 
ATOM     11  C   UNL     1       0.730   8.903  22.044  0.00  0.00    +0.000 A 
ATOM     12  C   UNL     1       0.065   9.544  23.092  0.00  0.00    +0.000 A 
ATOM     13  C   UNL     1      -0.699  10.678  22.837  0.00  0.00    +0.000 A 
ATOM     14  C   UNL     1      -0.807  11.164  21.534  0.00  0.00    +0.000 A 
ATOM     15  C   UNL     1      -0.141  10.522  20.488  0.00  0.00    +0.000 A 
ENDBRANCH   7  10
ENDBRANCH   2   5
BRANCH   3  16
ATOM     16  C   UNL     1       3.867   4.137  17.296  0.00  0.00    +0.000 C 
BRANCH  16  17
ATOM     17  C   UNL     1       3.670   2.814  18.035  0.00  0.00    +0.000 C 
BRANCH  17  18
ATOM     18  N   UNL     1       2.882   2.939  19.251  0.00  0.00    +0.000 N 
ATOM     19  C   UNL     1       3.419   2.709  20.557  0.00  0.00    +0.000 C 
ATOM     20  C   UNL     1       2.213   2.951  21.431  0.00  0.00    +0.000 C 
ATOM     21  O   UNL     1       1.090   2.698  20.576  0.00  0.00    +0.000 OA
ATOM     22  C   UNL     1       1.519   2.768  19.278  0.00  0.00    +0.000 C 
ATOM     23  O   UNL     1       0.786   2.661  18.309  0.00  0.00    +0.000 OA
ENDBRANCH  17  18
ENDBRANCH  16  17
ENDBRANCH   3  16
TORSDOF 5
ENDMDL
MODEL 8
REMARK VINA RESULT:      -7.3      1.103      1.815
REMARK  Name = 
REMARK  5 active torsions:
REMARK  status: ('A' for Active; 'I' for Inactive)
REMARK    1  A    between atoms: C_2  and  C_12
REMARK    2  A    between atoms: N_3  and  C_4
REMARK    3  A    between atoms: C_4  and  C_5
REMARK    4  A    between atoms: C_5  and  N_6
REMARK    5  A    between atoms: C_14  and  C_15
REMARK                            x       y       z     vdW  Elec       q    Type
REMARK                         _______ _______ _______ _____ _____    ______ ____
ROOT
ATOM      1  O   UNL     1       3.808   5.574  17.343  0.00  0.00    +0.000 OA
ATOM      2  C   UNL     1       3.556   5.861  18.514  0.00  0.00    +0.000 C 
ATOM      3  N   UNL     1       4.019   5.101  19.565  0.00  0.00    +0.000 N 
ATOM      4  H   UNL     1       3.844   5.425  20.516  0.00  0.00    +0.000 HD
ENDROOT
BRANCH   2   5
ATOM      5  C   UNL     1       2.723   7.013  18.839  0.00  0.00    +0.000 A 
ATOM      6  C   UNL     1       2.119   7.234  20.100  0.00  0.00    +0.000 A 
ATOM      7  C   UNL     1       1.481   8.440  19.989  0.00  0.00    +0.000 A 
ATOM      8  O   UNL     1       1.660   8.907  18.718  0.00  0.00    +0.000 OA
ATOM      9  N   UNL     1       2.445   8.016  17.991  0.00  0.00    +0.000 NA
BRANCH   7  10
ATOM     10  C   UNL     1       0.732   9.274  20.923  0.00  0.00    +0.000 A 
ATOM     11  C   UNL     1       0.096  10.444  20.473  0.00  0.00    +0.000 A 
ATOM     12  C   UNL     1      -0.673  11.224  21.341  0.00  0.00    +0.000 A 
ATOM     13  C   UNL     1      -0.811  10.847  22.673  0.00  0.00    +0.000 A 
ATOM     14  C   UNL     1      -0.172   9.699  23.139  0.00  0.00    +0.000 A 
ATOM     15  C   UNL     1       0.596   8.920  22.271  0.00  0.00    +0.000 A 
ENDBRANCH   7  10
ENDBRANCH   2   5
BRANCH   3  16
ATOM     16  C   UNL     1       4.877   3.963  19.299  0.00  0.00    +0.000 C 
BRANCH  16  17
ATOM     17  C   UNL     1       4.348   2.630  19.828  0.00  0.00    +0.000 C 
BRANCH  17  18
ATOM     18  N   UNL     1       2.905   2.491  19.713  0.00  0.00    +0.000 N 
ATOM     19  C   UNL     1       2.221   2.462  18.456  0.00  0.00    +0.000 C 
ATOM     20  C   UNL     1       0.784   2.323  18.894  0.00  0.00    +0.000 C 
ATOM     21  O   UNL     1       0.755   2.867  20.220  0.00  0.00    +0.000 OA
ATOM     22  C   UNL     1       2.036   2.887  20.701  0.00  0.00    +0.000 C 
ATOM     23  O   UNL     1       2.338   3.236  21.829  0.00  0.00    +0.000 OA
ENDBRANCH  17  18
ENDBRANCH  16  17
ENDBRANCH   3  16
TORSDOF 5
ENDMDL
MODEL 9
REMARK VINA RESULT:      -7.3      1.387      1.504
REMARK  Name = 
REMARK  5 active torsions:
REMARK  status: ('A' for Active; 'I' for Inactive)
REMARK    1  A    between atoms: C_2  and  C_12
REMARK    2  A    between atoms: N_3  and  C_4
REMARK    3  A    between atoms: C_4  and  C_5
REMARK    4  A    between atoms: C_5  and  N_6
REMARK    5  A    between atoms: C_14  and  C_15
REMARK                            x       y       z     vdW  Elec       q    Type
REMARK                         _______ _______ _______ _____ _____    ______ ____
ROOT
ATOM      1  O   UNL     1       3.440   5.365  17.337  0.00  0.00    +0.000 OA
ATOM      2  C   UNL     1       3.505   5.849  18.467  0.00  0.00    +0.000 C 
ATOM      3  N   UNL     1       4.286   5.292  19.455  0.00  0.00    +0.000 N 
ATOM      4  H   UNL     1       4.361   5.776  20.349  0.00  0.00    +0.000 HD
ENDROOT
BRANCH   2   5
ATOM      5  C   UNL     1       2.724   7.031  18.820  0.00  0.00    +0.000 A 
ATOM      6  C   UNL     1       1.996   7.178  20.025  0.00  0.00    +0.000 A 
ATOM      7  C   UNL     1       1.463   8.438  19.974  0.00  0.00    +0.000 A 
ATOM      8  O   UNL     1       1.820   9.009  18.785  0.00  0.00    +0.000 OA
ATOM      9  N   UNL     1       2.618   8.129  18.058  0.00  0.00    +0.000 NA
BRANCH   7  10
ATOM     10  C   UNL     1       0.673   9.236  20.905  0.00  0.00    +0.000 A 
ATOM     11  C   UNL     1       0.597   8.872  22.260  0.00  0.00    +0.000 A 
ATOM     12  C   UNL     1      -0.109   9.656  23.177  0.00  0.00    +0.000 A 
ATOM     13  C   UNL     1      -0.753  10.812  22.748  0.00  0.00    +0.000 A 
ATOM     14  C   UNL     1      -0.703  11.177  21.404  0.00  0.00    +0.000 A 
ATOM     15  C   UNL     1       0.003  10.393  20.489  0.00  0.00    +0.000 A 
ENDBRANCH   7  10
ENDBRANCH   2   5
BRANCH   3  16
ATOM     16  C   UNL     1       5.106   4.136  19.148  0.00  0.00    +0.000 C 
BRANCH  16  17
ATOM     17  C   UNL     1       4.534   2.804  19.633  0.00  0.00    +0.000 C 
BRANCH  17  18
ATOM     18  N   UNL     1       3.119   2.864  19.960  0.00  0.00    +0.000 N 
ATOM     19  C   UNL     1       2.622   2.771  21.299  0.00  0.00    +0.000 C 
ATOM     20  C   UNL     1       1.132   2.870  21.081  0.00  0.00    +0.000 C 
ATOM     21  O   UNL     1       0.934   2.419  19.735  0.00  0.00    +0.000 OA
ATOM     22  C   UNL     1       2.132   2.495  19.078  0.00  0.00    +0.000 C 
ATOM     23  O   UNL     1       2.281   2.241  17.895  0.00  0.00    +0.000 OA
ENDBRANCH  17  18
ENDBRANCH  16  17
ENDBRANCH   3  16
TORSDOF 5
ENDMDL
