MODEL 1
REMARK VINA RESULT:      -7.8      0.000      0.000
REMARK  Name = 
REMARK  4 active torsions:
REMARK  status: ('A' for Active; 'I' for Inactive)
REMARK    1  A    between atoms: C_1  and  C_2
REMARK    2  A    between atoms: C_3  and  C_4
REMARK    3  A    between atoms: C_4  and  O_5
REMARK    4  A    between atoms: C_15  and  C_16
REMARK                            x       y       z     vdW  Elec       q    Type
REMARK                         _______ _______ _______ _____ _____    ______ ____
ROOT
ATOM      1  C   UNL     1       3.077   5.666  19.704  0.00  0.00    +0.000 C 
ATOM      2  C   UNL     1       3.918   4.852  18.783  0.00  0.00    +0.000 A 
ATOM      3  C   UNL     1       3.933   3.476  18.542  0.00  0.00    +0.000 A 
ATOM      4  N   UNL     1       4.819   3.292  17.491  0.00  0.00    +0.000 N 
ATOM      5  C   UNL     1       5.575   4.410  17.270  0.00  0.00    +0.000 A 
ATOM      6  C   UNL     1       6.704   4.585  16.463  0.00  0.00    +0.000 A 
ATOM      7  C   UNL     1       7.365   5.811  16.550  0.00  0.00    +0.000 A 
ATOM      8  C   UNL     1       6.870   6.833  17.365  0.00  0.00    +0.000 A 
ATOM      9  C   UNL     1       5.678   6.666  18.087  0.00  0.00    +0.000 A 
ATOM     10  C   UNL     1       5.039   5.409  18.069  0.00  0.00    +0.000 A 
ATOM     11  H   UNL     1       5.019   2.402  17.063  0.00  0.00    +0.000 HD
ENDROOT
BRANCH   3  12
ATOM     12  C   UNL     1       3.310   2.245  19.180  0.00  0.00    +0.000 C 
ATOM     13  C   UNL     1       3.383   2.125  20.707  0.00  0.00    +0.000 C 
ATOM     14  C   UNL     1       2.370   2.984  21.469  0.00  0.00    +0.000 C 
ATOM     15  C   UNL     1       0.964   3.007  20.872  0.00  0.00    +0.000 C 
ATOM     16  C   UNL     1       0.944   3.082  19.348  0.00  0.00    +0.000 C 
ATOM     17  C   UNL     1       1.851   2.018  18.756  0.00  0.00    +0.000 C 
BRANCH  12  18
ATOM     18  O   UNL     1       4.054   1.157  18.614  0.00  0.00    +0.000 OA
ATOM     19  H   UNL     1       4.729   0.898  19.265  0.00  0.00    +0.000 HD
ENDBRANCH  12  18
ENDBRANCH   3  12
BRANCH   8  20
ATOM     20  C   UNL     1       7.617   8.043  17.518  0.00  0.00    +0.000 C 
ATOM     21  N   UNL     1       8.188   9.042  17.655  0.00  0.00    +0.000 NA
ENDBRANCH   8  20
TORSDOF 3
ENDMDL
MODEL 2
REMARK VINA RESULT:      -7.7      1.367      1.710
REMARK  Name = 
REMARK  4 active torsions:
REMARK  status: ('A' for Active; 'I' for Inactive)
REMARK    1  A    between atoms: C_1  and  C_2
REMARK    2  A    between atoms: C_3  and  C_4
REMARK    3  A    between atoms: C_4  and  O_5
REMARK    4  A    between atoms: C_15  and  C_16
REMARK                            x       y       z     vdW  Elec       q    Type
REMARK                         _______ _______ _______ _____ _____    ______ ____
ROOT
ATOM      1  C   UNL     1       2.278   7.047  18.123  0.00  0.00    +0.000 C 
ATOM      2  C   UNL     1       3.201   5.895  17.927  0.00  0.00    +0.000 A 
ATOM      3  C   UNL     1       2.990   4.524  18.091  0.00  0.00    +0.000 A 
ATOM      4  N   UNL     1       4.150   3.913  17.638  0.00  0.00    +0.000 N 
ATOM      5  C   UNL     1       5.169   4.815  17.494  0.00  0.00    +0.000 A 
ATOM      6  C   UNL     1       6.532   4.599  17.264  0.00  0.00    +0.000 A 
ATOM      7  C   UNL     1       7.369   5.716  17.312  0.00  0.00    +0.000 A 
ATOM      8  C   UNL     1       6.844   6.994  17.517  0.00  0.00    +0.000 A 
ATOM      9  C   UNL     1       5.460   7.194  17.643  0.00  0.00    +0.000 A 
ATOM     10  C   UNL     1       4.608   6.070  17.672  0.00  0.00    +0.000 A 
ATOM     11  H   UNL     1       4.291   2.916  17.597  0.00  0.00    +0.000 HD
ENDROOT
BRANCH   3  12
ATOM     12  C   UNL     1       1.900   3.645  18.681  0.00  0.00    +0.000 C 
ATOM     13  C   UNL     1       2.292   2.228  19.120  0.00  0.00    +0.000 C 
ATOM     14  C   UNL     1       3.026   2.150  20.461  0.00  0.00    +0.000 C 
ATOM     15  C   UNL     1       2.464   3.052  21.558  0.00  0.00    +0.000 C 
ATOM     16  C   UNL     1       2.047   4.435  21.064  0.00  0.00    +0.000 C 
ATOM     17  C   UNL     1       1.151   4.311  19.845  0.00  0.00    +0.000 C 
BRANCH  12  18
ATOM     18  O   UNL     1       0.944   3.531  17.617  0.00  0.00    +0.000 OA
ATOM     19  H   UNL     1       1.438   3.339  16.802  0.00  0.00    +0.000 HD
ENDBRANCH  12  18
ENDBRANCH   3  12
BRANCH   8  20
ATOM     20  C   UNL     1       7.728   8.109  17.664  0.00  0.00    +0.000 C 
ATOM     21  N   UNL     1       8.412   9.037  17.777  0.00  0.00    +0.000 NA
ENDBRANCH   8  20
TORSDOF 3
ENDMDL
MODEL 3
REMARK VINA RESULT:      -7.6      4.298      5.788
REMARK  Name = 
REMARK  4 active torsions:
REMARK  status: ('A' for Active; 'I' for Inactive)
REMARK    1  A    between atoms: C_1  and  C_2
REMARK    2  A    between atoms: C_3  and  C_4
REMARK    3  A    between atoms: C_4  and  O_5
REMARK    4  A    between atoms: C_15  and  C_16
REMARK                            x       y       z     vdW  Elec       q    Type
REMARK                         _______ _______ _______ _____ _____    ______ ____
ROOT
ATOM      1  C   UNL     1       3.277   7.708  17.403  0.00  0.00    +0.000 C 
ATOM      2  C   UNL     1       2.604   7.612  18.729  0.00  0.00    +0.000 A 
ATOM      3  C   UNL     1       2.617   6.592  19.683  0.00  0.00    +0.000 A 
ATOM      4  N   UNL     1       1.930   7.097  20.776  0.00  0.00    +0.000 N 
ATOM      5  C   UNL     1       1.238   8.233  20.454  0.00  0.00    +0.000 A 
ATOM      6  C   UNL     1       0.273   8.933  21.185  0.00  0.00    +0.000 A 
ATOM      7  C   UNL     1      -0.380   9.983  20.535  0.00  0.00    +0.000 A 
ATOM      8  C   UNL     1      -0.026  10.346  19.233  0.00  0.00    +0.000 A 
ATOM      9  C   UNL     1       1.017   9.692  18.559  0.00  0.00    +0.000 A 
ATOM     10  C   UNL     1       1.635   8.582  19.172  0.00  0.00    +0.000 A 
ATOM     11  H   UNL     1       1.799   6.604  21.646  0.00  0.00    +0.000 HD
ENDROOT
BRANCH   3  12
ATOM     12  C   UNL     1       3.102   5.153  19.743  0.00  0.00    +0.000 C 
ATOM     13  C   UNL     1       2.491   4.244  20.816  0.00  0.00    +0.000 C 
ATOM     14  C   UNL     1       1.090   3.717  20.491  0.00  0.00    +0.000 C 
ATOM     15  C   UNL     1       0.891   3.264  19.046  0.00  0.00    +0.000 C 
ATOM     16  C   UNL     1       1.554   4.176  18.017  0.00  0.00    +0.000 C 
ATOM     17  C   UNL     1       3.004   4.426  18.393  0.00  0.00    +0.000 C 
BRANCH  12  18
ATOM     18  O   UNL     1       4.504   5.280  20.016  0.00  0.00    +0.000 OA
ATOM     19  H   UNL     1       4.779   4.481  20.498  0.00  0.00    +0.000 HD
ENDBRANCH  12  18
ENDBRANCH   3  12
BRANCH   8  20
ATOM     20  C   UNL     1      -0.775  11.356  18.550  0.00  0.00    +0.000 C 
ATOM     21  N   UNL     1      -1.385  12.193  18.032  0.00  0.00    +0.000 NA
ENDBRANCH   8  20
TORSDOF 3
ENDMDL
MODEL 4
REMARK VINA RESULT:      -7.5      2.182      3.091
REMARK  Name = 
REMARK  4 active torsions:
REMARK  status: ('A' for Active; 'I' for Inactive)
REMARK    1  A    between atoms: C_1  and  C_2
REMARK    2  A    between atoms: C_3  and  C_4
REMARK    3  A    between atoms: C_4  and  O_5
REMARK    4  A    between atoms: C_15  and  C_16
REMARK                            x       y       z     vdW  Elec       q    Type
REMARK                         _______ _______ _______ _____ _____    ______ ____
ROOT
ATOM      1  C   UNL     1       2.877   2.943  17.399  0.00  0.00    +0.000 C 
ATOM      2  C   UNL     1       3.750   3.952  18.061  0.00  0.00    +0.000 A 
ATOM      3  C   UNL     1       3.566   4.681  19.238  0.00  0.00    +0.000 A 
ATOM      4  N   UNL     1       4.755   5.365  19.442  0.00  0.00    +0.000 N 
ATOM      5  C   UNL     1       5.543   5.348  18.322  0.00  0.00    +0.000 A 
ATOM      6  C   UNL     1       6.704   6.071  18.032  0.00  0.00    +0.000 A 
ATOM      7  C   UNL     1       7.214   5.960  16.737  0.00  0.00    +0.000 A 
ATOM      8  C   UNL     1       6.616   5.109  15.804  0.00  0.00    +0.000 A 
ATOM      9  C   UNL     1       5.512   4.316  16.154  0.00  0.00    +0.000 A 
ATOM     10  C   UNL     1       4.938   4.472  17.433  0.00  0.00    +0.000 A 
ATOM     11  H   UNL     1       4.945   5.956  20.236  0.00  0.00    +0.000 HD
ENDROOT
BRANCH   3  12
ATOM     12  C   UNL     1       2.421   4.929  20.206  0.00  0.00    +0.000 C 
ATOM     13  C   UNL     1       1.011   4.530  19.752  0.00  0.00    +0.000 C 
ATOM     14  C   UNL     1       0.707   3.032  19.837  0.00  0.00    +0.000 C 
ATOM     15  C   UNL     1       1.217   2.340  21.099  0.00  0.00    +0.000 C 
ATOM     16  C   UNL     1       2.605   2.801  21.536  0.00  0.00    +0.000 C 
ATOM     17  C   UNL     1       2.662   4.317  21.595  0.00  0.00    +0.000 C 
BRANCH  12  18
ATOM     18  O   UNL     1       2.440   6.350  20.398  0.00  0.00    +0.000 OA
ATOM     19  H   UNL     1       1.716   6.724  19.868  0.00  0.00    +0.000 HD
ENDBRANCH  12  18
ENDBRANCH   3  12
BRANCH   8  20
ATOM     20  C   UNL     1       7.093   5.086  14.456  0.00  0.00    +0.000 C 
ATOM     21  N   UNL     1       7.488   5.108  13.366  0.00  0.00    +0.000 NA
ENDBRANCH   8  20
TORSDOF 3
ENDMDL
MODEL 5
REMARK VINA RESULT:      -7.3      3.323      4.755
REMARK  Name = 
REMARK  4 active torsions:
REMARK  status: ('A' for Active; 'I' for Inactive)
REMARK    1  A    between atoms: C_1  and  C_2
REMARK    2  A    between atoms: C_3  and  C_4
REMARK    3  A    between atoms: C_4  and  O_5
REMARK    4  A    between atoms: C_15  and  C_16
REMARK                            x       y       z     vdW  Elec       q    Type
REMARK                         _______ _______ _______ _____ _____    ______ ____
ROOT
ATOM      1  C   UNL     1       4.060   6.572  17.144  0.00  0.00    +0.000 C 
ATOM      2  C   UNL     1       3.419   6.436  18.482  0.00  0.00    +0.000 A 
ATOM      3  C   UNL     1       3.365   5.349  19.358  0.00  0.00    +0.000 A 
ATOM      4  N   UNL     1       2.758   5.829  20.509  0.00  0.00    +0.000 N 
ATOM      5  C   UNL     1       2.164   7.044  20.295  0.00  0.00    +0.000 A 
ATOM      6  C   UNL     1       1.289   7.770  21.109  0.00  0.00    +0.000 A 
ATOM      7  C   UNL     1       0.718   8.920  20.560  0.00  0.00    +0.000 A 
ATOM      8  C   UNL     1       1.067   9.349  19.277  0.00  0.00    +0.000 A 
ATOM      9  C   UNL     1       2.026   8.657  18.521  0.00  0.00    +0.000 A 
ATOM     10  C   UNL     1       2.556   7.452  19.029  0.00  0.00    +0.000 A 
ATOM     11  H   UNL     1       2.607   5.285  21.344  0.00  0.00    +0.000 HD
ENDROOT
BRANCH   3  12
ATOM     12  C   UNL     1       3.717   3.873  19.295  0.00  0.00    +0.000 C 
ATOM     13  C   UNL     1       3.136   2.959  20.382  0.00  0.00    +0.000 C 
ATOM     14  C   UNL     1       1.667   2.577  20.185  0.00  0.00    +0.000 C 
ATOM     15  C   UNL     1       1.278   2.229  18.749  0.00  0.00    +0.000 C 
ATOM     16  C   UNL     1       1.915   3.137  17.701  0.00  0.00    +0.000 C 
ATOM     17  C   UNL     1       3.413   3.236  17.930  0.00  0.00    +0.000 C 
BRANCH  12  18
ATOM     18  O   UNL     1       5.145   3.859  19.422  0.00  0.00    +0.000 OA
ATOM     19  H   UNL     1       5.429   2.929  19.412  0.00  0.00    +0.000 HD
ENDBRANCH  12  18
ENDBRANCH   3  12
BRANCH   8  20
ATOM     20  C   UNL     1       0.395  10.471  18.697  0.00  0.00    +0.000 C 
ATOM     21  N   UNL     1      -0.120  11.404  18.243  0.00  0.00    +0.000 NA
ENDBRANCH   8  20
TORSDOF 3
ENDMDL
MODEL 6
REMARK VINA RESULT:      -7.3      3.648      5.273
REMARK  Name = 
REMARK  4 active torsions:
REMARK  status: ('A' for Active; 'I' for Inactive)
REMARK    1  A    between atoms: C_1  and  C_2
REMARK    2  A    between atoms: C_3  and  C_4
REMARK    3  A    between atoms: C_4  and  O_5
REMARK    4  A    between atoms: C_15  and  C_16
REMARK                            x       y       z     vdW  Elec       q    Type
REMARK                         _______ _______ _______ _____ _____    ______ ____
ROOT
ATOM      1  C   UNL     1       2.197   4.592  21.132  0.00  0.00    +0.000 C 
ATOM      2  C   UNL     1       2.334   5.621  20.064  0.00  0.00    +0.000 A 
ATOM      3  C   UNL     1       3.088   5.616  18.888  0.00  0.00    +0.000 A 
ATOM      4  N   UNL     1       2.729   6.772  18.211  0.00  0.00    +0.000 N 
ATOM      5  C   UNL     1       2.039   7.634  19.020  0.00  0.00    +0.000 A 
ATOM      6  C   UNL     1       1.676   8.968  18.806  0.00  0.00    +0.000 A 
ATOM      7  C   UNL     1       1.103   9.650  19.880  0.00  0.00    +0.000 A 
ATOM      8  C   UNL     1       0.849   8.996  21.089  0.00  0.00    +0.000 A 
ATOM      9  C   UNL     1       1.129   7.629  21.242  0.00  0.00    +0.000 A 
ATOM     10  C   UNL     1       1.778   6.944  20.194  0.00  0.00    +0.000 A 
ATOM     11  H   UNL     1       3.081   7.034  17.304  0.00  0.00    +0.000 HD
ENDROOT
BRANCH   3  12
ATOM     12  C   UNL     1       4.178   4.743  18.289  0.00  0.00    +0.000 C 
ATOM     13  C   UNL     1       4.870   3.737  19.217  0.00  0.00    +0.000 C 
ATOM     14  C   UNL     1       4.064   2.467  19.504  0.00  0.00    +0.000 C 
ATOM     15  C   UNL     1       3.349   1.869  18.295  0.00  0.00    +0.000 C 
ATOM     16  C   UNL     1       2.714   2.911  17.378  0.00  0.00    +0.000 C 
ATOM     17  C   UNL     1       3.724   3.990  17.029  0.00  0.00    +0.000 C 
BRANCH  12  18
ATOM     18  O   UNL     1       5.163   5.686  17.845  0.00  0.00    +0.000 OA
ATOM     19  H   UNL     1       5.408   5.445  16.936  0.00  0.00    +0.000 HD
ENDBRANCH  12  18
ENDBRANCH   3  12
BRANCH   8  20
ATOM     20  C   UNL     1       0.355   9.738  22.207  0.00  0.00    +0.000 C 
ATOM     21  N   UNL     1      -0.063  10.306  23.127  0.00  0.00    +0.000 NA
ENDBRANCH   8  20
TORSDOF 3
ENDMDL
MODEL 7
REMARK VINA RESULT:      -7.2      3.480      5.823
REMARK  Name = 
REMARK  4 active torsions:
REMARK  status: ('A' for Active; 'I' for Inactive)
REMARK    1  A    between atoms: C_1  and  C_2
REMARK    2  A    between atoms: C_3  and  C_4
REMARK    3  A    between atoms: C_4  and  O_5
REMARK    4  A    between atoms: C_15  and  C_16
REMARK                            x       y       z     vdW  Elec       q    Type
REMARK                         _______ _______ _______ _____ _____    ______ ____
ROOT
ATOM      1  C   UNL     1       2.545   4.441  20.569  0.00  0.00    +0.000 C 
ATOM      2  C   UNL     1       2.562   5.596  19.629  0.00  0.00    +0.000 A 
ATOM      3  C   UNL     1       3.222   5.766  18.410  0.00  0.00    +0.000 A 
ATOM      4  N   UNL     1       2.770   6.977  17.908  0.00  0.00    +0.000 N 
ATOM      5  C   UNL     1       2.117   7.705  18.865  0.00  0.00    +0.000 A 
ATOM      6  C   UNL     1       1.692   9.038  18.845  0.00  0.00    +0.000 A 
ATOM      7  C   UNL     1       1.181   9.561  20.034  0.00  0.00    +0.000 A 
ATOM      8  C   UNL     1       1.046   8.756  21.168  0.00  0.00    +0.000 A 
ATOM      9  C   UNL     1       1.384   7.394  21.131  0.00  0.00    +0.000 A 
ATOM     10  C   UNL     1       1.972   6.869  19.962  0.00  0.00    +0.000 A 
ATOM     11  H   UNL     1       3.041   7.362  17.017  0.00  0.00    +0.000 HD
ENDROOT
BRANCH   3  12
ATOM     12  C   UNL     1       4.291   5.020  17.629  0.00  0.00    +0.000 C 
ATOM     13  C   UNL     1       5.022   5.786  16.519  0.00  0.00    +0.000 C 
ATOM     14  C   UNL     1       6.107   6.748  17.009  0.00  0.00    +0.000 C 
ATOM     15  C   UNL     1       6.989   6.208  18.134  0.00  0.00    +0.000 C 
ATOM     16  C   UNL     1       6.223   5.416  19.190  0.00  0.00    +0.000 C 
ATOM     17  C   UNL     1       5.350   4.364  18.529  0.00  0.00    +0.000 C 
BRANCH  12  18
ATOM     18  O   UNL     1       3.573   3.938  17.021  0.00  0.00    +0.000 OA
ATOM     19  H   UNL     1       2.845   4.325  16.506  0.00  0.00    +0.000 HD
ENDBRANCH  12  18
ENDBRANCH   3  12
BRANCH   8  20
ATOM     20  C   UNL     1       0.615   9.336  22.403  0.00  0.00    +0.000 C 
ATOM     21  N   UNL     1       0.292   9.782  23.422  0.00  0.00    +0.000 NA
ENDBRANCH   8  20
TORSDOF 3
ENDMDL
MODEL 8
REMARK VINA RESULT:      -7.2      1.512      2.083
REMARK  Name = 
REMARK  4 active torsions:
REMARK  status: ('A' for Active; 'I' for Inactive)
REMARK    1  A    between atoms: C_1  and  C_2
REMARK    2  A    between atoms: C_3  and  C_4
REMARK    3  A    between atoms: C_4  and  O_5
REMARK    4  A    between atoms: C_15  and  C_16
REMARK                            x       y       z     vdW  Elec       q    Type
REMARK                         _______ _______ _______ _____ _____    ______ ____
ROOT
ATOM      1  C   UNL     1       4.676   5.188  15.673  0.00  0.00    +0.000 C 
ATOM      2  C   UNL     1       5.315   4.832  16.970  0.00  0.00    +0.000 A 
ATOM      3  C   UNL     1       4.990   3.844  17.903  0.00  0.00    +0.000 A 
ATOM      4  N   UNL     1       6.002   3.878  18.850  0.00  0.00    +0.000 N 
ATOM      5  C   UNL     1       6.759   5.012  18.734  0.00  0.00    +0.000 A 
ATOM      6  C   UNL     1       7.729   5.535  19.596  0.00  0.00    +0.000 A 
ATOM      7  C   UNL     1       8.235   6.800  19.291  0.00  0.00    +0.000 A 
ATOM      8  C   UNL     1       7.828   7.473  18.136  0.00  0.00    +0.000 A 
ATOM      9  C   UNL     1       6.929   6.881  17.235  0.00  0.00    +0.000 A 
ATOM     10  C   UNL     1       6.351   5.637  17.566  0.00  0.00    +0.000 A 
ATOM     11  H   UNL     1       6.066   3.254  19.639  0.00  0.00    +0.000 HD
ENDROOT
BRANCH   3  12
ATOM     12  C   UNL     1       3.831   2.886  18.126  0.00  0.00    +0.000 C 
ATOM     13  C   UNL     1       3.458   2.552  19.576  0.00  0.00    +0.000 C 
ATOM     14  C   UNL     1       2.652   3.634  20.299  0.00  0.00    +0.000 C 
ATOM     15  C   UNL     1       1.551   4.285  19.465  0.00  0.00    +0.000 C 
ATOM     16  C   UNL     1       1.954   4.558  18.018  0.00  0.00    +0.000 C 
ATOM     17  C   UNL     1       2.548   3.309  17.393  0.00  0.00    +0.000 C 
BRANCH  12  18
ATOM     18  O   UNL     1       4.263   1.676  17.489  0.00  0.00    +0.000 OA
ATOM     19  H   UNL     1       5.127   1.441  17.868  0.00  0.00    +0.000 HD
ENDBRANCH  12  18
ENDBRANCH   3  12
BRANCH   8  20
ATOM     20  C   UNL     1       8.281   8.808  17.896  0.00  0.00    +0.000 C 
ATOM     21  N   UNL     1       8.613   9.903  17.714  0.00  0.00    +0.000 NA
ENDBRANCH   8  20
TORSDOF 3
ENDMDL
MODEL 9
REMARK VINA RESULT:      -6.9      2.420      3.146
REMARK  Name = 
REMARK  4 active torsions:
REMARK  status: ('A' for Active; 'I' for Inactive)
REMARK    1  A    between atoms: C_1  and  C_2
REMARK    2  A    between atoms: C_3  and  C_4
REMARK    3  A    between atoms: C_4  and  O_5
REMARK    4  A    between atoms: C_15  and  C_16
REMARK                            x       y       z     vdW  Elec       q    Type
REMARK                         _______ _______ _______ _____ _____    ______ ____
ROOT
ATOM      1  C   UNL     1       4.085   1.693  17.575  0.00  0.00    +0.000 C 
ATOM      2  C   UNL     1       3.872   3.166  17.617  0.00  0.00    +0.000 A 
ATOM      3  C   UNL     1       2.883   3.924  18.248  0.00  0.00    +0.000 A 
ATOM      4  N   UNL     1       3.254   5.247  18.064  0.00  0.00    +0.000 N 
ATOM      5  C   UNL     1       4.230   5.368  17.111  0.00  0.00    +0.000 A 
ATOM      6  C   UNL     1       4.735   6.511  16.484  0.00  0.00    +0.000 A 
ATOM      7  C   UNL     1       5.630   6.315  15.431  0.00  0.00    +0.000 A 
ATOM      8  C   UNL     1       6.044   5.029  15.075  0.00  0.00    +0.000 A 
ATOM      9  C   UNL     1       5.601   3.905  15.789  0.00  0.00    +0.000 A 
ATOM     10  C   UNL     1       4.638   4.078  16.805  0.00  0.00    +0.000 A 
ATOM     11  H   UNL     1       2.753   6.038  18.437  0.00  0.00    +0.000 HD
ENDROOT
BRANCH   3  12
ATOM     12  C   UNL     1       1.567   3.639  18.953  0.00  0.00    +0.000 C 
ATOM     13  C   UNL     1       1.401   2.265  19.613  0.00  0.00    +0.000 C 
ATOM     14  C   UNL     1       2.112   2.107  20.960  0.00  0.00    +0.000 C 
ATOM     15  C   UNL     1       1.997   3.309  21.895  0.00  0.00    +0.000 C 
ATOM     16  C   UNL     1       2.126   4.655  21.186  0.00  0.00    +0.000 C 
ATOM     17  C   UNL     1       1.193   4.710  19.989  0.00  0.00    +0.000 C 
BRANCH  12  18
ATOM     18  O   UNL     1       0.592   3.750  17.908  0.00  0.00    +0.000 OA
ATOM     19  H   UNL     1       0.664   2.952  17.357  0.00  0.00    +0.000 HD
ENDBRANCH  12  18
ENDBRANCH   3  12
BRANCH   8  20
ATOM     20  C   UNL     1       6.882   4.844  13.931  0.00  0.00    +0.000 C 
ATOM     21  N   UNL     1       7.528   4.689  12.981  0.00  0.00    +0.000 NA
ENDBRANCH   8  20
TORSDOF 3
ENDMDL
