MODEL 1
REMARK VINA RESULT:      -7.2      0.000      0.000
REMARK  Name = 
REMARK  9 active torsions:
REMARK  status: ('A' for Active; 'I' for Inactive)
REMARK    1  A    between atoms: C_1  and  O_2
REMARK    2  A    between atoms: O_2  and  C_3
REMARK    3  A    between atoms: C_3  and  C_5
REMARK    4  A    between atoms: C_8  and  N_9
REMARK    5  A    between atoms: C_13  and  C_14
REMARK    6  A    between atoms: C_16  and  O_17
REMARK    7  A    between atoms: O_17  and  C_18
REMARK    8  A    between atoms: C_25  and  S_26
REMARK    9  A    between atoms: S_26  and  C_27
REMARK                            x       y       z     vdW  Elec       q    Type
REMARK                         _______ _______ _______ _____ _____    ______ ____
ROOT
ATOM      1  N   UNL     1       2.428   7.884  17.756  0.00  0.00    +0.000 N 
ATOM      2  C   UNL     1       1.862   8.412  18.929  0.00  0.00    +0.000 A 
ATOM      3  C   UNL     1       1.837   7.683  20.125  0.00  0.00    +0.000 A 
ATOM      4  N   UNL     1       1.294   8.137  21.284  0.00  0.00    +0.000 NA
ATOM      5  C   UNL     1       0.751   9.377  21.212  0.00  0.00    +0.000 A 
ATOM      6  C   UNL     1       0.719  10.103  20.023  0.00  0.00    +0.000 A 
ATOM      7  N   UNL     1       1.265   9.633  18.862  0.00  0.00    +0.000 NA
ATOM      8  H   UNL     1       2.375   8.570  17.013  0.00  0.00    +0.000 HD
ENDROOT
BRANCH   1  12
ATOM      9  C   UNL     1       5.842   5.446  17.587  0.00  0.00    +0.000 A 
ATOM     10  C   UNL     1       5.809   6.753  17.116  0.00  0.00    +0.000 A 
ATOM     11  N   UNL     1       4.717   7.561  17.154  0.00  0.00    +0.000 NA
ATOM     12  C   UNL     1       3.574   7.068  17.666  0.00  0.00    +0.000 A 
ATOM     13  C   UNL     1       3.520   5.767  18.166  0.00  0.00    +0.000 A 
ATOM     14  C   UNL     1       4.665   4.945  18.152  0.00  0.00    +0.000 A 
BRANCH   9  15
ATOM     15  C   UNL     1       7.144   4.753  17.477  0.00  0.00    +0.000 C 
ATOM     16  O   UNL     1       7.826   4.480  18.452  0.00  0.00    +0.000 OA
BRANCH  15  18
ATOM     17  C   UNL     1       6.583   3.833  15.387  0.00  0.00    +0.000 C 
ATOM     18  O   UNL     1       7.506   4.584  16.183  0.00  0.00    +0.000 OA
ENDBRANCH  15  18
ENDBRANCH   9  15
BRANCH  14  19
ATOM     19  S   UNL     1       4.560   3.396  19.054  0.00  0.00    +0.000 S 
ATOM     20  C   UNL     1       3.616   2.398  17.872  0.00  0.00    +0.000 C 
ENDBRANCH  14  19
ENDBRANCH   1  12
BRANCH   5  21
ATOM     21  C   UNL     1       0.199   9.894  22.429  0.00  0.00    +0.000 C 
ATOM     22  N   UNL     1      -0.253  10.325  23.411  0.00  0.00    +0.000 NA
ENDBRANCH   5  21
BRANCH   6  23
ATOM     23  O   UNL     1       0.106  11.345  20.046  0.00  0.00    +0.000 OA
BRANCH  23  24
ATOM     24  C   UNL     1       0.546  12.267  19.044  0.00  0.00    +0.000 C 
ATOM     25  C   UNL     1       1.247  13.433  19.737  0.00  0.00    +0.000 C 
ATOM     26  C   UNL     1       0.170  14.488  19.903  0.00  0.00    +0.000 C 
ATOM     27  N   UNL     1      -0.716  14.341  18.748  0.00  0.00    +0.000 NA
ATOM     28  C   UNL     1      -0.632  12.935  18.322  0.00  0.00    +0.000 C 
ATOM     29  H   UNL     1      -0.393  14.943  17.992  0.00  0.00    +0.000 HD
ENDBRANCH  23  24
ENDBRANCH   6  23
TORSDOF 7
ENDMDL
MODEL 2
REMARK VINA RESULT:      -7.1      0.669      1.203
REMARK  Name = 
REMARK  9 active torsions:
REMARK  status: ('A' for Active; 'I' for Inactive)
REMARK    1  A    between atoms: C_1  and  O_2
REMARK    2  A    between atoms: O_2  and  C_3
REMARK    3  A    between atoms: C_3  and  C_5
REMARK    4  A    between atoms: C_8  and  N_9
REMARK    5  A    between atoms: C_13  and  C_14
REMARK    6  A    between atoms: C_16  and  O_17
REMARK    7  A    between atoms: O_17  and  C_18
REMARK    8  A    between atoms: C_25  and  S_26
REMARK    9  A    between atoms: S_26  and  C_27
REMARK                            x       y       z     vdW  Elec       q    Type
REMARK                         _______ _______ _______ _____ _____    ______ ____
ROOT
ATOM      1  N   UNL     1       2.473   7.801  17.708  0.00  0.00    +0.000 N 
ATOM      2  C   UNL     1       1.906   8.337  18.877  0.00  0.00    +0.000 A 
ATOM      3  C   UNL     1       1.909   7.630  20.086  0.00  0.00    +0.000 A 
ATOM      4  N   UNL     1       1.367   8.092  21.241  0.00  0.00    +0.000 NA
ATOM      5  C   UNL     1       0.795   9.319  21.153  0.00  0.00    +0.000 A 
ATOM      6  C   UNL     1       0.734  10.021  19.951  0.00  0.00    +0.000 A 
ATOM      7  N   UNL     1       1.280   9.543  18.793  0.00  0.00    +0.000 NA
ATOM      8  H   UNL     1       2.397   8.472  16.953  0.00  0.00    +0.000 HD
ENDROOT
BRANCH   1  12
ATOM      9  C   UNL     1       5.937   5.433  17.548  0.00  0.00    +0.000 A 
ATOM     10  C   UNL     1       5.895   6.760  17.135  0.00  0.00    +0.000 A 
ATOM     11  N   UNL     1       4.787   7.546  17.171  0.00  0.00    +0.000 NA
ATOM     12  C   UNL     1       3.636   7.010  17.621  0.00  0.00    +0.000 A 
ATOM     13  C   UNL     1       3.591   5.687  18.060  0.00  0.00    +0.000 A 
ATOM     14  C   UNL     1       4.751   4.886  18.049  0.00  0.00    +0.000 A 
BRANCH   9  15
ATOM     15  C   UNL     1       7.254   4.769  17.452  0.00  0.00    +0.000 C 
ATOM     16  O   UNL     1       7.724   4.394  16.389  0.00  0.00    +0.000 OA
BRANCH  15  18
ATOM     17  C   UNL     1       8.018   5.707  19.467  0.00  0.00    +0.000 C 
ATOM     18  O   UNL     1       7.781   4.538  18.678  0.00  0.00    +0.000 OA
ENDBRANCH  15  18
ENDBRANCH   9  15
BRANCH  14  19
ATOM     19  S   UNL     1       4.645   3.297  18.877  0.00  0.00    +0.000 S 
ATOM     20  C   UNL     1       3.214   3.589  19.951  0.00  0.00    +0.000 C 
ENDBRANCH  14  19
ENDBRANCH   1  12
BRANCH   5  21
ATOM     21  C   UNL     1       0.243   9.845  22.366  0.00  0.00    +0.000 C 
ATOM     22  N   UNL     1      -0.212  10.261  23.353  0.00  0.00    +0.000 NA
ENDBRANCH   5  21
BRANCH   6  23
ATOM     23  O   UNL     1       0.094  11.249  19.958  0.00  0.00    +0.000 OA
BRANCH  23  24
ATOM     24  C   UNL     1       0.487  12.155  18.923  0.00  0.00    +0.000 C 
ATOM     25  C   UNL     1       1.288  13.291  19.555  0.00  0.00    +0.000 C 
ATOM     26  C   UNL     1       0.270  14.388  19.806  0.00  0.00    +0.000 C 
ATOM     27  N   UNL     1      -0.711  14.278  18.726  0.00  0.00    +0.000 NA
ATOM     28  C   UNL     1      -0.718  12.870  18.296  0.00  0.00    +0.000 C 
ATOM     29  H   UNL     1      -0.426  14.868  17.946  0.00  0.00    +0.000 HD
ENDBRANCH  23  24
ENDBRANCH   6  23
TORSDOF 7
ENDMDL
MODEL 3
REMARK VINA RESULT:      -7.1      3.084      8.972
REMARK  Name = 
REMARK  9 active torsions:
REMARK  status: ('A' for Active; 'I' for Inactive)
REMARK    1  A    between atoms: C_1  and  O_2
REMARK    2  A    between atoms: O_2  and  C_3
REMARK    3  A    between atoms: C_3  and  C_5
REMARK    4  A    between atoms: C_8  and  N_9
REMARK    5  A    between atoms: C_13  and  C_14
REMARK    6  A    between atoms: C_16  and  O_17
REMARK    7  A    between atoms: O_17  and  C_18
REMARK    8  A    between atoms: C_25  and  S_26
REMARK    9  A    between atoms: S_26  and  C_27
REMARK                            x       y       z     vdW  Elec       q    Type
REMARK                         _______ _______ _______ _____ _____    ______ ____
ROOT
ATOM      1  N   UNL     1       2.112   9.417  18.049  0.00  0.00    +0.000 N 
ATOM      2  C   UNL     1       2.475   8.095  18.358  0.00  0.00    +0.000 A 
ATOM      3  C   UNL     1       2.164   7.517  19.596  0.00  0.00    +0.000 A 
ATOM      4  N   UNL     1       2.499   6.251  19.952  0.00  0.00    +0.000 NA
ATOM      5  C   UNL     1       3.184   5.555  19.011  0.00  0.00    +0.000 A 
ATOM      6  C   UNL     1       3.549   6.123  17.791  0.00  0.00    +0.000 A 
ATOM      7  N   UNL     1       3.209   7.400  17.446  0.00  0.00    +0.000 NA
ATOM      8  H   UNL     1       2.398   9.638  17.103  0.00  0.00    +0.000 HD
ENDROOT
BRANCH   1  12
ATOM      9  C   UNL     1      -1.440  11.404  19.081  0.00  0.00    +0.000 A 
ATOM     10  C   UNL     1      -0.189  11.769  19.564  0.00  0.00    +0.000 A 
ATOM     11  N   UNL     1       0.974  11.140  19.251  0.00  0.00    +0.000 NA
ATOM     12  C   UNL     1       0.924  10.076  18.428  0.00  0.00    +0.000 A 
ATOM     13  C   UNL     1      -0.290   9.645  17.893  0.00  0.00    +0.000 A 
ATOM     14  C   UNL     1      -1.489  10.321  18.198  0.00  0.00    +0.000 A 
BRANCH   9  15
ATOM     15  C   UNL     1      -2.574  12.243  19.526  0.00  0.00    +0.000 C 
ATOM     16  O   UNL     1      -3.731  11.996  19.224  0.00  0.00    +0.000 OA
BRANCH  15  18
ATOM     17  C   UNL     1      -3.171  14.114  20.817  0.00  0.00    +0.000 C 
ATOM     18  O   UNL     1      -2.144  13.346  20.184  0.00  0.00    +0.000 OA
ENDBRANCH  15  18
ENDBRANCH   9  15
BRANCH  14  19
ATOM     19  S   UNL     1      -2.943   9.853  17.255  0.00  0.00    +0.000 S 
ATOM     20  C   UNL     1      -2.759  10.942  15.818  0.00  0.00    +0.000 C 
ENDBRANCH  14  19
ENDBRANCH   1  12
BRANCH   5  21
ATOM     21  C   UNL     1       3.523   4.205  19.349  0.00  0.00    +0.000 C 
ATOM     22  N   UNL     1       3.810   3.113  19.629  0.00  0.00    +0.000 NA
ENDBRANCH   5  21
BRANCH   6  23
ATOM     23  O   UNL     1       4.282   5.341  16.914  0.00  0.00    +0.000 OA
BRANCH  23  24
ATOM     24  C   UNL     1       5.359   6.006  16.248  0.00  0.00    +0.000 C 
ATOM     25  C   UNL     1       5.621   5.293  14.924  0.00  0.00    +0.000 C 
ATOM     26  C   UNL     1       6.731   4.304  15.230  0.00  0.00    +0.000 C 
ATOM     27  N   UNL     1       7.559   4.939  16.256  0.00  0.00    +0.000 NA
ATOM     28  C   UNL     1       6.685   5.855  17.006  0.00  0.00    +0.000 C 
ATOM     29  H   UNL     1       8.304   5.473  15.810  0.00  0.00    +0.000 HD
ENDBRANCH  23  24
ENDBRANCH   6  23
TORSDOF 7
ENDMDL
MODEL 4
REMARK VINA RESULT:      -7.0      1.132      1.348
REMARK  Name = 
REMARK  9 active torsions:
REMARK  status: ('A' for Active; 'I' for Inactive)
REMARK    1  A    between atoms: C_1  and  O_2
REMARK    2  A    between atoms: O_2  and  C_3
REMARK    3  A    between atoms: C_3  and  C_5
REMARK    4  A    between atoms: C_8  and  N_9
REMARK    5  A    between atoms: C_13  and  C_14
REMARK    6  A    between atoms: C_16  and  O_17
REMARK    7  A    between atoms: O_17  and  C_18
REMARK    8  A    between atoms: C_25  and  S_26
REMARK    9  A    between atoms: S_26  and  C_27
REMARK                            x       y       z     vdW  Elec       q    Type
REMARK                         _______ _______ _______ _____ _____    ______ ____
ROOT
ATOM      1  N   UNL     1       2.479   7.860  17.736  0.00  0.00    +0.000 N 
ATOM      2  C   UNL     1       1.965   8.287  18.972  0.00  0.00    +0.000 A 
ATOM      3  C   UNL     1       1.973   7.455  20.099  0.00  0.00    +0.000 A 
ATOM      4  N   UNL     1       1.480   7.809  21.312  0.00  0.00    +0.000 NA
ATOM      5  C   UNL     1       0.953   9.057  21.372  0.00  0.00    +0.000 A 
ATOM      6  C   UNL     1       0.887   9.887  20.254  0.00  0.00    +0.000 A 
ATOM      7  N   UNL     1       1.383   9.516  19.036  0.00  0.00    +0.000 NA
ATOM      8  H   UNL     1       2.410   8.610  17.059  0.00  0.00    +0.000 HD
ENDROOT
BRANCH   1  12
ATOM      9  C   UNL     1       5.835   5.390  17.216  0.00  0.00    +0.000 A 
ATOM     10  C   UNL     1       5.884   6.776  17.137  0.00  0.00    +0.000 A 
ATOM     11  N   UNL     1       4.813   7.598  17.295  0.00  0.00    +0.000 NA
ATOM     12  C   UNL     1       3.610   7.043  17.530  0.00  0.00    +0.000 A 
ATOM     13  C   UNL     1       3.472   5.658  17.631  0.00  0.00    +0.000 A 
ATOM     14  C   UNL     1       4.592   4.813  17.496  0.00  0.00    +0.000 A 
BRANCH   9  15
ATOM     15  C   UNL     1       7.125   4.688  17.042  0.00  0.00    +0.000 C 
ATOM     16  O   UNL     1       7.787   4.288  17.987  0.00  0.00    +0.000 OA
BRANCH  15  18
ATOM     17  C   UNL     1       6.567   4.057  14.847  0.00  0.00    +0.000 C 
ATOM     18  O   UNL     1       7.503   4.665  15.742  0.00  0.00    +0.000 OA
ENDBRANCH  15  18
ENDBRANCH   9  15
BRANCH  14  19
ATOM     19  S   UNL     1       4.353   3.081  17.905  0.00  0.00    +0.000 S 
ATOM     20  C   UNL     1       2.599   2.892  17.490  0.00  0.00    +0.000 C 
ENDBRANCH  14  19
ENDBRANCH   1  12
BRANCH   5  21
ATOM     21  C   UNL     1       0.454   9.470  22.650  0.00  0.00    +0.000 C 
ATOM     22  N   UNL     1       0.040   9.813  23.682  0.00  0.00    +0.000 NA
ENDBRANCH   5  21
BRANCH   6  23
ATOM     23  O   UNL     1       0.294  11.128  20.410  0.00  0.00    +0.000 OA
BRANCH  23  24
ATOM     24  C   UNL     1      -1.129  11.155  20.260  0.00  0.00    +0.000 C 
ATOM     25  C   UNL     1      -1.470  10.740  18.831  0.00  0.00    +0.000 C 
ATOM     26  C   UNL     1      -1.600  12.046  18.070  0.00  0.00    +0.000 C 
ATOM     27  N   UNL     1      -2.127  13.017  19.028  0.00  0.00    +0.000 NA
ATOM     28  C   UNL     1      -1.691  12.579  20.364  0.00  0.00    +0.000 C 
ATOM     29  H   UNL     1      -3.145  13.017  18.989  0.00  0.00    +0.000 HD
ENDBRANCH  23  24
ENDBRANCH   6  23
TORSDOF 7
ENDMDL
MODEL 5
REMARK VINA RESULT:      -6.9      3.212      8.984
REMARK  Name = 
REMARK  9 active torsions:
REMARK  status: ('A' for Active; 'I' for Inactive)
REMARK    1  A    between atoms: C_1  and  O_2
REMARK    2  A    between atoms: O_2  and  C_3
REMARK    3  A    between atoms: C_3  and  C_5
REMARK    4  A    between atoms: C_8  and  N_9
REMARK    5  A    between atoms: C_13  and  C_14
REMARK    6  A    between atoms: C_16  and  O_17
REMARK    7  A    between atoms: O_17  and  C_18
REMARK    8  A    between atoms: C_25  and  S_26
REMARK    9  A    between atoms: S_26  and  C_27
REMARK                            x       y       z     vdW  Elec       q    Type
REMARK                         _______ _______ _______ _____ _____    ______ ____
ROOT
ATOM      1  N   UNL     1       2.281   9.337  17.964  0.00  0.00    +0.000 N 
ATOM      2  C   UNL     1       2.588   8.024  18.359  0.00  0.00    +0.000 A 
ATOM      3  C   UNL     1       2.088   7.478  19.548  0.00  0.00    +0.000 A 
ATOM      4  N   UNL     1       2.361   6.222  19.984  0.00  0.00    +0.000 NA
ATOM      5  C   UNL     1       3.181   5.503  19.178  0.00  0.00    +0.000 A 
ATOM      6  C   UNL     1       3.733   6.040  18.016  0.00  0.00    +0.000 A 
ATOM      7  N   UNL     1       3.454   7.308  17.589  0.00  0.00    +0.000 NA
ATOM      8  H   UNL     1       2.711   9.535  17.068  0.00  0.00    +0.000 HD
ENDROOT
BRANCH   1  12
ATOM      9  C   UNL     1      -1.372  11.314  18.580  0.00  0.00    +0.000 A 
ATOM     10  C   UNL     1      -1.256  10.114  17.889  0.00  0.00    +0.000 A 
ATOM     11  N   UNL     1      -0.087   9.457  17.671  0.00  0.00    +0.000 NA
ATOM     12  C   UNL     1       1.051  10.004  18.137  0.00  0.00    +0.000 A 
ATOM     13  C   UNL     1       1.025  11.205  18.847  0.00  0.00    +0.000 A 
ATOM     14  C   UNL     1      -0.195  11.865  19.096  0.00  0.00    +0.000 A 
BRANCH   9  15
ATOM     15  C   UNL     1      -2.744  11.844  18.729  0.00  0.00    +0.000 C 
ATOM     16  O   UNL     1      -3.185  12.232  19.800  0.00  0.00    +0.000 OA
BRANCH  15  18
ATOM     17  C   UNL     1      -4.825  11.371  17.743  0.00  0.00    +0.000 C 
ATOM     18  O   UNL     1      -3.448  11.723  17.578  0.00  0.00    +0.000 OA
ENDBRANCH  15  18
ENDBRANCH   9  15
BRANCH  14  19
ATOM     19  S   UNL     1      -0.146  13.250  20.238  0.00  0.00    +0.000 S 
ATOM     20  C   UNL     1       0.210  14.604  19.086  0.00  0.00    +0.000 C 
ENDBRANCH  14  19
ENDBRANCH   1  12
BRANCH   5  21
ATOM     21  C   UNL     1       3.461   4.163  19.599  0.00  0.00    +0.000 C 
ATOM     22  N   UNL     1       3.698   3.073  19.932  0.00  0.00    +0.000 NA
ENDBRANCH   5  21
BRANCH   6  23
ATOM     23  O   UNL     1       4.590   5.237  17.283  0.00  0.00    +0.000 OA
BRANCH  23  24
ATOM     24  C   UNL     1       5.453   5.926  16.373  0.00  0.00    +0.000 C 
ATOM     25  C   UNL     1       5.394   5.216  15.022  0.00  0.00    +0.000 C 
ATOM     26  C   UNL     1       6.568   4.256  15.040  0.00  0.00    +0.000 C 
ATOM     27  N   UNL     1       7.611   4.911  15.830  0.00  0.00    +0.000 NA
ATOM     28  C   UNL     1       6.928   5.808  16.778  0.00  0.00    +0.000 C 
ATOM     29  H   UNL     1       8.208   5.462  15.215  0.00  0.00    +0.000 HD
ENDBRANCH  23  24
ENDBRANCH   6  23
TORSDOF 7
ENDMDL
MODEL 6
REMARK VINA RESULT:      -6.9      1.121      1.636
REMARK  Name = 
REMARK  9 active torsions:
REMARK  status: ('A' for Active; 'I' for Inactive)
REMARK    1  A    between atoms: C_1  and  O_2
REMARK    2  A    between atoms: O_2  and  C_3
REMARK    3  A    between atoms: C_3  and  C_5
REMARK    4  A    between atoms: C_8  and  N_9
REMARK    5  A    between atoms: C_13  and  C_14
REMARK    6  A    between atoms: C_16  and  O_17
REMARK    7  A    between atoms: O_17  and  C_18
REMARK    8  A    between atoms: C_25  and  S_26
REMARK    9  A    between atoms: S_26  and  C_27
REMARK                            x       y       z     vdW  Elec       q    Type
REMARK                         _______ _______ _______ _____ _____    ______ ____
ROOT
ATOM      1  N   UNL     1       2.498   7.702  17.687  0.00  0.00    +0.000 N 
ATOM      2  C   UNL     1       1.945   8.215  18.872  0.00  0.00    +0.000 A 
ATOM      3  C   UNL     1       1.973   7.490  20.071  0.00  0.00    +0.000 A 
ATOM      4  N   UNL     1       1.445   7.930  21.241  0.00  0.00    +0.000 NA
ATOM      5  C   UNL     1       0.861   9.153  21.179  0.00  0.00    +0.000 A 
ATOM      6  C   UNL     1       0.776   9.873  19.989  0.00  0.00    +0.000 A 
ATOM      7  N   UNL     1       1.308   9.417  18.816  0.00  0.00    +0.000 NA
ATOM      8  H   UNL     1       2.406   8.383  16.943  0.00  0.00    +0.000 HD
ENDROOT
BRANCH   1  12
ATOM      9  C   UNL     1       5.978   5.365  17.438  0.00  0.00    +0.000 A 
ATOM     10  C   UNL     1       5.926   6.704  17.072  0.00  0.00    +0.000 A 
ATOM     11  N   UNL     1       4.813   7.481  17.137  0.00  0.00    +0.000 NA
ATOM     12  C   UNL     1       3.667   6.922  17.570  0.00  0.00    +0.000 A 
ATOM     13  C   UNL     1       3.632   5.584  17.964  0.00  0.00    +0.000 A 
ATOM     14  C   UNL     1       4.798   4.793  17.923  0.00  0.00    +0.000 A 
BRANCH   9  15
ATOM     15  C   UNL     1       7.300   4.713  17.317  0.00  0.00    +0.000 C 
ATOM     16  O   UNL     1       7.748   4.332  16.247  0.00  0.00    +0.000 OA
BRANCH  15  18
ATOM     17  C   UNL     1       8.020   5.672  19.339  0.00  0.00    +0.000 C 
ATOM     18  O   UNL     1       7.860   4.501  18.532  0.00  0.00    +0.000 OA
ENDBRANCH  15  18
ENDBRANCH   9  15
BRANCH  14  19
ATOM     19  S   UNL     1       4.704   3.175  18.696  0.00  0.00    +0.000 S 
ATOM     20  C   UNL     1       3.142   2.575  17.998  0.00  0.00    +0.000 C 
ENDBRANCH  14  19
ENDBRANCH   1  12
BRANCH   5  21
ATOM     21  C   UNL     1       0.323   9.656  22.408  0.00  0.00    +0.000 C 
ATOM     22  N   UNL     1      -0.126  10.065  23.401  0.00  0.00    +0.000 NA
ENDBRANCH   5  21
BRANCH   6  23
ATOM     23  O   UNL     1       0.125  11.095  20.024  0.00  0.00    +0.000 OA
BRANCH  23  24
ATOM     24  C   UNL     1      -0.488  11.502  18.797  0.00  0.00    +0.000 C 
ATOM     25  C   UNL     1      -1.101  12.885  19.000  0.00  0.00    +0.000 C 
ATOM     26  C   UNL     1      -2.550  12.616  19.362  0.00  0.00    +0.000 C 
ATOM     27  N   UNL     1      -2.926  11.405  18.633  0.00  0.00    +0.000 NA
ATOM     28  C   UNL     1      -1.694  10.623  18.438  0.00  0.00    +0.000 C 
ATOM     29  H   UNL     1      -3.312  11.660  17.725  0.00  0.00    +0.000 HD
ENDBRANCH  23  24
ENDBRANCH   6  23
TORSDOF 7
ENDMDL
MODEL 7
REMARK VINA RESULT:      -6.8      3.136      8.858
REMARK  Name = 
REMARK  9 active torsions:
REMARK  status: ('A' for Active; 'I' for Inactive)
REMARK    1  A    between atoms: C_1  and  O_2
REMARK    2  A    between atoms: O_2  and  C_3
REMARK    3  A    between atoms: C_3  and  C_5
REMARK    4  A    between atoms: C_8  and  N_9
REMARK    5  A    between atoms: C_13  and  C_14
REMARK    6  A    between atoms: C_16  and  O_17
REMARK    7  A    between atoms: O_17  and  C_18
REMARK    8  A    between atoms: C_25  and  S_26
REMARK    9  A    between atoms: S_26  and  C_27
REMARK                            x       y       z     vdW  Elec       q    Type
REMARK                         _______ _______ _______ _____ _____    ______ ____
ROOT
ATOM      1  N   UNL     1       2.317   9.187  18.181  0.00  0.00    +0.000 N 
ATOM      2  C   UNL     1       2.615   7.850  18.495  0.00  0.00    +0.000 A 
ATOM      3  C   UNL     1       2.117   7.238  19.652  0.00  0.00    +0.000 A 
ATOM      4  N   UNL     1       2.381   5.956  20.011  0.00  0.00    +0.000 NA
ATOM      5  C   UNL     1       3.190   5.280  19.159  0.00  0.00    +0.000 A 
ATOM      6  C   UNL     1       3.739   5.880  18.027  0.00  0.00    +0.000 A 
ATOM      7  N   UNL     1       3.469   7.173  17.679  0.00  0.00    +0.000 NA
ATOM      8  H   UNL     1       2.744   9.434  17.296  0.00  0.00    +0.000 HD
ENDROOT
BRANCH   1  12
ATOM      9  C   UNL     1      -1.332  11.125  18.928  0.00  0.00    +0.000 A 
ATOM     10  C   UNL     1      -1.129  10.256  17.863  0.00  0.00    +0.000 A 
ATOM     11  N   UNL     1       0.042   9.621  17.595  0.00  0.00    +0.000 NA
ATOM     12  C   UNL     1       1.094   9.853  18.402  0.00  0.00    +0.000 A 
ATOM     13  C   UNL     1       0.976  10.707  19.499  0.00  0.00    +0.000 A 
ATOM     14  C   UNL     1      -0.250  11.339  19.788  0.00  0.00    +0.000 A 
BRANCH   9  15
ATOM     15  C   UNL     1      -2.695  11.686  19.053  0.00  0.00    +0.000 C 
ATOM     16  O   UNL     1      -3.010  12.448  19.954  0.00  0.00    +0.000 OA
BRANCH  15  18
ATOM     17  C   UNL     1      -4.885  11.621  18.202  0.00  0.00    +0.000 C 
ATOM     18  O   UNL     1      -3.534  11.154  18.134  0.00  0.00    +0.000 OA
ENDBRANCH  15  18
ENDBRANCH   9  15
BRANCH  14  19
ATOM     19  S   UNL     1      -0.366  12.199  21.360  0.00  0.00    +0.000 S 
ATOM     20  C   UNL     1      -0.461  10.787  22.493  0.00  0.00    +0.000 C 
ENDBRANCH  14  19
ENDBRANCH   1  12
BRANCH   5  21
ATOM     21  C   UNL     1       3.459   3.914  19.497  0.00  0.00    +0.000 C 
ATOM     22  N   UNL     1       3.689   2.805  19.764  0.00  0.00    +0.000 NA
ENDBRANCH   5  21
BRANCH   6  23
ATOM     23  O   UNL     1       4.585   5.115  17.242  0.00  0.00    +0.000 OA
BRANCH  23  24
ATOM     24  C   UNL     1       5.398   5.845  16.319  0.00  0.00    +0.000 C 
ATOM     25  C   UNL     1       5.379   5.115  14.978  0.00  0.00    +0.000 C 
ATOM     26  C   UNL     1       6.612   4.232  15.002  0.00  0.00    +0.000 C 
ATOM     27  N   UNL     1       7.614   4.963  15.779  0.00  0.00    +0.000 NA
ATOM     28  C   UNL     1       6.879   5.827  16.718  0.00  0.00    +0.000 C 
ATOM     29  H   UNL     1       8.172   5.542  15.154  0.00  0.00    +0.000 HD
ENDBRANCH  23  24
ENDBRANCH   6  23
TORSDOF 7
ENDMDL
MODEL 8
REMARK VINA RESULT:      -6.8      3.333      9.057
REMARK  Name = 
REMARK  9 active torsions:
REMARK  status: ('A' for Active; 'I' for Inactive)
REMARK    1  A    between atoms: C_1  and  O_2
REMARK    2  A    between atoms: O_2  and  C_3
REMARK    3  A    between atoms: C_3  and  C_5
REMARK    4  A    between atoms: C_8  and  N_9
REMARK    5  A    between atoms: C_13  and  C_14
REMARK    6  A    between atoms: C_16  and  O_17
REMARK    7  A    between atoms: O_17  and  C_18
REMARK    8  A    between atoms: C_25  and  S_26
REMARK    9  A    between atoms: S_26  and  C_27
REMARK                            x       y       z     vdW  Elec       q    Type
REMARK                         _______ _______ _______ _____ _____    ______ ____
ROOT
ATOM      1  N   UNL     1       1.547   9.729  18.589  0.00  0.00    +0.000 N 
ATOM      2  C   UNL     1       1.870   8.407  18.938  0.00  0.00    +0.000 A 
ATOM      3  C   UNL     1       1.610   7.899  20.218  0.00  0.00    +0.000 A 
ATOM      4  N   UNL     1       1.911   6.637  20.613  0.00  0.00    +0.000 NA
ATOM      5  C   UNL     1       2.506   5.869  19.667  0.00  0.00    +0.000 A 
ATOM      6  C   UNL     1       2.822   6.364  18.403  0.00  0.00    +0.000 A 
ATOM      7  N   UNL     1       2.518   7.640  18.018  0.00  0.00    +0.000 NA
ATOM      8  H   UNL     1       1.786   9.895  17.619  0.00  0.00    +0.000 HD
ENDROOT
BRANCH   1  12
ATOM      9  C   UNL     1      -1.824  11.952  19.742  0.00  0.00    +0.000 A 
ATOM     10  C   UNL     1      -0.622  11.964  20.440  0.00  0.00    +0.000 A 
ATOM     11  N   UNL     1       0.481  11.251  20.092  0.00  0.00    +0.000 NA
ATOM     12  C   UNL     1       0.415  10.458  19.005  0.00  0.00    +0.000 A 
ATOM     13  C   UNL     1      -0.751  10.391  18.243  0.00  0.00    +0.000 A 
ATOM     14  C   UNL     1      -1.882  11.158  18.592  0.00  0.00    +0.000 A 
BRANCH   9  15
ATOM     15  C   UNL     1      -2.889  12.827  20.276  0.00  0.00    +0.000 C 
ATOM     16  O   UNL     1      -4.045  12.453  20.398  0.00  0.00    +0.000 OA
BRANCH  15  18
ATOM     17  C   UNL     1      -2.802  14.662  21.742  0.00  0.00    +0.000 C 
ATOM     18  O   UNL     1      -2.437  14.086  20.484  0.00  0.00    +0.000 OA
ENDBRANCH  15  18
ENDBRANCH   9  15
BRANCH  14  19
ATOM     19  S   UNL     1      -3.227  11.201  17.404  0.00  0.00    +0.000 S 
ATOM     20  C   UNL     1      -2.610  10.021  16.175  0.00  0.00    +0.000 C 
ENDBRANCH  14  19
ENDBRANCH   1  12
BRANCH   5  21
ATOM     21  C   UNL     1       2.806   4.521  20.048  0.00  0.00    +0.000 C 
ATOM     22  N   UNL     1       3.038   3.424  20.363  0.00  0.00    +0.000 NA
ENDBRANCH   5  21
BRANCH   6  23
ATOM     23  O   UNL     1       3.466   5.511  17.522  0.00  0.00    +0.000 OA
BRANCH  23  24
ATOM     24  C   UNL     1       4.872   5.726  17.373  0.00  0.00    +0.000 C 
ATOM     25  C   UNL     1       5.168   5.976  15.897  0.00  0.00    +0.000 C 
ATOM     26  C   UNL     1       5.555   4.616  15.345  0.00  0.00    +0.000 C 
ATOM     27  N   UNL     1       6.226   3.916  16.440  0.00  0.00    +0.000 NA
ATOM     28  C   UNL     1       5.683   4.463  17.694  0.00  0.00    +0.000 C 
ATOM     29  H   UNL     1       7.228   4.099  16.397  0.00  0.00    +0.000 HD
ENDBRANCH  23  24
ENDBRANCH   6  23
TORSDOF 7
ENDMDL
MODEL 9
REMARK VINA RESULT:      -6.7      3.463      8.730
REMARK  Name = 
REMARK  9 active torsions:
REMARK  status: ('A' for Active; 'I' for Inactive)
REMARK    1  A    between atoms: C_1  and  O_2
REMARK    2  A    between atoms: O_2  and  C_3
REMARK    3  A    between atoms: C_3  and  C_5
REMARK    4  A    between atoms: C_8  and  N_9
REMARK    5  A    between atoms: C_13  and  C_14
REMARK    6  A    between atoms: C_16  and  O_17
REMARK    7  A    between atoms: O_17  and  C_18
REMARK    8  A    between atoms: C_25  and  S_26
REMARK    9  A    between atoms: S_26  and  C_27
REMARK                            x       y       z     vdW  Elec       q    Type
REMARK                         _______ _______ _______ _____ _____    ______ ____
ROOT
ATOM      1  N   UNL     1       2.115   8.556  17.993  0.00  0.00    +0.000 N 
ATOM      2  C   UNL     1       2.059   7.383  18.765  0.00  0.00    +0.000 A 
ATOM      3  C   UNL     1       2.011   7.426  20.164  0.00  0.00    +0.000 A 
ATOM      4  N   UNL     1       1.968   6.327  20.960  0.00  0.00    +0.000 NA
ATOM      5  C   UNL     1       1.981   5.143  20.299  0.00  0.00    +0.000 A 
ATOM      6  C   UNL     1       2.079   5.072  18.910  0.00  0.00    +0.000 A 
ATOM      7  N   UNL     1       2.126   6.186  18.120  0.00  0.00    +0.000 NA
ATOM      8  H   UNL     1       2.114   8.318  17.008  0.00  0.00    +0.000 HD
ENDROOT
BRANCH   1  12
ATOM      9  C   UNL     1       0.117  12.182  18.697  0.00  0.00    +0.000 A 
ATOM     10  C   UNL     1       1.500  12.051  18.723  0.00  0.00    +0.000 A 
ATOM     11  N   UNL     1       2.171  10.889  18.505  0.00  0.00    +0.000 NA
ATOM     12  C   UNL     1       1.458   9.774  18.260  0.00  0.00    +0.000 A 
ATOM     13  C   UNL     1       0.064   9.817  18.210  0.00  0.00    +0.000 A 
ATOM     14  C   UNL     1      -0.624  11.031  18.407  0.00  0.00    +0.000 A 
BRANCH   9  15
ATOM     15  C   UNL     1      -0.407  13.544  18.932  0.00  0.00    +0.000 C 
ATOM     16  O   UNL     1      -0.212  14.465  18.155  0.00  0.00    +0.000 OA
BRANCH  15  18
ATOM     17  C   UNL     1      -1.521  14.936  20.464  0.00  0.00    +0.000 C 
ATOM     18  O   UNL     1      -1.004  13.641  20.144  0.00  0.00    +0.000 OA
ENDBRANCH  15  18
ENDBRANCH   9  15
BRANCH  14  19
ATOM     19  S   UNL     1      -2.386  11.028  18.060  0.00  0.00    +0.000 S 
ATOM     20  C   UNL     1      -2.392  10.220  16.438  0.00  0.00    +0.000 C 
ENDBRANCH  14  19
ENDBRANCH   1  12
BRANCH   5  21
ATOM     21  C   UNL     1       1.904   3.967  21.113  0.00  0.00    +0.000 C 
ATOM     22  N   UNL     1       1.852   3.016  21.782  0.00  0.00    +0.000 NA
ENDBRANCH   5  21
BRANCH   6  23
ATOM     23  O   UNL     1       2.125   3.814  18.334  0.00  0.00    +0.000 OA
BRANCH  23  24
ATOM     24  C   UNL     1       3.403   3.413  17.831  0.00  0.00    +0.000 C 
ATOM     25  C   UNL     1       3.554   1.908  18.042  0.00  0.00    +0.000 C 
ATOM     26  C   UNL     1       4.294   1.776  19.360  0.00  0.00    +0.000 C 
ATOM     27  N   UNL     1       5.182   2.935  19.439  0.00  0.00    +0.000 NA
ATOM     28  C   UNL     1       4.556   4.008  18.650  0.00  0.00    +0.000 C 
ATOM     29  H   UNL     1       6.086   2.700  19.031  0.00  0.00    +0.000 HD
ENDBRANCH  23  24
ENDBRANCH   6  23
TORSDOF 7
ENDMDL
