MODEL 1
REMARK VINA RESULT:      -2.8      0.000      0.000
REMARK  Name = 
REMARK  2 active torsions:
REMARK  status: ('A' for Active; 'I' for Inactive)
REMARK    1  A    between atoms: C_1  and  O_2
REMARK    2  A    between atoms: O_2  and  C_3
REMARK                            x       y       z     vdW  Elec       q    Type
REMARK                         _______ _______ _______ _____ _____    ______ ____
ROOT
ATOM      1  C   UNL     1      10.005   4.156  27.555  0.00  0.00    +0.000 C 
ATOM      2  O   UNL     1       8.967   5.006  28.045  0.00  0.00    +0.000 OA
ENDROOT
BRANCH   2   3
ATOM      3  C   UNL     1       7.733   4.681  27.586  0.00  0.00    +0.000 C 
ATOM      4  O   UNL     1       7.432   3.684  26.951  0.00  0.00    +0.000 OA
ENDBRANCH   2   3
TORSDOF 1
ENDMDL
MODEL 2
REMARK VINA RESULT:      -2.7      1.045      1.045
REMARK  Name = 
REMARK  2 active torsions:
REMARK  status: ('A' for Active; 'I' for Inactive)
REMARK    1  A    between atoms: C_1  and  O_2
REMARK    2  A    between atoms: O_2  and  C_3
REMARK                            x       y       z     vdW  Elec       q    Type
REMARK                         _______ _______ _______ _____ _____    ______ ____
ROOT
ATOM      1  C   UNL     1      10.791   4.736  27.898  0.00  0.00    +0.000 C 
ATOM      2  O   UNL     1       9.800   3.847  27.381  0.00  0.00    +0.000 OA
ENDROOT
BRANCH   2   3
ATOM      3  C   UNL     1       8.536   4.332  27.461  0.00  0.00    +0.000 C 
ATOM      4  O   UNL     1       7.515   3.766  27.107  0.00  0.00    +0.000 OA
ENDBRANCH   2   3
TORSDOF 1
ENDMDL
MODEL 3
REMARK VINA RESULT:      -2.6     11.088     11.428
REMARK  Name = 
REMARK  2 active torsions:
REMARK  status: ('A' for Active; 'I' for Inactive)
REMARK    1  A    between atoms: C_1  and  O_2
REMARK    2  A    between atoms: O_2  and  C_3
REMARK                            x       y       z     vdW  Elec       q    Type
REMARK                         _______ _______ _______ _____ _____    ______ ____
ROOT
ATOM      1  C   UNL     1       7.526   4.915  17.979  0.00  0.00    +0.000 C 
ATOM      2  O   UNL     1       7.894   4.329  16.729  0.00  0.00    +0.000 OA
ENDROOT
BRANCH   2   3
ATOM      3  C   UNL     1       7.150   4.765  15.683  0.00  0.00    +0.000 C 
ATOM      4  O   UNL     1       7.542   5.428  14.737  0.00  0.00    +0.000 OA
ENDBRANCH   2   3
TORSDOF 1
ENDMDL
MODEL 4
REMARK VINA RESULT:      -2.6      0.886      2.438
REMARK  Name = 
REMARK  2 active torsions:
REMARK  status: ('A' for Active; 'I' for Inactive)
REMARK    1  A    between atoms: C_1  and  O_2
REMARK    2  A    between atoms: O_2  and  C_3
REMARK                            x       y       z     vdW  Elec       q    Type
REMARK                         _______ _______ _______ _____ _____    ______ ____
ROOT
ATOM      1  C   UNL     1       7.396   4.764  27.617  0.00  0.00    +0.000 C 
ATOM      2  O   UNL     1       8.344   3.806  27.146  0.00  0.00    +0.000 OA
ENDROOT
BRANCH   2   3
ATOM      3  C   UNL     1       9.617   4.062  27.534  0.00  0.00    +0.000 C 
ATOM      4  O   UNL     1      10.217   5.118  27.414  0.00  0.00    +0.000 OA
ENDBRANCH   2   3
TORSDOF 1
ENDMDL
MODEL 5
REMARK VINA RESULT:      -2.5     10.316     10.709
REMARK  Name = 
REMARK  2 active torsions:
REMARK  status: ('A' for Active; 'I' for Inactive)
REMARK    1  A    between atoms: C_1  and  O_2
REMARK    2  A    between atoms: O_2  and  C_3
REMARK                            x       y       z     vdW  Elec       q    Type
REMARK                         _______ _______ _______ _____ _____    ______ ____
ROOT
ATOM      1  C   UNL     1       6.930   4.586  15.413  0.00  0.00    +0.000 C 
ATOM      2  O   UNL     1       7.876   4.455  16.474  0.00  0.00    +0.000 OA
ENDROOT
BRANCH   2   3
ATOM      3  C   UNL     1       7.377   4.777  17.693  0.00  0.00    +0.000 C 
ATOM      4  O   UNL     1       7.949   4.672  18.765  0.00  0.00    +0.000 OA
ENDBRANCH   2   3
TORSDOF 1
ENDMDL
MODEL 6
REMARK VINA RESULT:      -2.5      8.874      9.259
REMARK  Name = 
REMARK  2 active torsions:
REMARK  status: ('A' for Active; 'I' for Inactive)
REMARK    1  A    between atoms: C_1  and  O_2
REMARK    2  A    between atoms: O_2  and  C_3
REMARK                            x       y       z     vdW  Elec       q    Type
REMARK                         _______ _______ _______ _____ _____    ______ ____
ROOT
ATOM      1  C   UNL     1       7.285   4.516  16.902  0.00  0.00    +0.000 C 
ATOM      2  O   UNL     1       7.801   4.421  18.231  0.00  0.00    +0.000 OA
ENDROOT
BRANCH   2   3
ATOM      3  C   UNL     1       7.577   5.527  18.983  0.00  0.00    +0.000 C 
ATOM      4  O   UNL     1       7.507   5.579  20.200  0.00  0.00    +0.000 OA
ENDBRANCH   2   3
TORSDOF 1
ENDMDL
MODEL 7
REMARK VINA RESULT:      -2.4      9.381      9.891
REMARK  Name = 
REMARK  2 active torsions:
REMARK  status: ('A' for Active; 'I' for Inactive)
REMARK    1  A    between atoms: C_1  and  O_2
REMARK    2  A    between atoms: O_2  and  C_3
REMARK                            x       y       z     vdW  Elec       q    Type
REMARK                         _______ _______ _______ _____ _____    ______ ____
ROOT
ATOM      1  C   UNL     1       5.102   4.047  18.608  0.00  0.00    +0.000 C 
ATOM      2  O   UNL     1       6.479   4.375  18.797  0.00  0.00    +0.000 OA
ENDROOT
BRANCH   2   3
ATOM      3  C   UNL     1       7.116   4.733  17.655  0.00  0.00    +0.000 C 
ATOM      4  O   UNL     1       8.116   4.214  17.186  0.00  0.00    +0.000 OA
ENDBRANCH   2   3
TORSDOF 1
ENDMDL
MODEL 8
REMARK VINA RESULT:      -2.4     10.195     10.567
REMARK  Name = 
REMARK  2 active torsions:
REMARK  status: ('A' for Active; 'I' for Inactive)
REMARK    1  A    between atoms: C_1  and  O_2
REMARK    2  A    between atoms: O_2  and  C_3
REMARK                            x       y       z     vdW  Elec       q    Type
REMARK                         _______ _______ _______ _____ _____    ______ ____
ROOT
ATOM      1  C   UNL     1       7.357   7.130  17.370  0.00  0.00    +0.000 C 
ATOM      2  O   UNL     1       7.493   6.024  16.476  0.00  0.00    +0.000 OA
ENDROOT
BRANCH   2   3
ATOM      3  C   UNL     1       7.321   4.818  17.071  0.00  0.00    +0.000 C 
ATOM      4  O   UNL     1       7.868   4.422  18.087  0.00  0.00    +0.000 OA
ENDBRANCH   2   3
TORSDOF 1
ENDMDL
MODEL 9
REMARK VINA RESULT:      -2.4      1.156      1.356
REMARK  Name = 
REMARK  2 active torsions:
REMARK  status: ('A' for Active; 'I' for Inactive)
REMARK    1  A    between atoms: C_1  and  O_2
REMARK    2  A    between atoms: O_2  and  C_3
REMARK                            x       y       z     vdW  Elec       q    Type
REMARK                         _______ _______ _______ _____ _____    ______ ____
ROOT
ATOM      1  C   UNL     1       9.745   4.531  27.655  0.00  0.00    +0.000 C 
ATOM      2  O   UNL     1       8.519   3.872  27.337  0.00  0.00    +0.000 OA
ENDROOT
BRANCH   2   3
ATOM      3  C   UNL     1       7.426   4.665  27.461  0.00  0.00    +0.000 C 
ATOM      4  O   UNL     1       7.127   5.347  28.428  0.00  0.00    +0.000 OA
ENDBRANCH   2   3
TORSDOF 1
ENDMDL
