MODEL 1
REMARK VINA RESULT:      -7.7      0.000      0.000
REMARK  Name = 
REMARK  4 active torsions:
REMARK  status: ('A' for Active; 'I' for Inactive)
REMARK    1  A    between atoms: C_1  and  N_2
REMARK    2  A    between atoms: C_10  and  O_11
REMARK    3  A    between atoms: O_11  and  C_12
REMARK    4  A    between atoms: C_12  and  C_13
REMARK                            x       y       z     vdW  Elec       q    Type
REMARK                         _______ _______ _______ _____ _____    ______ ____
ROOT
ATOM      1  C   UNL     1       6.499   3.937  13.471  0.00  0.00    +0.000 C 
ATOM      2  N   UNL     1       6.370   4.643  14.744  0.00  0.00    +0.000 NA
ATOM      3  C   UNL     1       6.013   3.700  15.825  0.00  0.00    +0.000 C 
ATOM      4  C   UNL     1       5.838   4.413  17.181  0.00  0.00    +0.000 C 
ATOM      5  N   UNL     1       4.824   5.476  17.078  0.00  0.00    +0.000 N 
ATOM      6  C   UNL     1       3.943   5.799  18.110  0.00  0.00    +0.000 A 
ATOM      7  N   UNL     1       3.441   7.014  18.159  0.00  0.00    +0.000 NA
ATOM      8  C   UNL     1       2.527   7.385  19.163  0.00  0.00    +0.000 A 
ATOM      9  N   UNL     1       2.101   8.661  19.097  0.00  0.00    +0.000 NA
ATOM     10  C   UNL     1       1.189   9.058  20.020  0.00  0.00    +0.000 A 
ATOM     11  C   UNL     1       0.669   8.226  21.014  0.00  0.00    +0.000 A 
ATOM     12 CL   UNL     1      -0.498   8.768  22.159  0.00  0.00    +0.000 Cl
ATOM     13  C   UNL     1       1.130   6.917  21.089  0.00  0.00    +0.000 A 
ATOM     14  C   UNL     1       2.070   6.510  20.149  0.00  0.00    +0.000 A 
ATOM     15  N   UNL     1       2.607   5.232  20.101  0.00  0.00    +0.000 N 
ATOM     16  C   UNL     1       2.415   4.130  20.877  0.00  0.00    +0.000 A 
ATOM     17  N   UNL     1       3.133   3.135  20.406  0.00  0.00    +0.000 NA
ATOM     18  N   UNL     1       3.810   3.595  19.297  0.00  0.00    +0.000 NA
ATOM     19  C   UNL     1       3.503   4.865  19.139  0.00  0.00    +0.000 A 
ATOM     20  C   UNL     1       5.136   6.440  16.007  0.00  0.00    +0.000 C 
ATOM     21  C   UNL     1       5.339   5.700  14.662  0.00  0.00    +0.000 C 
ENDROOT
BRANCH  10  22
ATOM     22  O   UNL     1       0.742  10.364  19.970  0.00  0.00    +0.000 OA
BRANCH  22  23
ATOM     23  C   UNL     1       0.470  10.818  18.634  0.00  0.00    +0.000 C 
BRANCH  23  24
ATOM     24  C   UNL     1      -0.923  10.452  18.123  0.00  0.00    +0.000 C 
ATOM     25  F   UNL     1      -0.909   9.452  17.211  0.00  0.00    +0.000 F 
ATOM     26  F   UNL     1      -1.743  10.076  19.129  0.00  0.00    +0.000 F 
ATOM     27  F   UNL     1      -1.500  11.521  17.520  0.00  0.00    +0.000 F 
ENDBRANCH  23  24
ENDBRANCH  22  23
ENDBRANCH  10  22
TORSDOF 3
ENDMDL
MODEL 2
REMARK VINA RESULT:      -7.4      6.890      8.839
REMARK  Name = 
REMARK  4 active torsions:
REMARK  status: ('A' for Active; 'I' for Inactive)
REMARK    1  A    between atoms: C_1  and  N_2
REMARK    2  A    between atoms: C_10  and  O_11
REMARK    3  A    between atoms: O_11  and  C_12
REMARK    4  A    between atoms: C_12  and  C_13
REMARK                            x       y       z     vdW  Elec       q    Type
REMARK                         _______ _______ _______ _____ _____    ______ ____
ROOT
ATOM      1  C   UNL     1       0.736   2.500  21.195  0.00  0.00    +0.000 C 
ATOM      2  N   UNL     1       1.932   2.235  20.400  0.00  0.00    +0.000 NA
ATOM      3  C   UNL     1       3.051   3.091  20.847  0.00  0.00    +0.000 C 
ATOM      4  C   UNL     1       4.326   2.861  20.011  0.00  0.00    +0.000 C 
ATOM      5  N   UNL     1       4.052   3.088  18.581  0.00  0.00    +0.000 N 
ATOM      6  C   UNL     1       4.978   3.653  17.704  0.00  0.00    +0.000 A 
ATOM      7  N   UNL     1       4.886   3.376  16.420  0.00  0.00    +0.000 NA
ATOM      8  C   UNL     1       5.776   3.941  15.488  0.00  0.00    +0.000 A 
ATOM      9  N   UNL     1       5.572   3.564  14.211  0.00  0.00    +0.000 NA
ATOM     10  C   UNL     1       6.381   4.110  13.267  0.00  0.00    +0.000 A 
ATOM     11  C   UNL     1       7.391   5.035  13.543  0.00  0.00    +0.000 A 
ATOM     12 CL   UNL     1       8.386   5.713  12.312  0.00  0.00    +0.000 Cl
ATOM     13  C   UNL     1       7.610   5.401  14.865  0.00  0.00    +0.000 A 
ATOM     14  C   UNL     1       6.788   4.837  15.835  0.00  0.00    +0.000 A 
ATOM     15  N   UNL     1       6.888   5.121  17.189  0.00  0.00    +0.000 N 
ATOM     16  C   UNL     1       7.732   5.923  17.894  0.00  0.00    +0.000 A 
ATOM     17  N   UNL     1       7.404   5.888  19.167  0.00  0.00    +0.000 NA
ATOM     18  N   UNL     1       6.323   5.043  19.298  0.00  0.00    +0.000 NA
ATOM     19  C   UNL     1       6.037   4.570  18.103  0.00  0.00    +0.000 A 
ATOM     20  C   UNL     1       2.937   2.259  18.090  0.00  0.00    +0.000 C 
ATOM     21  C   UNL     1       1.679   2.480  18.963  0.00  0.00    +0.000 C 
ENDROOT
BRANCH  10  22
ATOM     22  O   UNL     1       6.187   3.734  11.952  0.00  0.00    +0.000 OA
BRANCH  22  23
ATOM     23  C   UNL     1       5.547   2.455  11.817  0.00  0.00    +0.000 C 
BRANCH  23  24
ATOM     24  C   UNL     1       6.419   1.389  11.156  0.00  0.00    +0.000 C 
ATOM     25  F   UNL     1       6.199   0.145  11.641  0.00  0.00    +0.000 F 
ATOM     26  F   UNL     1       6.229   1.346   9.818  0.00  0.00    +0.000 F 
ATOM     27  F   UNL     1       7.733   1.660  11.361  0.00  0.00    +0.000 F 
ENDBRANCH  23  24
ENDBRANCH  22  23
ENDBRANCH  10  22
TORSDOF 3
ENDMDL
MODEL 3
REMARK VINA RESULT:      -7.3      1.408      1.619
REMARK  Name = 
REMARK  4 active torsions:
REMARK  status: ('A' for Active; 'I' for Inactive)
REMARK    1  A    between atoms: C_1  and  N_2
REMARK    2  A    between atoms: C_10  and  O_11
REMARK    3  A    between atoms: O_11  and  C_12
REMARK    4  A    between atoms: C_12  and  C_13
REMARK                            x       y       z     vdW  Elec       q    Type
REMARK                         _______ _______ _______ _____ _____    ______ ____
ROOT
ATOM      1  C   UNL     1       6.446   3.892  13.691  0.00  0.00    +0.000 C 
ATOM      2  N   UNL     1       6.305   4.619  14.951  0.00  0.00    +0.000 NA
ATOM      3  C   UNL     1       5.938   3.693  16.043  0.00  0.00    +0.000 C 
ATOM      4  C   UNL     1       5.751   4.428  17.386  0.00  0.00    +0.000 C 
ATOM      5  N   UNL     1       4.737   5.488  17.256  0.00  0.00    +0.000 N 
ATOM      6  C   UNL     1       3.846   5.827  18.275  0.00  0.00    +0.000 A 
ATOM      7  N   UNL     1       3.343   7.043  18.299  0.00  0.00    +0.000 NA
ATOM      8  C   UNL     1       2.420   7.429  19.288  0.00  0.00    +0.000 A 
ATOM      9  N   UNL     1       1.993   8.704  19.198  0.00  0.00    +0.000 NA
ATOM     10  C   UNL     1       1.073   9.115  20.106  0.00  0.00    +0.000 A 
ATOM     11  C   UNL     1       0.544   8.299  21.108  0.00  0.00    +0.000 A 
ATOM     12 CL   UNL     1      -0.634   8.858  22.233  0.00  0.00    +0.000 Cl
ATOM     13  C   UNL     1       1.005   6.991  21.209  0.00  0.00    +0.000 A 
ATOM     14  C   UNL     1       1.954   6.570  20.284  0.00  0.00    +0.000 A 
ATOM     15  N   UNL     1       2.492   5.292  20.262  0.00  0.00    +0.000 N 
ATOM     16  C   UNL     1       2.293   4.202  21.054  0.00  0.00    +0.000 A 
ATOM     17  N   UNL     1       3.016   3.200  20.605  0.00  0.00    +0.000 NA
ATOM     18  N   UNL     1       3.703   3.643  19.496  0.00  0.00    +0.000 NA
ATOM     19  C   UNL     1       3.397   4.910  19.314  0.00  0.00    +0.000 A 
ATOM     20  C   UNL     1       5.058   6.435  16.172  0.00  0.00    +0.000 C 
ATOM     21  C   UNL     1       5.274   5.673  14.842  0.00  0.00    +0.000 C 
ENDROOT
BRANCH  10  22
ATOM     22  O   UNL     1       0.626  10.420  20.030  0.00  0.00    +0.000 OA
BRANCH  22  23
ATOM     23  C   UNL     1       0.761  10.990  18.718  0.00  0.00    +0.000 C 
BRANCH  23  24
ATOM     24  C   UNL     1       1.698  12.194  18.656  0.00  0.00    +0.000 C 
ATOM     25  F   UNL     1       2.769  11.994  17.853  0.00  0.00    +0.000 F 
ATOM     26  F   UNL     1       1.060  13.303  18.219  0.00  0.00    +0.000 F 
ATOM     27  F   UNL     1       2.185  12.478  19.891  0.00  0.00    +0.000 F 
ENDBRANCH  23  24
ENDBRANCH  22  23
ENDBRANCH  10  22
TORSDOF 3
ENDMDL
MODEL 4
REMARK VINA RESULT:      -7.1      4.223      8.194
REMARK  Name = 
REMARK  4 active torsions:
REMARK  status: ('A' for Active; 'I' for Inactive)
REMARK    1  A    between atoms: C_1  and  N_2
REMARK    2  A    between atoms: C_10  and  O_11
REMARK    3  A    between atoms: O_11  and  C_12
REMARK    4  A    between atoms: C_12  and  C_13
REMARK                            x       y       z     vdW  Elec       q    Type
REMARK                         _______ _______ _______ _____ _____    ______ ____
ROOT
ATOM      1  C   UNL     1      -0.306  17.106  19.637  0.00  0.00    +0.000 C 
ATOM      2  N   UNL     1      -0.636  15.698  19.426  0.00  0.00    +0.000 NA
ATOM      3  C   UNL     1      -0.905  15.031  20.717  0.00  0.00    +0.000 C 
ATOM      4  C   UNL     1      -1.230  13.534  20.538  0.00  0.00    +0.000 C 
ATOM      5  N   UNL     1      -0.134  12.850  19.831  0.00  0.00    +0.000 N 
ATOM      6  C   UNL     1       0.258  11.540  20.108  0.00  0.00    +0.000 A 
ATOM      7  N   UNL     1       0.852  10.843  19.163  0.00  0.00    +0.000 NA
ATOM      8  C   UNL     1       1.292   9.527  19.397  0.00  0.00    +0.000 A 
ATOM      9  N   UNL     1       1.875   8.928  18.340  0.00  0.00    +0.000 NA
ATOM     10  C   UNL     1       2.352   7.671  18.525  0.00  0.00    +0.000 A 
ATOM     11  C   UNL     1       2.280   6.978  19.735  0.00  0.00    +0.000 A 
ATOM     12 CL   UNL     1       2.910   5.387  19.930  0.00  0.00    +0.000 Cl
ATOM     13  C   UNL     1       1.657   7.593  20.815  0.00  0.00    +0.000 A 
ATOM     14  C   UNL     1       1.162   8.878  20.626  0.00  0.00    +0.000 A 
ATOM     15  N   UNL     1       0.527   9.612  21.618  0.00  0.00    +0.000 N 
ATOM     16  C   UNL     1       0.219   9.324  22.911  0.00  0.00    +0.000 A 
ATOM     17  N   UNL     1      -0.359  10.368  23.465  0.00  0.00    +0.000 NA
ATOM     18  N   UNL     1      -0.429  11.361  22.512  0.00  0.00    +0.000 NA
ATOM     19  C   UNL     1       0.086  10.885  21.398  0.00  0.00    +0.000 A 
ATOM     20  C   UNL     1       0.175  13.485  18.537  0.00  0.00    +0.000 C 
ATOM     21  C   UNL     1       0.465  14.993  18.736  0.00  0.00    +0.000 C 
ENDROOT
BRANCH  10  22
ATOM     22  O   UNL     1       2.951   7.041  17.452  0.00  0.00    +0.000 OA
BRANCH  22  23
ATOM     23  C   UNL     1       4.386   7.109  17.485  0.00  0.00    +0.000 C 
BRANCH  23  24
ATOM     24  C   UNL     1       5.070   6.384  16.327  0.00  0.00    +0.000 C 
ATOM     25  F   UNL     1       4.824   6.953  15.123  0.00  0.00    +0.000 F 
ATOM     26  F   UNL     1       6.411   6.334  16.489  0.00  0.00    +0.000 F 
ATOM     27  F   UNL     1       4.632   5.102  16.248  0.00  0.00    +0.000 F 
ENDBRANCH  23  24
ENDBRANCH  22  23
ENDBRANCH  10  22
TORSDOF 3
ENDMDL
MODEL 5
REMARK VINA RESULT:      -7.1      0.834      1.013
REMARK  Name = 
REMARK  4 active torsions:
REMARK  status: ('A' for Active; 'I' for Inactive)
REMARK    1  A    between atoms: C_1  and  N_2
REMARK    2  A    between atoms: C_10  and  O_11
REMARK    3  A    between atoms: O_11  and  C_12
REMARK    4  A    between atoms: C_12  and  C_13
REMARK                            x       y       z     vdW  Elec       q    Type
REMARK                         _______ _______ _______ _____ _____    ______ ____
ROOT
ATOM      1  C   UNL     1       6.358   3.801  13.591  0.00  0.00    +0.000 C 
ATOM      2  N   UNL     1       6.239   4.542  14.845  0.00  0.00    +0.000 NA
ATOM      3  C   UNL     1       5.888   3.630  15.954  0.00  0.00    +0.000 C 
ATOM      4  C   UNL     1       5.723   4.381  17.291  0.00  0.00    +0.000 C 
ATOM      5  N   UNL     1       4.710   5.443  17.165  0.00  0.00    +0.000 N 
ATOM      6  C   UNL     1       3.837   5.795  18.194  0.00  0.00    +0.000 A 
ATOM      7  N   UNL     1       3.336   7.012  18.212  0.00  0.00    +0.000 NA
ATOM      8  C   UNL     1       2.431   7.412  19.212  0.00  0.00    +0.000 A 
ATOM      9  N   UNL     1       2.005   8.687  19.114  0.00  0.00    +0.000 NA
ATOM     10  C   UNL     1       1.100   9.110  20.032  0.00  0.00    +0.000 A 
ATOM     11  C   UNL     1       0.586   8.307  21.052  0.00  0.00    +0.000 A 
ATOM     12 CL   UNL     1      -0.572   8.882  22.189  0.00  0.00    +0.000 Cl
ATOM     13  C   UNL     1       1.045   7.000  21.160  0.00  0.00    +0.000 A 
ATOM     14  C   UNL     1       1.979   6.565  20.225  0.00  0.00    +0.000 A 
ATOM     15  N   UNL     1       2.514   5.286  20.209  0.00  0.00    +0.000 N 
ATOM     16  C   UNL     1       2.325   4.206  21.016  0.00  0.00    +0.000 A 
ATOM     17  N   UNL     1       3.039   3.197  20.568  0.00  0.00    +0.000 NA
ATOM     18  N   UNL     1       3.709   3.625  19.442  0.00  0.00    +0.000 NA
ATOM     19  C   UNL     1       3.402   4.891  19.251  0.00  0.00    +0.000 A 
ATOM     20  C   UNL     1       5.016   6.376  16.065  0.00  0.00    +0.000 C 
ATOM     21  C   UNL     1       5.209   5.598  14.741  0.00  0.00    +0.000 C 
ENDROOT
BRANCH  10  22
ATOM     22  O   UNL     1       0.655  10.415  19.948  0.00  0.00    +0.000 OA
BRANCH  22  23
ATOM     23  C   UNL     1      -0.402  10.593  18.990  0.00  0.00    +0.000 C 
BRANCH  23  24
ATOM     24  C   UNL     1      -1.127  11.932  19.105  0.00  0.00    +0.000 C 
ATOM     25  F   UNL     1      -2.461  11.801  19.296  0.00  0.00    +0.000 F 
ATOM     26  F   UNL     1      -0.640  12.681  20.119  0.00  0.00    +0.000 F 
ATOM     27  F   UNL     1      -0.967  12.654  17.967  0.00  0.00    +0.000 F 
ENDBRANCH  23  24
ENDBRANCH  22  23
ENDBRANCH  10  22
TORSDOF 3
ENDMDL
MODEL 6
REMARK VINA RESULT:      -7.1      3.983      7.606
REMARK  Name = 
REMARK  4 active torsions:
REMARK  status: ('A' for Active; 'I' for Inactive)
REMARK    1  A    between atoms: C_1  and  N_2
REMARK    2  A    between atoms: C_10  and  O_11
REMARK    3  A    between atoms: O_11  and  C_12
REMARK    4  A    between atoms: C_12  and  C_13
REMARK                            x       y       z     vdW  Elec       q    Type
REMARK                         _______ _______ _______ _____ _____    ______ ____
ROOT
ATOM      1  C   UNL     1       2.176  16.616  18.869  0.00  0.00    +0.000 C 
ATOM      2  N   UNL     1       1.517  15.323  18.703  0.00  0.00    +0.000 NA
ATOM      3  C   UNL     1       0.920  14.878  19.980  0.00  0.00    +0.000 C 
ATOM      4  C   UNL     1       0.240  13.499  19.852  0.00  0.00    +0.000 C 
ATOM      5  N   UNL     1       1.200  12.495  19.361  0.00  0.00    +0.000 N 
ATOM      6  C   UNL     1       1.196  11.163  19.778  0.00  0.00    +0.000 A 
ATOM      7  N   UNL     1       1.702  10.248  18.979  0.00  0.00    +0.000 NA
ATOM      8  C   UNL     1       1.748   8.895  19.361  0.00  0.00    +0.000 A 
ATOM      9  N   UNL     1       2.284   8.065  18.444  0.00  0.00    +0.000 NA
ATOM     10  C   UNL     1       2.386   6.754  18.778  0.00  0.00    +0.000 A 
ATOM     11  C   UNL     1       1.982   6.226  20.006  0.00  0.00    +0.000 A 
ATOM     12 CL   UNL     1       2.142   4.557  20.395  0.00  0.00    +0.000 Cl
ATOM     13  C   UNL     1       1.409   7.084  20.939  0.00  0.00    +0.000 A 
ATOM     14  C   UNL     1       1.296   8.427  20.595  0.00  0.00    +0.000 A 
ATOM     15  N   UNL     1       0.755   9.392  21.432  0.00  0.00    +0.000 N 
ATOM     16  C   UNL     1       0.220   9.322  22.681  0.00  0.00    +0.000 A 
ATOM     17  N   UNL     1      -0.129  10.528  23.073  0.00  0.00    +0.000 NA
ATOM     18  N   UNL     1       0.185  11.406  22.059  0.00  0.00    +0.000 NA
ATOM     19  C   UNL     1       0.695  10.706  21.067  0.00  0.00    +0.000 A 
ATOM     20  C   UNL     1       1.827  12.899  18.090  0.00  0.00    +0.000 C 
ATOM     21  C   UNL     1       2.474  14.298  18.232  0.00  0.00    +0.000 C 
ENDROOT
BRANCH  10  22
ATOM     22  O   UNL     1       2.931   5.889  17.849  0.00  0.00    +0.000 OA
BRANCH  22  23
ATOM     23  C   UNL     1       4.362   5.792  17.937  0.00  0.00    +0.000 C 
BRANCH  23  24
ATOM     24  C   UNL     1       5.091   6.137  16.639  0.00  0.00    +0.000 C 
ATOM     25  F   UNL     1       5.205   5.083  15.797  0.00  0.00    +0.000 F 
ATOM     26  F   UNL     1       4.472   7.133  15.967  0.00  0.00    +0.000 F 
ATOM     27  F   UNL     1       6.352   6.561  16.905  0.00  0.00    +0.000 F 
ENDBRANCH  23  24
ENDBRANCH  22  23
ENDBRANCH  10  22
TORSDOF 3
ENDMDL
MODEL 7
REMARK VINA RESULT:      -7.1      6.067      8.162
REMARK  Name = 
REMARK  4 active torsions:
REMARK  status: ('A' for Active; 'I' for Inactive)
REMARK    1  A    between atoms: C_1  and  N_2
REMARK    2  A    between atoms: C_10  and  O_11
REMARK    3  A    between atoms: O_11  and  C_12
REMARK    4  A    between atoms: C_12  and  C_13
REMARK                            x       y       z     vdW  Elec       q    Type
REMARK                         _______ _______ _______ _____ _____    ______ ____
ROOT
ATOM      1  C   UNL     1       0.647   2.644  21.077  0.00  0.00    +0.000 C 
ATOM      2  N   UNL     1       1.852   2.362  20.301  0.00  0.00    +0.000 NA
ATOM      3  C   UNL     1       2.971   3.216  20.753  0.00  0.00    +0.000 C 
ATOM      4  C   UNL     1       4.256   2.968  19.937  0.00  0.00    +0.000 C 
ATOM      5  N   UNL     1       4.003   3.178  18.501  0.00  0.00    +0.000 N 
ATOM      6  C   UNL     1       4.944   3.727  17.629  0.00  0.00    +0.000 A 
ATOM      7  N   UNL     1       4.867   3.435  16.348  0.00  0.00    +0.000 NA
ATOM      8  C   UNL     1       5.773   3.982  15.421  0.00  0.00    +0.000 A 
ATOM      9  N   UNL     1       5.585   3.591  14.146  0.00  0.00    +0.000 NA
ATOM     10  C   UNL     1       6.409   4.120  13.207  0.00  0.00    +0.000 A 
ATOM     11  C   UNL     1       7.421   5.041  13.484  0.00  0.00    +0.000 A 
ATOM     12 CL   UNL     1       8.437   5.698  12.259  0.00  0.00    +0.000 Cl
ATOM     13  C   UNL     1       7.625   5.423  14.805  0.00  0.00    +0.000 A 
ATOM     14  C   UNL     1       6.786   4.876  15.770  0.00  0.00    +0.000 A 
ATOM     15  N   UNL     1       6.870   5.176  17.122  0.00  0.00    +0.000 N 
ATOM     16  C   UNL     1       7.709   5.982  17.829  0.00  0.00    +0.000 A 
ATOM     17  N   UNL     1       7.364   5.965  19.098  0.00  0.00    +0.000 NA
ATOM     18  N   UNL     1       6.276   5.129  19.224  0.00  0.00    +0.000 NA
ATOM     19  C   UNL     1       6.003   4.642  18.031  0.00  0.00    +0.000 A 
ATOM     20  C   UNL     1       2.889   2.350  18.005  0.00  0.00    +0.000 C 
ATOM     21  C   UNL     1       1.620   2.590  18.858  0.00  0.00    +0.000 C 
ENDROOT
BRANCH  10  22
ATOM     22  O   UNL     1       6.231   3.728  11.894  0.00  0.00    +0.000 OA
BRANCH  22  23
ATOM     23  C   UNL     1       5.263   2.678  11.742  0.00  0.00    +0.000 C 
BRANCH  23  24
ATOM     24  C   UNL     1       3.927   3.141  11.163  0.00  0.00    +0.000 C 
ATOM     25  F   UNL     1       3.605   2.519  10.005  0.00  0.00    +0.000 F 
ATOM     26  F   UNL     1       2.910   2.943  12.030  0.00  0.00    +0.000 F 
ATOM     27  F   UNL     1       3.966   4.470  10.893  0.00  0.00    +0.000 F 
ENDBRANCH  23  24
ENDBRANCH  22  23
ENDBRANCH  10  22
TORSDOF 3
ENDMDL
MODEL 8
REMARK VINA RESULT:      -7.0      4.266      7.976
REMARK  Name = 
REMARK  4 active torsions:
REMARK  status: ('A' for Active; 'I' for Inactive)
REMARK    1  A    between atoms: C_1  and  N_2
REMARK    2  A    between atoms: C_10  and  O_11
REMARK    3  A    between atoms: O_11  and  C_12
REMARK    4  A    between atoms: C_12  and  C_13
REMARK                            x       y       z     vdW  Elec       q    Type
REMARK                         _______ _______ _______ _____ _____    ______ ____
ROOT
ATOM      1  C   UNL     1       1.286  16.977  19.591  0.00  0.00    +0.000 C 
ATOM      2  N   UNL     1       0.747  15.645  19.326  0.00  0.00    +0.000 NA
ATOM      3  C   UNL     1       0.223  15.042  20.569  0.00  0.00    +0.000 C 
ATOM      4  C   UNL     1      -0.329  13.621  20.336  0.00  0.00    +0.000 C 
ATOM      5  N   UNL     1       0.708  12.756  19.747  0.00  0.00    +0.000 N 
ATOM      6  C   UNL     1       0.837  11.400  20.050  0.00  0.00    +0.000 A 
ATOM      7  N   UNL     1       1.407  10.605  19.170  0.00  0.00    +0.000 NA
ATOM      8  C   UNL     1       1.587   9.235  19.435  0.00  0.00    +0.000 A 
ATOM      9  N   UNL     1       2.176   8.539  18.443  0.00  0.00    +0.000 NA
ATOM     10  C   UNL     1       2.408   7.220  18.664  0.00  0.00    +0.000 A 
ATOM     11  C   UNL     1       2.083   6.557  19.850  0.00  0.00    +0.000 A 
ATOM     12 CL   UNL     1       2.406   4.884  20.093  0.00  0.00    +0.000 Cl
ATOM     13  C   UNL     1       1.455   7.276  20.860  0.00  0.00    +0.000 A 
ATOM     14  C   UNL     1       1.210   8.627  20.633  0.00  0.00    +0.000 A 
ATOM     15  N   UNL     1       0.601   9.464  21.556  0.00  0.00    +0.000 N 
ATOM     16  C   UNL     1       0.103   9.241  22.802  0.00  0.00    +0.000 A 
ATOM     17  N   UNL     1      -0.347  10.372  23.300  0.00  0.00    +0.000 NA
ATOM     18  N   UNL     1      -0.139  11.356  22.359  0.00  0.00    +0.000 NA
ATOM     19  C   UNL     1       0.411  10.792  21.304  0.00  0.00    +0.000 A 
ATOM     20  C   UNL     1       1.265  13.320  18.505  0.00  0.00    +0.000 C 
ATOM     21  C   UNL     1       1.783  14.758  18.755  0.00  0.00    +0.000 C 
ENDROOT
BRANCH  10  22
ATOM     22  O   UNL     1       3.009   6.490  17.658  0.00  0.00    +0.000 OA
BRANCH  22  23
ATOM     23  C   UNL     1       4.414   6.760  17.524  0.00  0.00    +0.000 C 
BRANCH  23  24
ATOM     24  C   UNL     1       5.314   5.588  17.911  0.00  0.00    +0.000 C 
ATOM     25  F   UNL     1       6.433   5.504  17.155  0.00  0.00    +0.000 F 
ATOM     26  F   UNL     1       5.697   5.657  19.204  0.00  0.00    +0.000 F 
ATOM     27  F   UNL     1       4.651   4.414  17.756  0.00  0.00    +0.000 F 
ENDBRANCH  23  24
ENDBRANCH  22  23
ENDBRANCH  10  22
TORSDOF 3
ENDMDL
MODEL 9
REMARK VINA RESULT:      -6.8      4.623      8.690
REMARK  Name = 
REMARK  4 active torsions:
REMARK  status: ('A' for Active; 'I' for Inactive)
REMARK    1  A    between atoms: C_1  and  N_2
REMARK    2  A    between atoms: C_10  and  O_11
REMARK    3  A    between atoms: O_11  and  C_12
REMARK    4  A    between atoms: C_12  and  C_13
REMARK                            x       y       z     vdW  Elec       q    Type
REMARK                         _______ _______ _______ _____ _____    ______ ____
ROOT
ATOM      1  C   UNL     1      -3.403  13.576  23.664  0.00  0.00    +0.000 C 
ATOM      2  N   UNL     1      -2.094  12.973  23.421  0.00  0.00    +0.000 NA
ATOM      3  C   UNL     1      -1.459  13.579  22.232  0.00  0.00    +0.000 C 
ATOM      4  C   UNL     1      -0.086  12.948  21.924  0.00  0.00    +0.000 C 
ATOM      5  N   UNL     1      -0.217  11.491  21.745  0.00  0.00    +0.000 N 
ATOM      6  C   UNL     1       0.542  10.760  20.831  0.00  0.00    +0.000 A 
ATOM      7  N   UNL     1       0.747   9.480  21.057  0.00  0.00    +0.000 NA
ATOM      8  C   UNL     1       1.481   8.690  20.154  0.00  0.00    +0.000 A 
ATOM      9  N   UNL     1       1.621   7.399  20.515  0.00  0.00    +0.000 NA
ATOM     10  C   UNL     1       2.289   6.585  19.659  0.00  0.00    +0.000 A 
ATOM     11  C   UNL     1       2.823   7.003  18.438  0.00  0.00    +0.000 A 
ATOM     12 CL   UNL     1       3.654   5.933  17.376  0.00  0.00    +0.000 Cl
ATOM     13  C   UNL     1       2.695   8.341  18.083  0.00  0.00    +0.000 A 
ATOM     14  C   UNL     1       2.017   9.178  18.962  0.00  0.00    +0.000 A 
ATOM     15  N   UNL     1       1.808  10.530  18.730  0.00  0.00    +0.000 N 
ATOM     16  C   UNL     1       2.173  11.349  17.706  0.00  0.00    +0.000 A 
ATOM     17  N   UNL     1       1.704  12.557  17.926  0.00  0.00    +0.000 NA
ATOM     18  N   UNL     1       1.017  12.529  19.119  0.00  0.00    +0.000 NA
ATOM     19  C   UNL     1       1.106  11.308  19.605  0.00  0.00    +0.000 A 
ATOM     20  C   UNL     1      -0.852  10.843  22.906  0.00  0.00    +0.000 C 
ATOM     21  C   UNL     1      -2.212  11.513  23.217  0.00  0.00    +0.000 C 
ENDROOT
BRANCH  10  22
ATOM     22  O   UNL     1       2.444   5.259  20.014  0.00  0.00    +0.000 OA
BRANCH  22  23
ATOM     23  C   UNL     1       1.260   4.686  20.593  0.00  0.00    +0.000 C 
BRANCH  23  24
ATOM     24  C   UNL     1       1.229   3.159  20.564  0.00  0.00    +0.000 C 
ATOM     25  F   UNL     1       0.378   2.661  19.637  0.00  0.00    +0.000 F 
ATOM     26  F   UNL     1       2.452   2.637  20.318  0.00  0.00    +0.000 F 
ATOM     27  F   UNL     1       0.825   2.672  21.764  0.00  0.00    +0.000 F 
ENDBRANCH  23  24
ENDBRANCH  22  23
ENDBRANCH  10  22
TORSDOF 3
ENDMDL
