MODEL 1
REMARK VINA RESULT:      -6.1      0.000      0.000
REMARK  Name = 
REMARK  8 active torsions:
REMARK  status: ('A' for Active; 'I' for Inactive)
REMARK    1  A    between atoms: C_1  and  C_2
REMARK    2  A    between atoms: C_4  and  N_5
REMARK    3  A    between atoms: C_6  and  O_8
REMARK    4  A    between atoms: O_8  and  C_9
REMARK    5  A    between atoms: C_9  and  C_10
REMARK    6  A    between atoms: C_9  and  C_11
REMARK    7  A    between atoms: C_9  and  C_12
REMARK    8  A    between atoms: C_14  and  C_15
REMARK                            x       y       z     vdW  Elec       q    Type
REMARK                         _______ _______ _______ _____ _____    ______ ____
ROOT
ATOM      1  N   UNL     1       3.754   3.645  18.398  0.00  0.00    +0.000 N 
ATOM      2  C   UNL     1       3.959   2.824  19.476  0.00  0.00    +0.000 C 
ATOM      3  O   UNL     1       5.028   2.608  20.031  0.00  0.00    +0.000 OA
ATOM      4  H   UNL     1       2.804   3.745  18.078  0.00  0.00    +0.000 HD
ENDROOT
BRANCH   1   8
ATOM      5  C   UNL     1       7.101   4.936  14.822  0.00  0.00    +0.000 C 
ATOM      6  C   UNL     1       6.341   4.978  16.106  0.00  0.00    +0.000 A 
ATOM      7  C   UNL     1       5.296   4.054  16.484  0.00  0.00    +0.000 A 
ATOM      8  C   UNL     1       4.762   4.330  17.727  0.00  0.00    +0.000 A 
ATOM      9  S   UNL     1       5.523   5.680  18.422  0.00  0.00    +0.000 S 
ATOM     10  C   UNL     1       6.551   5.921  17.097  0.00  0.00    +0.000 A 
ATOM     11  C   UNL     1       7.522   7.055  17.136  0.00  0.00    +0.000 C 
ENDBRANCH   1   8
BRANCH   2  12
ATOM     12  O   UNL     1       2.794   2.240  19.901  0.00  0.00    +0.000 OA
BRANCH  12  13
ATOM     13  C   UNL     1       1.823   3.113  20.561  0.00  0.00    +0.000 C 
ATOM     14  C   UNL     1       0.536   3.264  19.728  0.00  0.00    +0.000 C 
ATOM     15  C   UNL     1       1.443   2.435  21.888  0.00  0.00    +0.000 C 
ATOM     16  C   UNL     1       2.445   4.476  20.912  0.00  0.00    +0.000 C 
ENDBRANCH  12  13
ENDBRANCH   2  12
TORSDOF 3
ENDMDL
MODEL 2
REMARK VINA RESULT:      -6.1      0.064      1.103
REMARK  Name = 
REMARK  8 active torsions:
REMARK  status: ('A' for Active; 'I' for Inactive)
REMARK    1  A    between atoms: C_1  and  C_2
REMARK    2  A    between atoms: C_4  and  N_5
REMARK    3  A    between atoms: C_6  and  O_8
REMARK    4  A    between atoms: O_8  and  C_9
REMARK    5  A    between atoms: C_9  and  C_10
REMARK    6  A    between atoms: C_9  and  C_11
REMARK    7  A    between atoms: C_9  and  C_12
REMARK    8  A    between atoms: C_14  and  C_15
REMARK                            x       y       z     vdW  Elec       q    Type
REMARK                         _______ _______ _______ _____ _____    ______ ____
ROOT
ATOM      1  N   UNL     1       3.734   3.668  18.348  0.00  0.00    +0.000 N 
ATOM      2  C   UNL     1       3.918   2.841  19.425  0.00  0.00    +0.000 C 
ATOM      3  O   UNL     1       4.979   2.616  19.994  0.00  0.00    +0.000 OA
ATOM      4  H   UNL     1       2.789   3.776  18.015  0.00  0.00    +0.000 HD
ENDROOT
BRANCH   1   8
ATOM      5  C   UNL     1       7.120   4.971  14.814  0.00  0.00    +0.000 C 
ATOM      6  C   UNL     1       6.353   5.003  16.094  0.00  0.00    +0.000 A 
ATOM      7  C   UNL     1       5.293   4.087  16.450  0.00  0.00    +0.000 A 
ATOM      8  C   UNL     1       4.756   4.349  17.695  0.00  0.00    +0.000 A 
ATOM      9  S   UNL     1       5.532   5.677  18.417  0.00  0.00    +0.000 S 
ATOM     10  C   UNL     1       6.571   5.925  17.102  0.00  0.00    +0.000 A 
ATOM     11  C   UNL     1       7.558   7.045  17.165  0.00  0.00    +0.000 C 
ENDBRANCH   1   8
BRANCH   2  12
ATOM     12  O   UNL     1       2.744   2.263  19.831  0.00  0.00    +0.000 OA
BRANCH  12  13
ATOM     13  C   UNL     1       1.839   3.096  20.622  0.00  0.00    +0.000 C 
ATOM     14  C   UNL     1       2.404   4.515  20.823  0.00  0.00    +0.000 C 
ATOM     15  C   UNL     1       0.533   3.223  19.819  0.00  0.00    +0.000 C 
ATOM     16  C   UNL     1       1.484   2.423  21.959  0.00  0.00    +0.000 C 
ENDBRANCH  12  13
ENDBRANCH   2  12
TORSDOF 3
ENDMDL
MODEL 3
REMARK VINA RESULT:      -6.0      0.876      1.580
REMARK  Name = 
REMARK  8 active torsions:
REMARK  status: ('A' for Active; 'I' for Inactive)
REMARK    1  A    between atoms: C_1  and  C_2
REMARK    2  A    between atoms: C_4  and  N_5
REMARK    3  A    between atoms: C_6  and  O_8
REMARK    4  A    between atoms: O_8  and  C_9
REMARK    5  A    between atoms: C_9  and  C_10
REMARK    6  A    between atoms: C_9  and  C_11
REMARK    7  A    between atoms: C_9  and  C_12
REMARK    8  A    between atoms: C_14  and  C_15
REMARK                            x       y       z     vdW  Elec       q    Type
REMARK                         _______ _______ _______ _____ _____    ______ ____
ROOT
ATOM      1  N   UNL     1       3.844   3.641  18.235  0.00  0.00    +0.000 N 
ATOM      2  C   UNL     1       4.014   2.928  19.392  0.00  0.00    +0.000 C 
ATOM      3  O   UNL     1       5.052   2.819  20.033  0.00  0.00    +0.000 OA
ATOM      4  H   UNL     1       2.914   3.661  17.847  0.00  0.00    +0.000 HD
ENDROOT
BRANCH   1   8
ATOM      5  C   UNL     1       7.476   7.027  17.236  0.00  0.00    +0.000 C 
ATOM      6  C   UNL     1       6.557   5.867  17.047  0.00  0.00    +0.000 A 
ATOM      7  C   UNL     1       5.573   5.420  18.008  0.00  0.00    +0.000 A 
ATOM      8  C   UNL     1       4.861   4.321  17.573  0.00  0.00    +0.000 A 
ATOM      9  S   UNL     1       5.373   3.848  16.023  0.00  0.00    +0.000 S 
ATOM     10  C   UNL     1       6.538   5.073  15.913  0.00  0.00    +0.000 A 
ATOM     11  C   UNL     1       7.371   5.166  14.677  0.00  0.00    +0.000 C 
ENDBRANCH   1   8
BRANCH   2  12
ATOM     12  O   UNL     1       2.853   2.319  19.792  0.00  0.00    +0.000 OA
BRANCH  12  13
ATOM     13  C   UNL     1       1.865   3.162  20.465  0.00  0.00    +0.000 C 
ATOM     14  C   UNL     1       0.567   3.282  19.645  0.00  0.00    +0.000 C 
ATOM     15  C   UNL     1       1.517   2.467  21.793  0.00  0.00    +0.000 C 
ATOM     16  C   UNL     1       2.454   4.539  20.817  0.00  0.00    +0.000 C 
ENDBRANCH  12  13
ENDBRANCH   2  12
TORSDOF 3
ENDMDL
MODEL 4
REMARK VINA RESULT:      -6.0      0.857      1.926
REMARK  Name = 
REMARK  8 active torsions:
REMARK  status: ('A' for Active; 'I' for Inactive)
REMARK    1  A    between atoms: C_1  and  C_2
REMARK    2  A    between atoms: C_4  and  N_5
REMARK    3  A    between atoms: C_6  and  O_8
REMARK    4  A    between atoms: O_8  and  C_9
REMARK    5  A    between atoms: C_9  and  C_10
REMARK    6  A    between atoms: C_9  and  C_11
REMARK    7  A    between atoms: C_9  and  C_12
REMARK    8  A    between atoms: C_14  and  C_15
REMARK                            x       y       z     vdW  Elec       q    Type
REMARK                         _______ _______ _______ _____ _____    ______ ____
ROOT
ATOM      1  N   UNL     1       3.790   3.707  18.293  0.00  0.00    +0.000 N 
ATOM      2  C   UNL     1       3.966   2.901  19.387  0.00  0.00    +0.000 C 
ATOM      3  O   UNL     1       5.021   2.688  19.971  0.00  0.00    +0.000 OA
ATOM      4  H   UNL     1       2.848   3.806  17.949  0.00  0.00    +0.000 HD
ENDROOT
BRANCH   1   8
ATOM      5  C   UNL     1       7.444   7.075  17.310  0.00  0.00    +0.000 C 
ATOM      6  C   UNL     1       6.523   5.916  17.119  0.00  0.00    +0.000 A 
ATOM      7  C   UNL     1       5.527   5.479  18.072  0.00  0.00    +0.000 A 
ATOM      8  C   UNL     1       4.817   4.379  17.637  0.00  0.00    +0.000 A 
ATOM      9  S   UNL     1       5.345   3.892  16.098  0.00  0.00    +0.000 S 
ATOM     10  C   UNL     1       6.515   5.113  15.992  0.00  0.00    +0.000 A 
ATOM     11  C   UNL     1       7.363   5.194  14.765  0.00  0.00    +0.000 C 
ENDBRANCH   1   8
BRANCH   2  12
ATOM     12  O   UNL     1       2.788   2.327  19.792  0.00  0.00    +0.000 OA
BRANCH  12  13
ATOM     13  C   UNL     1       1.888   3.163  20.586  0.00  0.00    +0.000 C 
ATOM     14  C   UNL     1       2.475   4.568  20.818  0.00  0.00    +0.000 C 
ATOM     15  C   UNL     1       0.594   3.325  19.771  0.00  0.00    +0.000 C 
ATOM     16  C   UNL     1       1.506   2.473  21.908  0.00  0.00    +0.000 C 
ENDBRANCH  12  13
ENDBRANCH   2  12
TORSDOF 3
ENDMDL
MODEL 5
REMARK VINA RESULT:      -5.9      0.091      1.132
REMARK  Name = 
REMARK  8 active torsions:
REMARK  status: ('A' for Active; 'I' for Inactive)
REMARK    1  A    between atoms: C_1  and  C_2
REMARK    2  A    between atoms: C_4  and  N_5
REMARK    3  A    between atoms: C_6  and  O_8
REMARK    4  A    between atoms: O_8  and  C_9
REMARK    5  A    between atoms: C_9  and  C_10
REMARK    6  A    between atoms: C_9  and  C_11
REMARK    7  A    between atoms: C_9  and  C_12
REMARK    8  A    between atoms: C_14  and  C_15
REMARK                            x       y       z     vdW  Elec       q    Type
REMARK                         _______ _______ _______ _____ _____    ______ ____
ROOT
ATOM      1  N   UNL     1       3.713   3.630  18.298  0.00  0.00    +0.000 N 
ATOM      2  C   UNL     1       3.892   2.808  19.380  0.00  0.00    +0.000 C 
ATOM      3  O   UNL     1       4.947   2.596  19.964  0.00  0.00    +0.000 OA
ATOM      4  H   UNL     1       2.770   3.725  17.953  0.00  0.00    +0.000 HD
ENDROOT
BRANCH   1   8
ATOM      5  C   UNL     1       7.126   4.966  14.803  0.00  0.00    +0.000 C 
ATOM      6  C   UNL     1       6.344   4.990  16.074  0.00  0.00    +0.000 A 
ATOM      7  C   UNL     1       5.289   4.064  16.419  0.00  0.00    +0.000 A 
ATOM      8  C   UNL     1       4.735   4.321  17.657  0.00  0.00    +0.000 A 
ATOM      9  S   UNL     1       5.489   5.657  18.387  0.00  0.00    +0.000 S 
ATOM     10  C   UNL     1       6.540   5.916  17.085  0.00  0.00    +0.000 A 
ATOM     11  C   UNL     1       7.516   7.045  17.159  0.00  0.00    +0.000 C 
ENDBRANCH   1   8
BRANCH   2  12
ATOM     12  O   UNL     1       2.719   2.217  19.772  0.00  0.00    +0.000 OA
BRANCH  12  13
ATOM     13  C   UNL     1       1.798   3.038  20.557  0.00  0.00    +0.000 C 
ATOM     14  C   UNL     1       1.520   2.418  21.939  0.00  0.00    +0.000 C 
ATOM     15  C   UNL     1       2.492   4.393  20.784  0.00  0.00    +0.000 C 
ATOM     16  C   UNL     1       0.500   3.320  19.781  0.00  0.00    +0.000 C 
ENDBRANCH  12  13
ENDBRANCH   2  12
TORSDOF 3
ENDMDL
MODEL 6
REMARK VINA RESULT:      -5.8      2.355      6.052
REMARK  Name = 
REMARK  8 active torsions:
REMARK  status: ('A' for Active; 'I' for Inactive)
REMARK    1  A    between atoms: C_1  and  C_2
REMARK    2  A    between atoms: C_4  and  N_5
REMARK    3  A    between atoms: C_6  and  O_8
REMARK    4  A    between atoms: O_8  and  C_9
REMARK    5  A    between atoms: C_9  and  C_10
REMARK    6  A    between atoms: C_9  and  C_11
REMARK    7  A    between atoms: C_9  and  C_12
REMARK    8  A    between atoms: C_14  and  C_15
REMARK                            x       y       z     vdW  Elec       q    Type
REMARK                         _______ _______ _______ _____ _____    ______ ____
ROOT
ATOM      1  N   UNL     1       5.042   3.712  17.352  0.00  0.00    +0.000 N 
ATOM      2  C   UNL     1       6.239   4.371  17.257  0.00  0.00    +0.000 C 
ATOM      3  O   UNL     1       6.740   5.093  18.109  0.00  0.00    +0.000 OA
ATOM      4  H   UNL     1       4.784   3.124  16.575  0.00  0.00    +0.000 HD
ENDROOT
BRANCH   1   8
ATOM      5  C   UNL     1       1.661   5.597  20.618  0.00  0.00    +0.000 C 
ATOM      6  C   UNL     1       2.607   4.630  19.989  0.00  0.00    +0.000 A 
ATOM      7  C   UNL     1       3.381   4.882  18.794  0.00  0.00    +0.000 A 
ATOM      8  C   UNL     1       4.173   3.811  18.434  0.00  0.00    +0.000 A 
ATOM      9  S   UNL     1       3.985   2.528  19.532  0.00  0.00    +0.000 S 
ATOM     10  C   UNL     1       2.857   3.361  20.482  0.00  0.00    +0.000 A 
ATOM     11  C   UNL     1       2.287   2.683  21.685  0.00  0.00    +0.000 C 
ENDBRANCH   1   8
BRANCH   2  12
ATOM     12  O   UNL     1       6.860   4.129  16.059  0.00  0.00    +0.000 OA
BRANCH  12  13
ATOM     13  C   UNL     1       6.298   4.790  14.881  0.00  0.00    +0.000 C 
ATOM     14  C   UNL     1       5.463   6.025  15.267  0.00  0.00    +0.000 C 
ATOM     15  C   UNL     1       7.486   5.276  14.033  0.00  0.00    +0.000 C 
ATOM     16  C   UNL     1       5.498   3.802  14.015  0.00  0.00    +0.000 C 
ENDBRANCH  12  13
ENDBRANCH   2  12
TORSDOF 3
ENDMDL
MODEL 7
REMARK VINA RESULT:      -5.8      2.132      2.751
REMARK  Name = 
REMARK  8 active torsions:
REMARK  status: ('A' for Active; 'I' for Inactive)
REMARK    1  A    between atoms: C_1  and  C_2
REMARK    2  A    between atoms: C_4  and  N_5
REMARK    3  A    between atoms: C_6  and  O_8
REMARK    4  A    between atoms: O_8  and  C_9
REMARK    5  A    between atoms: C_9  and  C_10
REMARK    6  A    between atoms: C_9  and  C_11
REMARK    7  A    between atoms: C_9  and  C_12
REMARK    8  A    between atoms: C_14  and  C_15
REMARK                            x       y       z     vdW  Elec       q    Type
REMARK                         _______ _______ _______ _____ _____    ______ ____
ROOT
ATOM      1  N   UNL     1       5.339   3.962  17.355  0.00  0.00    +0.000 N 
ATOM      2  C   UNL     1       4.519   4.854  17.994  0.00  0.00    +0.000 C 
ATOM      3  O   UNL     1       4.033   5.869  17.511  0.00  0.00    +0.000 OA
ATOM      4  H   UNL     1       5.628   3.153  17.883  0.00  0.00    +0.000 HD
ENDROOT
BRANCH   1   8
ATOM      5  C   UNL     1       5.758   3.386  12.341  0.00  0.00    +0.000 C 
ATOM      6  C   UNL     1       6.044   3.881  13.720  0.00  0.00    +0.000 A 
ATOM      7  C   UNL     1       5.318   3.495  14.909  0.00  0.00    +0.000 A 
ATOM      8  C   UNL     1       5.795   4.108  16.050  0.00  0.00    +0.000 A 
ATOM      9  S   UNL     1       7.105   5.125  15.682  0.00  0.00    +0.000 S 
ATOM     10  C   UNL     1       7.052   4.779  14.025  0.00  0.00    +0.000 A 
ATOM     11  C   UNL     1       8.042   5.435  13.119  0.00  0.00    +0.000 C 
ENDBRANCH   1   8
BRANCH   2  12
ATOM     12  O   UNL     1       4.274   4.484  19.291  0.00  0.00    +0.000 OA
BRANCH  12  13
ATOM     13  C   UNL     1       2.932   3.984  19.591  0.00  0.00    +0.000 C 
ATOM     14  C   UNL     1       2.191   3.546  18.313  0.00  0.00    +0.000 C 
ATOM     15  C   UNL     1       3.107   2.741  20.479  0.00  0.00    +0.000 C 
ATOM     16  C   UNL     1       2.122   5.010  20.403  0.00  0.00    +0.000 C 
ENDBRANCH  12  13
ENDBRANCH   2  12
TORSDOF 3
ENDMDL
MODEL 8
REMARK VINA RESULT:      -5.8      2.371      6.032
REMARK  Name = 
REMARK  8 active torsions:
REMARK  status: ('A' for Active; 'I' for Inactive)
REMARK    1  A    between atoms: C_1  and  C_2
REMARK    2  A    between atoms: C_4  and  N_5
REMARK    3  A    between atoms: C_6  and  O_8
REMARK    4  A    between atoms: O_8  and  C_9
REMARK    5  A    between atoms: C_9  and  C_10
REMARK    6  A    between atoms: C_9  and  C_11
REMARK    7  A    between atoms: C_9  and  C_12
REMARK    8  A    between atoms: C_14  and  C_15
REMARK                            x       y       z     vdW  Elec       q    Type
REMARK                         _______ _______ _______ _____ _____    ______ ____
ROOT
ATOM      1  N   UNL     1       5.080   3.655  17.354  0.00  0.00    +0.000 N 
ATOM      2  C   UNL     1       6.253   4.351  17.224  0.00  0.00    +0.000 C 
ATOM      3  O   UNL     1       6.727   5.133  18.038  0.00  0.00    +0.000 OA
ATOM      4  H   UNL     1       4.844   3.020  16.608  0.00  0.00    +0.000 HD
ENDROOT
BRANCH   1   8
ATOM      5  C   UNL     1       1.739   5.630  20.609  0.00  0.00    +0.000 C 
ATOM      6  C   UNL     1       2.659   4.636  19.981  0.00  0.00    +0.000 A 
ATOM      7  C   UNL     1       3.448   4.870  18.792  0.00  0.00    +0.000 A 
ATOM      8  C   UNL     1       4.208   3.775  18.432  0.00  0.00    +0.000 A 
ATOM      9  S   UNL     1       3.974   2.495  19.523  0.00  0.00    +0.000 S 
ATOM     10  C   UNL     1       2.867   3.358  20.470  0.00  0.00    +0.000 A 
ATOM     11  C   UNL     1       2.270   2.693  21.667  0.00  0.00    +0.000 C 
ENDBRANCH   1   8
BRANCH   2  12
ATOM     12  O   UNL     1       6.882   4.073  16.038  0.00  0.00    +0.000 OA
BRANCH  12  13
ATOM     13  C   UNL     1       6.410   4.795  14.857  0.00  0.00    +0.000 C 
ATOM     14  C   UNL     1       7.582   5.334  14.015  0.00  0.00    +0.000 C 
ATOM     15  C   UNL     1       5.640   3.783  13.993  0.00  0.00    +0.000 C 
ATOM     16  C   UNL     1       5.419   5.908  15.242  0.00  0.00    +0.000 C 
ENDBRANCH  12  13
ENDBRANCH   2  12
TORSDOF 3
ENDMDL
MODEL 9
REMARK VINA RESULT:      -5.7      2.245      6.132
REMARK  Name = 
REMARK  8 active torsions:
REMARK  status: ('A' for Active; 'I' for Inactive)
REMARK    1  A    between atoms: C_1  and  C_2
REMARK    2  A    between atoms: C_4  and  N_5
REMARK    3  A    between atoms: C_6  and  O_8
REMARK    4  A    between atoms: O_8  and  C_9
REMARK    5  A    between atoms: C_9  and  C_10
REMARK    6  A    between atoms: C_9  and  C_11
REMARK    7  A    between atoms: C_9  and  C_12
REMARK    8  A    between atoms: C_14  and  C_15
REMARK                            x       y       z     vdW  Elec       q    Type
REMARK                         _______ _______ _______ _____ _____    ______ ____
ROOT
ATOM      1  N   UNL     1       5.031   3.226  17.044  0.00  0.00    +0.000 N 
ATOM      2  C   UNL     1       5.933   4.257  17.046  0.00  0.00    +0.000 C 
ATOM      3  O   UNL     1       6.013   5.151  17.878  0.00  0.00    +0.000 OA
ATOM      4  H   UNL     1       5.119   2.547  16.304  0.00  0.00    +0.000 HD
ENDROOT
BRANCH   1   8
ATOM      5  C   UNL     1       0.407   2.732  19.051  0.00  0.00    +0.000 C 
ATOM      6  C   UNL     1       1.894   2.838  18.975  0.00  0.00    +0.000 A 
ATOM      7  C   UNL     1       2.655   3.000  17.757  0.00  0.00    +0.000 A 
ATOM      8  C   UNL     1       4.015   3.067  17.981  0.00  0.00    +0.000 A 
ATOM      9  S   UNL     1       4.358   2.946  19.640  0.00  0.00    +0.000 S 
ATOM     10  C   UNL     1       2.729   2.793  20.078  0.00  0.00    +0.000 A 
ATOM     11  C   UNL     1       2.382   2.640  21.523  0.00  0.00    +0.000 C 
ENDBRANCH   1   8
BRANCH   2  12
ATOM     12  O   UNL     1       6.788   4.189  15.976  0.00  0.00    +0.000 OA
BRANCH  12  13
ATOM     13  C   UNL     1       6.328   4.797  14.727  0.00  0.00    +0.000 C 
ATOM     14  C   UNL     1       5.403   6.001  14.988  0.00  0.00    +0.000 C 
ATOM     15  C   UNL     1       7.578   5.317  13.997  0.00  0.00    +0.000 C 
ATOM     16  C   UNL     1       5.669   3.753  13.808  0.00  0.00    +0.000 C 
ENDBRANCH  12  13
ENDBRANCH   2  12
TORSDOF 3
ENDMDL
