MODEL 1
REMARK VINA RESULT:      -7.7      0.000      0.000
REMARK  Name = 
REMARK  6 active torsions:
REMARK  status: ('A' for Active; 'I' for Inactive)
REMARK    1  A    between atoms: C_1  and  O_2
REMARK    2  A    between atoms: O_2  and  C_3
REMARK    3  A    between atoms: C_8  and  C_9
REMARK    4  A    between atoms: C_9  and  N_11
REMARK    5  A    between atoms: C_12  and  C_20
REMARK    6  A    between atoms: N_13  and  C_14
REMARK                            x       y       z     vdW  Elec       q    Type
REMARK                         _______ _______ _______ _____ _____    ______ ____
ROOT
ATOM      1  N   UNL     1       3.417   5.904  19.861  0.00  0.00    +0.000 NA
ATOM      2  C   UNL     1       3.635   4.811  19.157  0.00  0.00    +0.000 C 
ATOM      3  N   UNL     1       4.961   4.517  18.806  0.00  0.00    +0.000 N 
ATOM      4  H   UNL     1       5.132   3.591  18.417  0.00  0.00    +0.000 HD
ENDROOT
BRANCH   3   5
ATOM      5  C   UNL     1       5.997   5.427  18.509  0.00  0.00    +0.000 A 
ATOM      6  C   UNL     1       5.943   6.344  17.451  0.00  0.00    +0.000 A 
ATOM      7  C   UNL     1       6.968   7.262  17.226  0.00  0.00    +0.000 A 
ATOM      8  C   UNL     1       8.079   7.283  18.061  0.00  0.00    +0.000 A 
ATOM      9  C   UNL     1       8.157   6.387  19.122  0.00  0.00    +0.000 A 
ATOM     10  C   UNL     1       7.123   5.473  19.348  0.00  0.00    +0.000 A 
ENDBRANCH   3   5
BRANCH   2  11
ATOM     11  C   UNL     1       2.541   3.766  18.690  0.00  0.00    +0.000 C 
ATOM     12 CL   UNL     1       3.365   2.482  17.676  0.00  0.00    +0.000 Cl
ATOM     13 CL   UNL     1       1.847   2.902  20.080  0.00  0.00    +0.000 Cl
ATOM     14 CL   UNL     1       1.348   4.510  17.604  0.00  0.00    +0.000 Cl
ENDBRANCH   2  11
BRANCH   1  15
ATOM     15  C   UNL     1       2.178   6.361  20.185  0.00  0.00    +0.000 C 
ATOM     16  O   UNL     1       1.342   5.686  20.778  0.00  0.00    +0.000 OA
BRANCH  15  22
ATOM     17  C   UNL     1       1.143   8.720  20.511  0.00  0.00    +0.000 A 
ATOM     18  C   UNL     1       0.728   9.911  19.900  0.00  0.00    +0.000 A 
ATOM     19  C   UNL     1       0.985  10.170  18.551  0.00  0.00    +0.000 A 
ATOM     20  C   UNL     1       1.666   9.232  17.792  0.00  0.00    +0.000 A 
ATOM     21  C   UNL     1       2.045   8.025  18.369  0.00  0.00    +0.000 A 
ATOM     22  C   UNL     1       1.768   7.731  19.726  0.00  0.00    +0.000 A 
BRANCH  17  24
ATOM     23  C   UNL     1      -0.222   9.135  22.406  0.00  0.00    +0.000 C 
ATOM     24  O   UNL     1       0.921   8.490  21.848  0.00  0.00    +0.000 OA
ENDBRANCH  17  24
ENDBRANCH  15  22
ENDBRANCH   1  15
TORSDOF 5
ENDMDL
MODEL 2
REMARK VINA RESULT:      -7.5      0.177      1.015
REMARK  Name = 
REMARK  6 active torsions:
REMARK  status: ('A' for Active; 'I' for Inactive)
REMARK    1  A    between atoms: C_1  and  O_2
REMARK    2  A    between atoms: O_2  and  C_3
REMARK    3  A    between atoms: C_8  and  C_9
REMARK    4  A    between atoms: C_9  and  N_11
REMARK    5  A    between atoms: C_12  and  C_20
REMARK    6  A    between atoms: N_13  and  C_14
REMARK                            x       y       z     vdW  Elec       q    Type
REMARK                         _______ _______ _______ _____ _____    ______ ____
ROOT
ATOM      1  N   UNL     1       3.384   5.894  19.923  0.00  0.00    +0.000 NA
ATOM      2  C   UNL     1       3.638   4.812  19.215  0.00  0.00    +0.000 C 
ATOM      3  N   UNL     1       4.977   4.545  18.893  0.00  0.00    +0.000 N 
ATOM      4  H   UNL     1       5.174   3.626  18.500  0.00  0.00    +0.000 HD
ENDROOT
BRANCH   3   5
ATOM      5  C   UNL     1       6.003   5.476  18.629  0.00  0.00    +0.000 A 
ATOM      6  C   UNL     1       7.204   5.531  19.349  0.00  0.00    +0.000 A 
ATOM      7  C   UNL     1       8.213   6.433  19.019  0.00  0.00    +0.000 A 
ATOM      8  C   UNL     1       8.044   7.309  17.953  0.00  0.00    +0.000 A 
ATOM      9  C   UNL     1       6.863   7.273  17.217  0.00  0.00    +0.000 A 
ATOM     10  C   UNL     1       5.856   6.361  17.547  0.00  0.00    +0.000 A 
ENDBRANCH   3   5
BRANCH   2  11
ATOM     11  C   UNL     1       2.574   3.754  18.711  0.00  0.00    +0.000 C 
ATOM     12 CL   UNL     1       3.444   2.497  17.700  0.00  0.00    +0.000 Cl
ATOM     13 CL   UNL     1       1.867   2.859  20.076  0.00  0.00    +0.000 Cl
ATOM     14 CL   UNL     1       1.391   4.488  17.609  0.00  0.00    +0.000 Cl
ENDBRANCH   2  11
BRANCH   1  15
ATOM     15  C   UNL     1       2.129   6.327  20.221  0.00  0.00    +0.000 C 
ATOM     16  O   UNL     1       1.283   5.623  20.763  0.00  0.00    +0.000 OA
BRANCH  15  22
ATOM     17  C   UNL     1       1.118   8.686  20.611  0.00  0.00    +0.000 A 
ATOM     18  C   UNL     1       0.696   9.890  20.029  0.00  0.00    +0.000 A 
ATOM     19  C   UNL     1       0.925  10.170  18.679  0.00  0.00    +0.000 A 
ATOM     20  C   UNL     1       1.582   9.242  17.889  0.00  0.00    +0.000 A 
ATOM     21  C   UNL     1       1.967   8.022  18.437  0.00  0.00    +0.000 A 
ATOM     22  C   UNL     1       1.718   7.707  19.794  0.00  0.00    +0.000 A 
BRANCH  17  24
ATOM     23  C   UNL     1       0.315   9.487  22.694  0.00  0.00    +0.000 C 
ATOM     24  O   UNL     1       0.924   8.435  21.948  0.00  0.00    +0.000 OA
ENDBRANCH  17  24
ENDBRANCH  15  22
ENDBRANCH   1  15
TORSDOF 5
ENDMDL
MODEL 3
REMARK VINA RESULT:      -7.2      0.127      1.065
REMARK  Name = 
REMARK  6 active torsions:
REMARK  status: ('A' for Active; 'I' for Inactive)
REMARK    1  A    between atoms: C_1  and  O_2
REMARK    2  A    between atoms: O_2  and  C_3
REMARK    3  A    between atoms: C_8  and  C_9
REMARK    4  A    between atoms: C_9  and  N_11
REMARK    5  A    between atoms: C_12  and  C_20
REMARK    6  A    between atoms: N_13  and  C_14
REMARK                            x       y       z     vdW  Elec       q    Type
REMARK                         _______ _______ _______ _____ _____    ______ ____
ROOT
ATOM      1  N   UNL     1       3.473   5.872  19.810  0.00  0.00    +0.000 NA
ATOM      2  C   UNL     1       3.700   4.812  19.061  0.00  0.00    +0.000 C 
ATOM      3  N   UNL     1       5.030   4.537  18.707  0.00  0.00    +0.000 N 
ATOM      4  H   UNL     1       5.207   3.629  18.280  0.00  0.00    +0.000 HD
ENDROOT
BRANCH   3   5
ATOM      5  C   UNL     1       6.065   5.462  18.458  0.00  0.00    +0.000 A 
ATOM      6  C   UNL     1       6.029   6.404  17.423  0.00  0.00    +0.000 A 
ATOM      7  C   UNL     1       7.052   7.335  17.245  0.00  0.00    +0.000 A 
ATOM      8  C   UNL     1       8.142   7.345  18.108  0.00  0.00    +0.000 A 
ATOM      9  C   UNL     1       8.201   6.422  19.148  0.00  0.00    +0.000 A 
ATOM     10  C   UNL     1       7.170   5.496  19.326  0.00  0.00    +0.000 A 
ENDBRANCH   3   5
BRANCH   2  11
ATOM     11  C   UNL     1       2.613   3.786  18.539  0.00  0.00    +0.000 C 
ATOM     12 CL   UNL     1       1.783   3.035  19.990  0.00  0.00    +0.000 Cl
ATOM     13 CL   UNL     1       1.329   4.619  17.636  0.00  0.00    +0.000 Cl
ATOM     14 CL   UNL     1       3.360   2.420  17.683  0.00  0.00    +0.000 Cl
ENDBRANCH   2  11
BRANCH   1  15
ATOM     15  C   UNL     1       2.230   6.312  20.143  0.00  0.00    +0.000 C 
ATOM     16  O   UNL     1       1.403   5.619  20.728  0.00  0.00    +0.000 OA
BRANCH  15  22
ATOM     17  C   UNL     1       1.164   8.651  20.504  0.00  0.00    +0.000 A 
ATOM     18  C   UNL     1       0.736   9.848  19.911  0.00  0.00    +0.000 A 
ATOM     19  C   UNL     1       0.995  10.132  18.568  0.00  0.00    +0.000 A 
ATOM     20  C   UNL     1       1.690   9.216  17.796  0.00  0.00    +0.000 A 
ATOM     21  C   UNL     1       2.083   8.003  18.355  0.00  0.00    +0.000 A 
ATOM     22  C   UNL     1       1.804   7.684  19.705  0.00  0.00    +0.000 A 
BRANCH  17  24
ATOM     23  C   UNL     1       0.112   9.338  22.516  0.00  0.00    +0.000 C 
ATOM     24  O   UNL     1       0.940   8.397  21.837  0.00  0.00    +0.000 OA
ENDBRANCH  17  24
ENDBRANCH  15  22
ENDBRANCH   1  15
TORSDOF 5
ENDMDL
MODEL 4
REMARK VINA RESULT:      -7.2      1.415      1.892
REMARK  Name = 
REMARK  6 active torsions:
REMARK  status: ('A' for Active; 'I' for Inactive)
REMARK    1  A    between atoms: C_1  and  O_2
REMARK    2  A    between atoms: O_2  and  C_3
REMARK    3  A    between atoms: C_8  and  C_9
REMARK    4  A    between atoms: C_9  and  N_11
REMARK    5  A    between atoms: C_12  and  C_20
REMARK    6  A    between atoms: N_13  and  C_14
REMARK                            x       y       z     vdW  Elec       q    Type
REMARK                         _______ _______ _______ _____ _____    ______ ____
ROOT
ATOM      1  N   UNL     1       3.586   5.352  19.571  0.00  0.00    +0.000 NA
ATOM      2  C   UNL     1       3.536   4.060  19.318  0.00  0.00    +0.000 C 
ATOM      3  N   UNL     1       4.603   3.494  18.603  0.00  0.00    +0.000 N 
ATOM      4  H   UNL     1       4.636   2.477  18.567  0.00  0.00    +0.000 HD
ENDROOT
BRANCH   3   5
ATOM      5  C   UNL     1       5.376   4.095  17.588  0.00  0.00    +0.000 A 
ATOM      6  C   UNL     1       6.656   4.624  17.798  0.00  0.00    +0.000 A 
ATOM      7  C   UNL     1       7.406   5.161  16.753  0.00  0.00    +0.000 A 
ATOM      8  C   UNL     1       6.888   5.183  15.463  0.00  0.00    +0.000 A 
ATOM      9  C   UNL     1       5.620   4.661  15.225  0.00  0.00    +0.000 A 
ATOM     10  C   UNL     1       4.875   4.115  16.275  0.00  0.00    +0.000 A 
ENDBRANCH   3   5
BRANCH   2  11
ATOM     11  C   UNL     1       2.395   3.061  19.774  0.00  0.00    +0.000 C 
ATOM     12 CL   UNL     1       2.673   1.450  18.948  0.00  0.00    +0.000 Cl
ATOM     13 CL   UNL     1       2.498   2.726  21.517  0.00  0.00    +0.000 Cl
ATOM     14 CL   UNL     1       0.797   3.594  19.211  0.00  0.00    +0.000 Cl
ENDBRANCH   2  11
BRANCH   1  15
ATOM     15  C   UNL     1       2.579   6.047  20.164  0.00  0.00    +0.000 C 
ATOM     16  O   UNL     1       1.937   5.622  21.120  0.00  0.00    +0.000 OA
BRANCH  15  22
ATOM     17  C   UNL     1       1.442   8.380  20.239  0.00  0.00    +0.000 A 
ATOM     18  C   UNL     1       1.042   9.511  19.513  0.00  0.00    +0.000 A 
ATOM     19  C   UNL     1       1.407   9.690  18.177  0.00  0.00    +0.000 A 
ATOM     20  C   UNL     1       2.183   8.732  17.545  0.00  0.00    +0.000 A 
ATOM     21  C   UNL     1       2.550   7.581  18.234  0.00  0.00    +0.000 A 
ATOM     22  C   UNL     1       2.165   7.367  19.579  0.00  0.00    +0.000 A 
BRANCH  17  24
ATOM     23  C   UNL     1      -0.215   8.615  21.920  0.00  0.00    +0.000 C 
ATOM     24  O   UNL     1       1.112   8.230  21.565  0.00  0.00    +0.000 OA
ENDBRANCH  17  24
ENDBRANCH  15  22
ENDBRANCH   1  15
TORSDOF 5
ENDMDL
MODEL 5
REMARK VINA RESULT:      -7.2      0.167      1.053
REMARK  Name = 
REMARK  6 active torsions:
REMARK  status: ('A' for Active; 'I' for Inactive)
REMARK    1  A    between atoms: C_1  and  O_2
REMARK    2  A    between atoms: O_2  and  C_3
REMARK    3  A    between atoms: C_8  and  C_9
REMARK    4  A    between atoms: C_9  and  N_11
REMARK    5  A    between atoms: C_12  and  C_20
REMARK    6  A    between atoms: N_13  and  C_14
REMARK                            x       y       z     vdW  Elec       q    Type
REMARK                         _______ _______ _______ _____ _____    ______ ____
ROOT
ATOM      1  N   UNL     1       3.445   5.868  19.852  0.00  0.00    +0.000 NA
ATOM      2  C   UNL     1       3.675   4.780  19.145  0.00  0.00    +0.000 C 
ATOM      3  N   UNL     1       5.003   4.507  18.784  0.00  0.00    +0.000 N 
ATOM      4  H   UNL     1       5.186   3.585  18.392  0.00  0.00    +0.000 HD
ENDROOT
BRANCH   3   5
ATOM      5  C   UNL     1       6.023   5.433  18.483  0.00  0.00    +0.000 A 
ATOM      6  C   UNL     1       5.952   6.346  17.423  0.00  0.00    +0.000 A 
ATOM      7  C   UNL     1       6.961   7.281  17.194  0.00  0.00    +0.000 A 
ATOM      8  C   UNL     1       8.074   7.322  18.026  0.00  0.00    +0.000 A 
ATOM      9  C   UNL     1       8.169   6.429  19.089  0.00  0.00    +0.000 A 
ATOM     10  C   UNL     1       7.151   5.499  19.320  0.00  0.00    +0.000 A 
ENDBRANCH   3   5
BRANCH   2  11
ATOM     11  C   UNL     1       2.594   3.720  18.681  0.00  0.00    +0.000 C 
ATOM     12 CL   UNL     1       1.354   4.577  17.639  0.00  0.00    +0.000 Cl
ATOM     13 CL   UNL     1       3.322   2.482  17.633  0.00  0.00    +0.000 Cl
ATOM     14 CL   UNL     1       1.672   3.082  20.058  0.00  0.00    +0.000 Cl
ENDBRANCH   2  11
BRANCH   1  15
ATOM     15  C   UNL     1       2.201   6.306  20.184  0.00  0.00    +0.000 C 
ATOM     16  O   UNL     1       1.375   5.612  20.770  0.00  0.00    +0.000 OA
BRANCH  15  22
ATOM     17  C   UNL     1       1.134   8.645  20.544  0.00  0.00    +0.000 A 
ATOM     18  C   UNL     1       0.704   9.840  19.950  0.00  0.00    +0.000 A 
ATOM     19  C   UNL     1       0.962  10.122  18.606  0.00  0.00    +0.000 A 
ATOM     20  C   UNL     1       1.657   9.206  17.834  0.00  0.00    +0.000 A 
ATOM     21  C   UNL     1       2.051   7.995  18.394  0.00  0.00    +0.000 A 
ATOM     22  C   UNL     1       1.774   7.677  19.745  0.00  0.00    +0.000 A 
BRANCH  17  24
ATOM     23  C   UNL     1       0.358   9.471  22.628  0.00  0.00    +0.000 C 
ATOM     24  O   UNL     1       0.912   8.392  21.877  0.00  0.00    +0.000 OA
ENDBRANCH  17  24
ENDBRANCH  15  22
ENDBRANCH   1  15
TORSDOF 5
ENDMDL
MODEL 6
REMARK VINA RESULT:      -7.2      3.693      5.233
REMARK  Name = 
REMARK  6 active torsions:
REMARK  status: ('A' for Active; 'I' for Inactive)
REMARK    1  A    between atoms: C_1  and  O_2
REMARK    2  A    between atoms: O_2  and  C_3
REMARK    3  A    between atoms: C_8  and  C_9
REMARK    4  A    between atoms: C_9  and  N_11
REMARK    5  A    between atoms: C_12  and  C_20
REMARK    6  A    between atoms: N_13  and  C_14
REMARK                            x       y       z     vdW  Elec       q    Type
REMARK                         _______ _______ _______ _____ _____    ______ ____
ROOT
ATOM      1  N   UNL     1       5.161   6.167  16.301  0.00  0.00    +0.000 NA
ATOM      2  C   UNL     1       6.393   5.795  16.586  0.00  0.00    +0.000 C 
ATOM      3  N   UNL     1       7.221   5.413  15.520  0.00  0.00    +0.000 N 
ATOM      4  H   UNL     1       8.210   5.296  15.733  0.00  0.00    +0.000 HD
ENDROOT
BRANCH   3   5
ATOM      5  C   UNL     1       6.845   4.759  14.328  0.00  0.00    +0.000 A 
ATOM      6  C   UNL     1       5.702   3.959  14.210  0.00  0.00    +0.000 A 
ATOM      7  C   UNL     1       5.340   3.374  12.997  0.00  0.00    +0.000 A 
ATOM      8  C   UNL     1       6.121   3.580  11.865  0.00  0.00    +0.000 A 
ATOM      9  C   UNL     1       7.260   4.374  11.952  0.00  0.00    +0.000 A 
ATOM     10  C   UNL     1       7.614   4.964  13.169  0.00  0.00    +0.000 A 
ENDBRANCH   3   5
BRANCH   2  11
ATOM     11  C   UNL     1       7.051   5.766  18.026  0.00  0.00    +0.000 C 
ATOM     12 CL   UNL     1       8.308   4.432  18.060  0.00  0.00    +0.000 Cl
ATOM     13 CL   UNL     1       7.944   7.269  18.350  0.00  0.00    +0.000 Cl
ATOM     14 CL   UNL     1       5.872   5.316  19.276  0.00  0.00    +0.000 Cl
ENDBRANCH   2  11
BRANCH   1  15
ATOM     15  C   UNL     1       4.224   6.466  17.241  0.00  0.00    +0.000 C 
ATOM     16  O   UNL     1       4.132   7.567  17.776  0.00  0.00    +0.000 OA
BRANCH  15  22
ATOM     17  C   UNL     1       2.406   5.465  18.800  0.00  0.00    +0.000 A 
ATOM     18  C   UNL     1       1.691   4.321  19.182  0.00  0.00    +0.000 A 
ATOM     19  C   UNL     1       1.790   3.125  18.467  0.00  0.00    +0.000 A 
ATOM     20  C   UNL     1       2.612   3.058  17.354  0.00  0.00    +0.000 A 
ATOM     21  C   UNL     1       3.365   4.169  16.988  0.00  0.00    +0.000 A 
ATOM     22  C   UNL     1       3.302   5.381  17.716  0.00  0.00    +0.000 A 
BRANCH  17  24
ATOM     23  C   UNL     1       1.581   6.571  20.730  0.00  0.00    +0.000 C 
ATOM     24  O   UNL     1       2.273   6.650  19.485  0.00  0.00    +0.000 OA
ENDBRANCH  17  24
ENDBRANCH  15  22
ENDBRANCH   1  15
TORSDOF 5
ENDMDL
MODEL 7
REMARK VINA RESULT:      -7.2      3.696      5.242
REMARK  Name = 
REMARK  6 active torsions:
REMARK  status: ('A' for Active; 'I' for Inactive)
REMARK    1  A    between atoms: C_1  and  O_2
REMARK    2  A    between atoms: O_2  and  C_3
REMARK    3  A    between atoms: C_8  and  C_9
REMARK    4  A    between atoms: C_9  and  N_11
REMARK    5  A    between atoms: C_12  and  C_20
REMARK    6  A    between atoms: N_13  and  C_14
REMARK                            x       y       z     vdW  Elec       q    Type
REMARK                         _______ _______ _______ _____ _____    ______ ____
ROOT
ATOM      1  N   UNL     1       5.235   6.216  16.289  0.00  0.00    +0.000 NA
ATOM      2  C   UNL     1       6.462   5.842  16.591  0.00  0.00    +0.000 C 
ATOM      3  N   UNL     1       7.319   5.503  15.532  0.00  0.00    +0.000 N 
ATOM      4  H   UNL     1       8.303   5.385  15.765  0.00  0.00    +0.000 HD
ENDROOT
BRANCH   3   5
ATOM      5  C   UNL     1       6.977   4.891  14.308  0.00  0.00    +0.000 A 
ATOM      6  C   UNL     1       7.670   5.111  13.111  0.00  0.00    +0.000 A 
ATOM      7  C   UNL     1       7.330   4.442  11.936  0.00  0.00    +0.000 A 
ATOM      8  C   UNL     1       6.280   3.532  11.931  0.00  0.00    +0.000 A 
ATOM      9  C   UNL     1       5.576   3.290  13.107  0.00  0.00    +0.000 A 
ATOM     10  C   UNL     1       5.926   3.957  14.286  0.00  0.00    +0.000 A 
ENDBRANCH   3   5
BRANCH   2  11
ATOM     11  C   UNL     1       7.086   5.765  18.044  0.00  0.00    +0.000 C 
ATOM     12 CL   UNL     1       8.312   4.404  18.076  0.00  0.00    +0.000 Cl
ATOM     13 CL   UNL     1       8.003   7.240  18.424  0.00  0.00    +0.000 Cl
ATOM     14 CL   UNL     1       5.868   5.313  19.255  0.00  0.00    +0.000 Cl
ENDBRANCH   2  11
BRANCH   1  15
ATOM     15  C   UNL     1       4.274   6.476  17.215  0.00  0.00    +0.000 C 
ATOM     16  O   UNL     1       4.157   7.558  17.783  0.00  0.00    +0.000 OA
BRANCH  15  22
ATOM     17  C   UNL     1       2.383   5.430  18.654  0.00  0.00    +0.000 A 
ATOM     18  C   UNL     1       1.676   4.267  18.994  0.00  0.00    +0.000 A 
ATOM     19  C   UNL     1       1.859   3.071  18.296  0.00  0.00    +0.000 A 
ATOM     20  C   UNL     1       2.758   3.022  17.243  0.00  0.00    +0.000 A 
ATOM     21  C   UNL     1       3.502   4.152  16.922  0.00  0.00    +0.000 A 
ATOM     22  C   UNL     1       3.353   5.366  17.634  0.00  0.00    +0.000 A 
BRANCH  17  24
ATOM     23  C   UNL     1       1.763   6.495  20.681  0.00  0.00    +0.000 C 
ATOM     24  O   UNL     1       2.168   6.614  19.319  0.00  0.00    +0.000 OA
ENDBRANCH  17  24
ENDBRANCH  15  22
ENDBRANCH   1  15
TORSDOF 5
ENDMDL
MODEL 8
REMARK VINA RESULT:      -7.1      1.370      1.614
REMARK  Name = 
REMARK  6 active torsions:
REMARK  status: ('A' for Active; 'I' for Inactive)
REMARK    1  A    between atoms: C_1  and  O_2
REMARK    2  A    between atoms: O_2  and  C_3
REMARK    3  A    between atoms: C_8  and  C_9
REMARK    4  A    between atoms: C_9  and  N_11
REMARK    5  A    between atoms: C_12  and  C_20
REMARK    6  A    between atoms: N_13  and  C_14
REMARK                            x       y       z     vdW  Elec       q    Type
REMARK                         _______ _______ _______ _____ _____    ______ ____
ROOT
ATOM      1  N   UNL     1       3.587   5.309  19.573  0.00  0.00    +0.000 NA
ATOM      2  C   UNL     1       3.545   4.019  19.307  0.00  0.00    +0.000 C 
ATOM      3  N   UNL     1       4.605   3.473  18.567  0.00  0.00    +0.000 N 
ATOM      4  H   UNL     1       4.646   2.456  18.519  0.00  0.00    +0.000 HD
ENDROOT
BRANCH   3   5
ATOM      5  C   UNL     1       5.354   4.093  17.546  0.00  0.00    +0.000 A 
ATOM      6  C   UNL     1       4.894   4.247  16.232  0.00  0.00    +0.000 A 
ATOM      7  C   UNL     1       5.646   4.914  15.267  0.00  0.00    +0.000 A 
ATOM      8  C   UNL     1       6.887   5.446  15.597  0.00  0.00    +0.000 A 
ATOM      9  C   UNL     1       7.368   5.312  16.896  0.00  0.00    +0.000 A 
ATOM     10  C   UNL     1       6.605   4.649  17.862  0.00  0.00    +0.000 A 
ENDBRANCH   3   5
BRANCH   2  11
ATOM     11  C   UNL     1       2.422   3.005  19.770  0.00  0.00    +0.000 C 
ATOM     12 CL   UNL     1       2.714   1.398  18.940  0.00  0.00    +0.000 Cl
ATOM     13 CL   UNL     1       2.543   2.669  21.512  0.00  0.00    +0.000 Cl
ATOM     14 CL   UNL     1       0.812   3.517  19.222  0.00  0.00    +0.000 Cl
ENDBRANCH   2  11
BRANCH   1  15
ATOM     15  C   UNL     1       2.584   5.988  20.192  0.00  0.00    +0.000 C 
ATOM     16  O   UNL     1       1.961   5.544  21.152  0.00  0.00    +0.000 OA
BRANCH  15  22
ATOM     17  C   UNL     1       1.500   8.342  20.340  0.00  0.00    +0.000 A 
ATOM     18  C   UNL     1       1.066   9.478  19.641  0.00  0.00    +0.000 A 
ATOM     19  C   UNL     1       1.330   9.643  18.279  0.00  0.00    +0.000 A 
ATOM     20  C   UNL     1       2.036   8.667  17.594  0.00  0.00    +0.000 A 
ATOM     21  C   UNL     1       2.434   7.512  18.260  0.00  0.00    +0.000 A 
ATOM     22  C   UNL     1       2.151   7.312  19.633  0.00  0.00    +0.000 A 
BRANCH  17  24
ATOM     23  C   UNL     1       0.547   9.268  22.305  0.00  0.00    +0.000 C 
ATOM     24  O   UNL     1       1.272   8.206  21.689  0.00  0.00    +0.000 OA
ENDBRANCH  17  24
ENDBRANCH  15  22
ENDBRANCH   1  15
TORSDOF 5
ENDMDL
MODEL 9
REMARK VINA RESULT:      -7.1      0.085      1.461
REMARK  Name = 
REMARK  6 active torsions:
REMARK  status: ('A' for Active; 'I' for Inactive)
REMARK    1  A    between atoms: C_1  and  O_2
REMARK    2  A    between atoms: O_2  and  C_3
REMARK    3  A    between atoms: C_8  and  C_9
REMARK    4  A    between atoms: C_9  and  N_11
REMARK    5  A    between atoms: C_12  and  C_20
REMARK    6  A    between atoms: N_13  and  C_14
REMARK                            x       y       z     vdW  Elec       q    Type
REMARK                         _______ _______ _______ _____ _____    ______ ____
ROOT
ATOM      1  N   UNL     1       3.401   5.881  19.883  0.00  0.00    +0.000 NA
ATOM      2  C   UNL     1       3.642   4.826  19.132  0.00  0.00    +0.000 C 
ATOM      3  N   UNL     1       4.980   4.543  18.817  0.00  0.00    +0.000 N 
ATOM      4  H   UNL     1       5.162   3.638  18.387  0.00  0.00    +0.000 HD
ENDROOT
BRANCH   3   5
ATOM      5  C   UNL     1       6.030   5.461  18.610  0.00  0.00    +0.000 A 
ATOM      6  C   UNL     1       7.185   5.510  19.401  0.00  0.00    +0.000 A 
ATOM      7  C   UNL     1       8.222   6.399  19.127  0.00  0.00    +0.000 A 
ATOM      8  C   UNL     1       8.128   7.267  18.046  0.00  0.00    +0.000 A 
ATOM      9  C   UNL     1       6.994   7.238  17.240  0.00  0.00    +0.000 A 
ATOM     10  C   UNL     1       5.959   6.339  17.514  0.00  0.00    +0.000 A 
ENDBRANCH   3   5
BRANCH   2  11
ATOM     11  C   UNL     1       2.563   3.815  18.566  0.00  0.00    +0.000 C 
ATOM     12 CL   UNL     1       1.687   3.052  19.983  0.00  0.00    +0.000 Cl
ATOM     13 CL   UNL     1       1.311   4.670  17.637  0.00  0.00    +0.000 Cl
ATOM     14 CL   UNL     1       3.325   2.455  17.714  0.00  0.00    +0.000 Cl
ENDBRANCH   2  11
BRANCH   1  15
ATOM     15  C   UNL     1       2.152   6.329  20.182  0.00  0.00    +0.000 C 
ATOM     16  O   UNL     1       1.304   5.641  20.742  0.00  0.00    +0.000 OA
BRANCH  15  22
ATOM     17  C   UNL     1       1.140   8.694  20.533  0.00  0.00    +0.000 A 
ATOM     18  C   UNL     1       0.728   9.892  19.933  0.00  0.00    +0.000 A 
ATOM     19  C   UNL     1       0.974  10.157  18.583  0.00  0.00    +0.000 A 
ATOM     20  C   UNL     1       1.640   9.219  17.812  0.00  0.00    +0.000 A 
ATOM     21  C   UNL     1       2.015   8.004  18.378  0.00  0.00    +0.000 A 
ATOM     22  C   UNL     1       1.748   7.705  19.735  0.00  0.00    +0.000 A 
BRANCH  17  24
ATOM     23  C   UNL     1      -0.172   9.151  22.456  0.00  0.00    +0.000 C 
ATOM     24  O   UNL     1       0.929   8.458  21.871  0.00  0.00    +0.000 OA
ENDBRANCH  17  24
ENDBRANCH  15  22
ENDBRANCH   1  15
TORSDOF 5
ENDMDL
