MODEL 1
REMARK VINA RESULT:      -7.6      0.000      0.000
REMARK  Name = 
REMARK  6 active torsions:
REMARK  status: ('A' for Active; 'I' for Inactive)
REMARK    1  A    between atoms: C_1  and  C_2
REMARK    2  A    between atoms: N_3  and  C_4
REMARK    3  A    between atoms: C_4  and  C_5
REMARK    4  A    between atoms: N_16  and  C_17
REMARK    5  A    between atoms: C_17  and  C_18
REMARK    6  A    between atoms: C_18  and  C_20
REMARK                            x       y       z     vdW  Elec       q    Type
REMARK                         _______ _______ _______ _____ _____    ______ ____
ROOT
ATOM      1  C   UNL     1       1.614   9.355  18.002  0.00  0.00    +0.000 C 
ATOM      2  C   UNL     1       1.068   9.314  19.386  0.00  0.00    +0.000 A 
ATOM      3  N   UNL     1       1.335   8.424  20.343  0.00  0.00    +0.000 N 
ATOM      4  C   UNL     1       0.453   8.604  21.407  0.00  0.00    +0.000 A 
ATOM      5  C   UNL     1      -0.302   9.692  21.118  0.00  0.00    +0.000 A 
ATOM      6  N   UNL     1       0.151  10.167  19.902  0.00  0.00    +0.000 N 
ENDROOT
BRANCH   3   7
ATOM      7  C   UNL     1       2.440   7.459  20.375  0.00  0.00    +0.000 C 
BRANCH   7   8
ATOM      8  C   UNL     1       1.978   6.127  19.892  0.00  0.00    +0.000 A 
ATOM      9  C   UNL     1       1.364   5.076  20.546  0.00  0.00    +0.000 A 
ATOM     10  C   UNL     1       1.375   3.994  19.636  0.00  0.00    +0.000 A 
ATOM     11  C   UNL     1       1.039   2.642  19.694  0.00  0.00    +0.000 A 
ATOM     12  C   UNL     1       1.818   1.797  18.911  0.00  0.00    +0.000 A 
ATOM     13  C   UNL     1       2.379   2.280  17.730  0.00  0.00    +0.000 A 
ATOM     14  C   UNL     1       2.327   3.642  17.411  0.00  0.00    +0.000 A 
ATOM     15  C   UNL     1       1.981   4.462  18.477  0.00  0.00    +0.000 A 
ATOM     16  O   UNL     1       2.245   5.792  18.593  0.00  0.00    +0.000 OA
ENDBRANCH   7   8
ENDBRANCH   3   7
BRANCH   6  17
ATOM     17  C   UNL     1      -0.293  11.411  19.269  0.00  0.00    +0.000 C 
BRANCH  17  18
ATOM     18  C   UNL     1      -1.810  11.500  19.140  0.00  0.00    +0.000 C 
ATOM     19  O   UNL     1      -2.549  11.901  20.045  0.00  0.00    +0.000 OA
BRANCH  18  20
ATOM     20  C   UNL     1      -2.428  11.079  17.842  0.00  0.00    +0.000 A 
ATOM     21  C   UNL     1      -3.640  11.616  17.384  0.00  0.00    +0.000 A 
ATOM     22  C   UNL     1      -4.158  11.225  16.144  0.00  0.00    +0.000 A 
ATOM     23  C   UNL     1      -3.477  10.301  15.355  0.00  0.00    +0.000 A 
ATOM     24 BR   UNL     1      -4.157   9.812  13.670  0.00  0.00    +0.000 Br
ATOM     25  C   UNL     1      -2.280   9.745  15.814  0.00  0.00    +0.000 A 
ATOM     26  C   UNL     1      -1.759  10.131  17.057  0.00  0.00    +0.000 A 
ENDBRANCH  18  20
ENDBRANCH  17  18
ENDBRANCH   6  17
TORSDOF 5
ENDMDL
MODEL 2
REMARK VINA RESULT:      -7.6      6.553      8.644
REMARK  Name = 
REMARK  6 active torsions:
REMARK  status: ('A' for Active; 'I' for Inactive)
REMARK    1  A    between atoms: C_1  and  C_2
REMARK    2  A    between atoms: N_3  and  C_4
REMARK    3  A    between atoms: C_4  and  C_5
REMARK    4  A    between atoms: N_16  and  C_17
REMARK    5  A    between atoms: C_17  and  C_18
REMARK    6  A    between atoms: C_18  and  C_20
REMARK                            x       y       z     vdW  Elec       q    Type
REMARK                         _______ _______ _______ _____ _____    ______ ____
ROOT
ATOM      1  C   UNL     1       4.050   7.017  17.348  0.00  0.00    +0.000 C 
ATOM      2  C   UNL     1       5.299   6.269  17.036  0.00  0.00    +0.000 A 
ATOM      3  N   UNL     1       5.413   4.998  16.647  0.00  0.00    +0.000 N 
ATOM      4  C   UNL     1       6.754   4.619  16.680  0.00  0.00    +0.000 A 
ATOM      5  C   UNL     1       7.471   5.721  17.008  0.00  0.00    +0.000 A 
ATOM      6  N   UNL     1       6.560   6.752  17.143  0.00  0.00    +0.000 N 
ENDROOT
BRANCH   3   7
ATOM      7  C   UNL     1       4.348   4.124  16.145  0.00  0.00    +0.000 C 
BRANCH   7   8
ATOM      8  C   UNL     1       3.507   3.633  17.272  0.00  0.00    +0.000 A 
ATOM      9  C   UNL     1       2.156   3.759  17.532  0.00  0.00    +0.000 A 
ATOM     10  C   UNL     1       1.969   3.294  18.854  0.00  0.00    +0.000 A 
ATOM     11  C   UNL     1       0.907   3.262  19.756  0.00  0.00    +0.000 A 
ATOM     12  C   UNL     1       1.253   3.411  21.095  0.00  0.00    +0.000 A 
ATOM     13  C   UNL     1       2.498   2.965  21.535  0.00  0.00    +0.000 A 
ATOM     14  C   UNL     1       3.474   2.539  20.628  0.00  0.00    +0.000 A 
ATOM     15  C   UNL     1       3.219   2.897  19.310  0.00  0.00    +0.000 A 
ATOM     16  O   UNL     1       4.135   2.998  18.308  0.00  0.00    +0.000 OA
ENDBRANCH   7   8
ENDBRANCH   3   7
BRANCH   6  17
ATOM     17  C   UNL     1       6.909   8.158  17.362  0.00  0.00    +0.000 C 
BRANCH  17  18
ATOM     18  C   UNL     1       8.087   8.332  18.315  0.00  0.00    +0.000 C 
ATOM     19  O   UNL     1       8.602   7.398  18.940  0.00  0.00    +0.000 OA
BRANCH  18  20
ATOM     20  C   UNL     1       8.644   9.710  18.494  0.00  0.00    +0.000 A 
ATOM     21  C   UNL     1       8.377  10.746  17.587  0.00  0.00    +0.000 A 
ATOM     22  C   UNL     1       8.884  12.030  17.818  0.00  0.00    +0.000 A 
ATOM     23  C   UNL     1       9.657  12.290  18.947  0.00  0.00    +0.000 A 
ATOM     24 BR   UNL     1      10.300  14.029  19.273  0.00  0.00    +0.000 Br
ATOM     25  C   UNL     1       9.946  11.259  19.843  0.00  0.00    +0.000 A 
ATOM     26  C   UNL     1       9.444   9.970  19.614  0.00  0.00    +0.000 A 
ENDBRANCH  18  20
ENDBRANCH  17  18
ENDBRANCH   6  17
TORSDOF 5
ENDMDL
MODEL 3
REMARK VINA RESULT:      -7.3      3.358      4.593
REMARK  Name = 
REMARK  6 active torsions:
REMARK  status: ('A' for Active; 'I' for Inactive)
REMARK    1  A    between atoms: C_1  and  C_2
REMARK    2  A    between atoms: N_3  and  C_4
REMARK    3  A    between atoms: C_4  and  C_5
REMARK    4  A    between atoms: N_16  and  C_17
REMARK    5  A    between atoms: C_17  and  C_18
REMARK    6  A    between atoms: C_18  and  C_20
REMARK                            x       y       z     vdW  Elec       q    Type
REMARK                         _______ _______ _______ _____ _____    ______ ____
ROOT
ATOM      1  C   UNL     1       1.441   8.303  21.342  0.00  0.00    +0.000 C 
ATOM      2  C   UNL     1       1.729   8.371  19.883  0.00  0.00    +0.000 A 
ATOM      3  N   UNL     1       2.176   7.394  19.092  0.00  0.00    +0.000 N 
ATOM      4  C   UNL     1       2.530   7.922  17.852  0.00  0.00    +0.000 A 
ATOM      5  C   UNL     1       2.198   9.236  17.870  0.00  0.00    +0.000 A 
ATOM      6  N   UNL     1       1.627   9.476  19.106  0.00  0.00    +0.000 N 
ENDROOT
BRANCH   3   7
ATOM      7  C   UNL     1       2.207   5.957  19.387  0.00  0.00    +0.000 C 
BRANCH   7   8
ATOM      8  C   UNL     1       3.448   5.343  18.836  0.00  0.00    +0.000 A 
ATOM      9  C   UNL     1       4.759   5.381  19.267  0.00  0.00    +0.000 A 
ATOM     10  C   UNL     1       5.527   4.810  18.226  0.00  0.00    +0.000 A 
ATOM     11  C   UNL     1       6.887   4.657  17.961  0.00  0.00    +0.000 A 
ATOM     12  C   UNL     1       7.248   4.725  16.620  0.00  0.00    +0.000 A 
ATOM     13  C   UNL     1       6.343   4.311  15.644  0.00  0.00    +0.000 A 
ATOM     14  C   UNL     1       5.019   4.004  15.973  0.00  0.00    +0.000 A 
ATOM     15  C   UNL     1       4.629   4.445  17.231  0.00  0.00    +0.000 A 
ATOM     16  O   UNL     1       3.353   4.665  17.652  0.00  0.00    +0.000 OA
ENDBRANCH   7   8
ENDBRANCH   3   7
BRANCH   6  17
ATOM     17  C   UNL     1       0.999  10.736  19.510  0.00  0.00    +0.000 C 
BRANCH  17  18
ATOM     18  C   UNL     1      -0.524  10.679  19.465  0.00  0.00    +0.000 C 
ATOM     19  O   UNL     1      -1.159  10.112  18.569  0.00  0.00    +0.000 OA
BRANCH  18  20
ATOM     20  C   UNL     1      -1.283  11.344  20.571  0.00  0.00    +0.000 A 
ATOM     21  C   UNL     1      -2.333  12.240  20.321  0.00  0.00    +0.000 A 
ATOM     22  C   UNL     1      -3.043  12.805  21.387  0.00  0.00    +0.000 A 
ATOM     23  C   UNL     1      -2.714  12.484  22.702  0.00  0.00    +0.000 A 
ATOM     24 BR   UNL     1      -3.700  13.215  24.129  0.00  0.00    +0.000 Br
ATOM     25  C   UNL     1      -1.655  11.610  22.960  0.00  0.00    +0.000 A 
ATOM     26  C   UNL     1      -0.939  11.045  21.895  0.00  0.00    +0.000 A 
ENDBRANCH  18  20
ENDBRANCH  17  18
ENDBRANCH   6  17
TORSDOF 5
ENDMDL
MODEL 4
REMARK VINA RESULT:      -7.3      2.059      2.585
REMARK  Name = 
REMARK  6 active torsions:
REMARK  status: ('A' for Active; 'I' for Inactive)
REMARK    1  A    between atoms: C_1  and  C_2
REMARK    2  A    between atoms: N_3  and  C_4
REMARK    3  A    between atoms: C_4  and  C_5
REMARK    4  A    between atoms: N_16  and  C_17
REMARK    5  A    between atoms: C_17  and  C_18
REMARK    6  A    between atoms: C_18  and  C_20
REMARK                            x       y       z     vdW  Elec       q    Type
REMARK                         _______ _______ _______ _____ _____    ______ ____
ROOT
ATOM      1  C   UNL     1       1.587   9.144  17.817  0.00  0.00    +0.000 C 
ATOM      2  C   UNL     1       1.073   9.221  19.211  0.00  0.00    +0.000 A 
ATOM      3  N   UNL     1       1.364   8.415  20.234  0.00  0.00    +0.000 N 
ATOM      4  C   UNL     1       0.506   8.686  21.300  0.00  0.00    +0.000 A 
ATOM      5  C   UNL     1      -0.256   9.746  20.937  0.00  0.00    +0.000 A 
ATOM      6  N   UNL     1       0.167  10.116  19.675  0.00  0.00    +0.000 N 
ENDROOT
BRANCH   3   7
ATOM      7  C   UNL     1       2.469   7.455  20.323  0.00  0.00    +0.000 C 
BRANCH   7   8
ATOM      8  C   UNL     1       2.026   6.111  19.859  0.00  0.00    +0.000 A 
ATOM      9  C   UNL     1       1.428   5.061  20.529  0.00  0.00    +0.000 A 
ATOM     10  C   UNL     1       1.452   3.966  19.634  0.00  0.00    +0.000 A 
ATOM     11  C   UNL     1       1.136   2.610  19.712  0.00  0.00    +0.000 A 
ATOM     12  C   UNL     1       1.925   1.765  18.940  0.00  0.00    +0.000 A 
ATOM     13  C   UNL     1       2.477   2.239  17.751  0.00  0.00    +0.000 A 
ATOM     14  C   UNL     1       2.407   3.595  17.413  0.00  0.00    +0.000 A 
ATOM     15  C   UNL     1       2.050   4.425  18.467  0.00  0.00    +0.000 A 
ATOM     16  O   UNL     1       2.295   5.761  18.565  0.00  0.00    +0.000 OA
ENDBRANCH   7   8
ENDBRANCH   3   7
BRANCH   6  17
ATOM     17  C   UNL     1      -0.292  11.302  18.949  0.00  0.00    +0.000 C 
BRANCH  17  18
ATOM     18  C   UNL     1      -1.604  11.069  18.207  0.00  0.00    +0.000 C 
ATOM     19  O   UNL     1      -1.696  10.384  17.182  0.00  0.00    +0.000 OA
BRANCH  18  20
ATOM     20  C   UNL     1      -2.842  11.705  18.759  0.00  0.00    +0.000 A 
ATOM     21  C   UNL     1      -4.096  11.554  18.147  0.00  0.00    +0.000 A 
ATOM     22  C   UNL     1      -5.233  12.130  18.723  0.00  0.00    +0.000 A 
ATOM     23  C   UNL     1      -5.133  12.857  19.906  0.00  0.00    +0.000 A 
ATOM     24 BR   UNL     1      -6.674  13.594  20.698  0.00  0.00    +0.000 Br
ATOM     25  C   UNL     1      -3.886  13.031  20.511  0.00  0.00    +0.000 A 
ATOM     26  C   UNL     1      -2.742  12.459  19.935  0.00  0.00    +0.000 A 
ENDBRANCH  18  20
ENDBRANCH  17  18
ENDBRANCH   6  17
TORSDOF 5
ENDMDL
MODEL 5
REMARK VINA RESULT:      -7.3      6.915      8.576
REMARK  Name = 
REMARK  6 active torsions:
REMARK  status: ('A' for Active; 'I' for Inactive)
REMARK    1  A    between atoms: C_1  and  C_2
REMARK    2  A    between atoms: N_3  and  C_4
REMARK    3  A    between atoms: C_4  and  C_5
REMARK    4  A    between atoms: N_16  and  C_17
REMARK    5  A    between atoms: C_17  and  C_18
REMARK    6  A    between atoms: C_18  and  C_20
REMARK                            x       y       z     vdW  Elec       q    Type
REMARK                         _______ _______ _______ _____ _____    ______ ____
ROOT
ATOM      1  C   UNL     1       7.039   5.325  15.060  0.00  0.00    +0.000 C 
ATOM      2  C   UNL     1       6.154   5.741  16.181  0.00  0.00    +0.000 A 
ATOM      3  N   UNL     1       5.107   5.083  16.682  0.00  0.00    +0.000 N 
ATOM      4  C   UNL     1       4.414   5.911  17.564  0.00  0.00    +0.000 A 
ATOM      5  C   UNL     1       5.120   7.064  17.665  0.00  0.00    +0.000 A 
ATOM      6  N   UNL     1       6.237   6.907  16.867  0.00  0.00    +0.000 N 
ENDROOT
BRANCH   3   7
ATOM      7  C   UNL     1       4.755   3.676  16.463  0.00  0.00    +0.000 C 
BRANCH   7   8
ATOM      8  C   UNL     1       3.793   3.215  17.503  0.00  0.00    +0.000 A 
ATOM      9  C   UNL     1       2.413   3.145  17.510  0.00  0.00    +0.000 A 
ATOM     10  C   UNL     1       2.047   2.848  18.843  0.00  0.00    +0.000 A 
ATOM     11  C   UNL     1       0.848   2.764  19.550  0.00  0.00    +0.000 A 
ATOM     12  C   UNL     1       0.908   3.160  20.882  0.00  0.00    +0.000 A 
ATOM     13  C   UNL     1       2.097   3.001  21.592  0.00  0.00    +0.000 A 
ATOM     14  C   UNL     1       3.278   2.622  20.944  0.00  0.00    +0.000 A 
ATOM     15  C   UNL     1       3.231   2.740  19.561  0.00  0.00    +0.000 A 
ATOM     16  O   UNL     1       4.296   2.851  18.722  0.00  0.00    +0.000 OA
ENDBRANCH   7   8
ENDBRANCH   3   7
BRANCH   6  17
ATOM     17  C   UNL     1       7.347   7.859  16.780  0.00  0.00    +0.000 C 
BRANCH  17  18
ATOM     18  C   UNL     1       8.077   8.036  18.107  0.00  0.00    +0.000 C 
ATOM     19  O   UNL     1       8.298   7.109  18.893  0.00  0.00    +0.000 OA
BRANCH  18  20
ATOM     20  C   UNL     1       8.550   9.411  18.467  0.00  0.00    +0.000 A 
ATOM     21  C   UNL     1       9.261   9.670  19.648  0.00  0.00    +0.000 A 
ATOM     22  C   UNL     1       9.722  10.963  19.922  0.00  0.00    +0.000 A 
ATOM     23  C   UNL     1       9.477  12.002  19.028  0.00  0.00    +0.000 A 
ATOM     24 BR   UNL     1      10.136  13.729  19.382  0.00  0.00    +0.000 Br
ATOM     25  C   UNL     1       8.750  11.758  17.860  0.00  0.00    +0.000 A 
ATOM     26  C   UNL     1       8.284  10.464  17.583  0.00  0.00    +0.000 A 
ENDBRANCH  18  20
ENDBRANCH  17  18
ENDBRANCH   6  17
TORSDOF 5
ENDMDL
MODEL 6
REMARK VINA RESULT:      -7.2      6.828      8.685
REMARK  Name = 
REMARK  6 active torsions:
REMARK  status: ('A' for Active; 'I' for Inactive)
REMARK    1  A    between atoms: C_1  and  C_2
REMARK    2  A    between atoms: N_3  and  C_4
REMARK    3  A    between atoms: C_4  and  C_5
REMARK    4  A    between atoms: N_16  and  C_17
REMARK    5  A    between atoms: C_17  and  C_18
REMARK    6  A    between atoms: C_18  and  C_20
REMARK                            x       y       z     vdW  Elec       q    Type
REMARK                         _______ _______ _______ _____ _____    ______ ____
ROOT
ATOM      1  C   UNL     1       4.852   7.059  16.358  0.00  0.00    +0.000 C 
ATOM      2  C   UNL     1       6.012   6.455  17.069  0.00  0.00    +0.000 A 
ATOM      3  N   UNL     1       6.221   5.167  17.344  0.00  0.00    +0.000 N 
ATOM      4  C   UNL     1       7.301   5.044  18.217  0.00  0.00    +0.000 A 
ATOM      5  C   UNL     1       7.810   6.288  18.395  0.00  0.00    +0.000 A 
ATOM      6  N   UNL     1       7.051   7.136  17.611  0.00  0.00    +0.000 N 
ENDROOT
BRANCH   3   7
ATOM      7  C   UNL     1       5.529   4.011  16.763  0.00  0.00    +0.000 C 
BRANCH   7   8
ATOM      8  C   UNL     1       4.342   3.650  17.588  0.00  0.00    +0.000 A 
ATOM      9  C   UNL     1       2.997   3.918  17.427  0.00  0.00    +0.000 A 
ATOM     10  C   UNL     1       2.375   3.525  18.635  0.00  0.00    +0.000 A 
ATOM     11  C   UNL     1       1.095   3.631  19.176  0.00  0.00    +0.000 A 
ATOM     12  C   UNL     1       1.038   3.798  20.555  0.00  0.00    +0.000 A 
ATOM     13  C   UNL     1       2.040   3.249  21.353  0.00  0.00    +0.000 A 
ATOM     14  C   UNL     1       3.192   2.695  20.786  0.00  0.00    +0.000 A 
ATOM     15  C   UNL     1       3.383   3.025  19.450  0.00  0.00    +0.000 A 
ATOM     16  O   UNL     1       4.561   2.996  18.769  0.00  0.00    +0.000 OA
ENDBRANCH   7   8
ENDBRANCH   3   7
BRANCH   6  17
ATOM     17  C   UNL     1       7.333   8.557  17.394  0.00  0.00    +0.000 C 
BRANCH  17  18
ATOM     18  C   UNL     1       8.423   9.089  18.318  0.00  0.00    +0.000 C 
ATOM     19  O   UNL     1       8.947   8.418  19.213  0.00  0.00    +0.000 OA
BRANCH  18  20
ATOM     20  C   UNL     1       8.878  10.502  18.120  0.00  0.00    +0.000 A 
ATOM     21  C   UNL     1       8.020  11.503  17.641  0.00  0.00    +0.000 A 
ATOM     22  C   UNL     1       8.477  12.819  17.513  0.00  0.00    +0.000 A 
ATOM     23  C   UNL     1       9.786  13.147  17.859  0.00  0.00    +0.000 A 
ATOM     24 BR   UNL     1      10.382  14.928  17.725  0.00  0.00    +0.000 Br
ATOM     25  C   UNL     1      10.654  12.153  18.316  0.00  0.00    +0.000 A 
ATOM     26  C   UNL     1      10.201  10.832  18.442  0.00  0.00    +0.000 A 
ENDBRANCH  18  20
ENDBRANCH  17  18
ENDBRANCH   6  17
TORSDOF 5
ENDMDL
MODEL 7
REMARK VINA RESULT:      -7.2      3.627      4.907
REMARK  Name = 
REMARK  6 active torsions:
REMARK  status: ('A' for Active; 'I' for Inactive)
REMARK    1  A    between atoms: C_1  and  C_2
REMARK    2  A    between atoms: N_3  and  C_4
REMARK    3  A    between atoms: C_4  and  C_5
REMARK    4  A    between atoms: N_16  and  C_17
REMARK    5  A    between atoms: C_17  and  C_18
REMARK    6  A    between atoms: C_18  and  C_20
REMARK                            x       y       z     vdW  Elec       q    Type
REMARK                         _______ _______ _______ _____ _____    ______ ____
ROOT
ATOM      1  C   UNL     1       1.005   8.082  21.347  0.00  0.00    +0.000 C 
ATOM      2  C   UNL     1       1.539   8.148  19.959  0.00  0.00    +0.000 A 
ATOM      3  N   UNL     1       2.289   7.242  19.329  0.00  0.00    +0.000 N 
ATOM      4  C   UNL     1       2.767   7.780  18.135  0.00  0.00    +0.000 A 
ATOM      5  C   UNL     1       2.210   9.009  18.002  0.00  0.00    +0.000 A 
ATOM      6  N   UNL     1       1.388   9.184  19.100  0.00  0.00    +0.000 N 
ENDROOT
BRANCH   3   7
ATOM      7  C   UNL     1       2.519   5.849  19.726  0.00  0.00    +0.000 C 
BRANCH   7   8
ATOM      8  C   UNL     1       3.706   5.297  19.015  0.00  0.00    +0.000 A 
ATOM      9  C   UNL     1       5.057   5.368  19.293  0.00  0.00    +0.000 A 
ATOM     10  C   UNL     1       5.716   4.859  18.151  0.00  0.00    +0.000 A 
ATOM     11  C   UNL     1       7.041   4.764  17.726  0.00  0.00    +0.000 A 
ATOM     12  C   UNL     1       7.242   4.887  16.356  0.00  0.00    +0.000 A 
ATOM     13  C   UNL     1       6.243   4.472  15.476  0.00  0.00    +0.000 A 
ATOM     14  C   UNL     1       4.976   4.107  15.944  0.00  0.00    +0.000 A 
ATOM     15  C   UNL     1       4.721   4.493  17.254  0.00  0.00    +0.000 A 
ATOM     16  O   UNL     1       3.497   4.654  17.826  0.00  0.00    +0.000 OA
ENDBRANCH   7   8
ENDBRANCH   3   7
BRANCH   6  17
ATOM     17  C   UNL     1       0.485  10.320  19.299  0.00  0.00    +0.000 C 
BRANCH  17  18
ATOM     18  C   UNL     1       1.088  11.405  20.185  0.00  0.00    +0.000 C 
ATOM     19  O   UNL     1       1.268  11.272  21.400  0.00  0.00    +0.000 OA
BRANCH  18  20
ATOM     20  C   UNL     1       1.483  12.697  19.538  0.00  0.00    +0.000 A 
ATOM     21  C   UNL     1       0.895  13.920  19.894  0.00  0.00    +0.000 A 
ATOM     22  C   UNL     1       1.326  15.108  19.294  0.00  0.00    +0.000 A 
ATOM     23  C   UNL     1       2.341  15.088  18.340  0.00  0.00    +0.000 A 
ATOM     24 BR   UNL     1       2.946  16.695  17.568  0.00  0.00    +0.000 Br
ATOM     25  C   UNL     1       2.916  13.872  17.964  0.00  0.00    +0.000 A 
ATOM     26  C   UNL     1       2.484  12.679  18.560  0.00  0.00    +0.000 A 
ENDBRANCH  18  20
ENDBRANCH  17  18
ENDBRANCH   6  17
TORSDOF 5
ENDMDL
MODEL 8
REMARK VINA RESULT:      -7.2      3.031      3.857
REMARK  Name = 
REMARK  6 active torsions:
REMARK  status: ('A' for Active; 'I' for Inactive)
REMARK    1  A    between atoms: C_1  and  C_2
REMARK    2  A    between atoms: N_3  and  C_4
REMARK    3  A    between atoms: C_4  and  C_5
REMARK    4  A    between atoms: N_16  and  C_17
REMARK    5  A    between atoms: C_17  and  C_18
REMARK    6  A    between atoms: C_18  and  C_20
REMARK                            x       y       z     vdW  Elec       q    Type
REMARK                         _______ _______ _______ _____ _____    ______ ____
ROOT
ATOM      1  C   UNL     1       1.027   9.653  18.036  0.00  0.00    +0.000 C 
ATOM      2  C   UNL     1       0.872   9.383  19.491  0.00  0.00    +0.000 A 
ATOM      3  N   UNL     1       1.445   8.414  20.208  0.00  0.00    +0.000 N 
ATOM      4  C   UNL     1       0.866   8.366  21.475  0.00  0.00    +0.000 A 
ATOM      5  C   UNL     1      -0.012   9.396  21.550  0.00  0.00    +0.000 A 
ATOM      6  N   UNL     1       0.067  10.063  20.343  0.00  0.00    +0.000 N 
ENDROOT
BRANCH   3   7
ATOM      7  C   UNL     1       2.583   7.575  19.817  0.00  0.00    +0.000 C 
BRANCH   7   8
ATOM      8  C   UNL     1       2.130   6.180  19.552  0.00  0.00    +0.000 A 
ATOM      9  C   UNL     1       1.673   5.187  20.396  0.00  0.00    +0.000 A 
ATOM     10  C   UNL     1       1.613   4.010  19.616  0.00  0.00    +0.000 A 
ATOM     11  C   UNL     1       1.363   2.662  19.866  0.00  0.00    +0.000 A 
ATOM     12  C   UNL     1       2.068   1.764  19.072  0.00  0.00    +0.000 A 
ATOM     13  C   UNL     1       2.430   2.130  17.777  0.00  0.00    +0.000 A 
ATOM     14  C   UNL     1       2.260   3.444  17.326  0.00  0.00    +0.000 A 
ATOM     15  C   UNL     1       2.023   4.366  18.337  0.00  0.00    +0.000 A 
ATOM     16  O   UNL     1       2.229   5.710  18.271  0.00  0.00    +0.000 OA
ENDBRANCH   7   8
ENDBRANCH   3   7
BRANCH   6  17
ATOM     17  C   UNL     1      -0.614  11.323  20.033  0.00  0.00    +0.000 C 
BRANCH  17  18
ATOM     18  C   UNL     1      -0.697  12.259  21.234  0.00  0.00    +0.000 C 
ATOM     19  O   UNL     1       0.286  12.814  21.736  0.00  0.00    +0.000 OA
BRANCH  18  20
ATOM     20  C   UNL     1      -2.048  12.516  21.828  0.00  0.00    +0.000 A 
ATOM     21  C   UNL     1      -3.108  13.041  21.074  0.00  0.00    +0.000 A 
ATOM     22  C   UNL     1      -4.365  13.223  21.661  0.00  0.00    +0.000 A 
ATOM     23  C   UNL     1      -4.575  12.887  22.996  0.00  0.00    +0.000 A 
ATOM     24 BR   UNL     1      -6.280  13.095  23.766  0.00  0.00    +0.000 Br
ATOM     25  C   UNL     1      -3.520  12.385  23.760  0.00  0.00    +0.000 A 
ATOM     26  C   UNL     1      -2.257  12.203  23.178  0.00  0.00    +0.000 A 
ENDBRANCH  18  20
ENDBRANCH  17  18
ENDBRANCH   6  17
TORSDOF 5
ENDMDL
MODEL 9
REMARK VINA RESULT:      -7.2      3.587      5.106
REMARK  Name = 
REMARK  6 active torsions:
REMARK  status: ('A' for Active; 'I' for Inactive)
REMARK    1  A    between atoms: C_1  and  C_2
REMARK    2  A    between atoms: N_3  and  C_4
REMARK    3  A    between atoms: C_4  and  C_5
REMARK    4  A    between atoms: N_16  and  C_17
REMARK    5  A    between atoms: C_17  and  C_18
REMARK    6  A    between atoms: C_18  and  C_20
REMARK                            x       y       z     vdW  Elec       q    Type
REMARK                         _______ _______ _______ _____ _____    ______ ____
ROOT
ATOM      1  C   UNL     1       2.546   7.926  18.286  0.00  0.00    +0.000 C 
ATOM      2  C   UNL     1       2.232   6.764  19.161  0.00  0.00    +0.000 A 
ATOM      3  N   UNL     1       2.330   5.467  18.863  0.00  0.00    +0.000 N 
ATOM      4  C   UNL     1       1.728   4.710  19.867  0.00  0.00    +0.000 A 
ATOM      5  C   UNL     1       1.342   5.573  20.839  0.00  0.00    +0.000 A 
ATOM      6  N   UNL     1       1.738   6.830  20.421  0.00  0.00    +0.000 N 
ENDROOT
BRANCH   3   7
ATOM      7  C   UNL     1       3.044   4.868  17.730  0.00  0.00    +0.000 C 
BRANCH   7   8
ATOM      8  C   UNL     1       4.499   5.175  17.814  0.00  0.00    +0.000 A 
ATOM      9  C   UNL     1       5.483   4.727  18.674  0.00  0.00    +0.000 A 
ATOM     10  C   UNL     1       6.616   5.533  18.421  0.00  0.00    +0.000 A 
ATOM     11  C   UNL     1       7.873   5.694  19.003  0.00  0.00    +0.000 A 
ATOM     12  C   UNL     1       8.389   6.985  18.967  0.00  0.00    +0.000 A 
ATOM     13  C   UNL     1       8.043   7.833  17.916  0.00  0.00    +0.000 A 
ATOM     14  C   UNL     1       7.048   7.477  17.000  0.00  0.00    +0.000 A 
ATOM     15  C   UNL     1       6.255   6.412  17.408  0.00  0.00    +0.000 A 
ATOM     16  O   UNL     1       5.003   6.118  16.962  0.00  0.00    +0.000 OA
ENDBRANCH   7   8
ENDBRANCH   3   7
BRANCH   6  17
ATOM     17  C   UNL     1       1.642   8.051  21.226  0.00  0.00    +0.000 C 
BRANCH  17  18
ATOM     18  C   UNL     1       0.237   8.643  21.233  0.00  0.00    +0.000 C 
ATOM     19  O   UNL     1      -0.755   8.042  21.661  0.00  0.00    +0.000 OA
BRANCH  18  20
ATOM     20  C   UNL     1       0.059  10.029  20.696  0.00  0.00    +0.000 A 
ATOM     21  C   UNL     1      -0.017  11.151  21.535  0.00  0.00    +0.000 A 
ATOM     22  C   UNL     1      -0.140  12.433  20.985  0.00  0.00    +0.000 A 
ATOM     23  C   UNL     1      -0.188  12.606  19.604  0.00  0.00    +0.000 A 
ATOM     24 BR   UNL     1      -0.309  14.335  18.872  0.00  0.00    +0.000 Br
ATOM     25  C   UNL     1      -0.134  11.492  18.762  0.00  0.00    +0.000 A 
ATOM     26  C   UNL     1      -0.015  10.207  19.308  0.00  0.00    +0.000 A 
ENDBRANCH  18  20
ENDBRANCH  17  18
ENDBRANCH   6  17
TORSDOF 5
ENDMDL
