MODEL 1
REMARK VINA RESULT:      -7.4      0.000      0.000
REMARK  Name = 
REMARK  3 active torsions:
REMARK  status: ('A' for Active; 'I' for Inactive)
REMARK    1  A    between atoms: C_1  and  O_2
REMARK    2  A    between atoms: O_2  and  C_3
REMARK    3  A    between atoms: C_10  and  C_11
REMARK                            x       y       z     vdW  Elec       q    Type
REMARK                         _______ _______ _______ _____ _____    ______ ____
ROOT
ATOM      1  C   UNL     1       7.431   7.214  17.701  0.00  0.00    +0.000 A 
ATOM      2  C   UNL     1       7.851   6.387  18.745  0.00  0.00    +0.000 A 
ATOM      3  C   UNL     1       7.052   5.317  19.156  0.00  0.00    +0.000 A 
ATOM      4  C   UNL     1       5.825   5.089  18.531  0.00  0.00    +0.000 A 
ATOM      5  C   UNL     1       5.379   5.935  17.519  0.00  0.00    +0.000 A 
ATOM      6  C   UNL     1       6.192   6.984  17.093  0.00  0.00    +0.000 A 
ATOM      7  O   UNL     1       4.168   5.798  16.895  0.00  0.00    +0.000 OA
ATOM      8  C   UNL     1       3.181   5.093  17.673  0.00  0.00    +0.000 C 
ATOM      9  C   UNL     1       3.719   3.743  18.140  0.00  0.00    +0.000 C 
ATOM     10  C   UNL     1       4.986   3.942  18.919  0.00  0.00    +0.000 C 
ATOM     11  O   UNL     1       5.336   3.173  19.810  0.00  0.00    +0.000 OA
ENDROOT
BRANCH   8  12
ATOM     12  C   UNL     1       2.560   6.008  18.713  0.00  0.00    +0.000 A 
ATOM     13  C   UNL     1       2.414   7.392  18.568  0.00  0.00    +0.000 A 
ATOM     14  C   UNL     1       1.837   8.145  19.587  0.00  0.00    +0.000 A 
ATOM     15  C   UNL     1       1.428   7.494  20.737  0.00  0.00    +0.000 A 
ATOM     16  N   UNL     1       1.551   6.166  20.924  0.00  0.00    +0.000 NA
ATOM     17  C   UNL     1       2.104   5.456  19.912  0.00  0.00    +0.000 A 
ENDBRANCH   8  12
BRANCH   1  19
ATOM     18  C   UNL     1       8.428   9.315  18.163  0.00  0.00    +0.000 C 
ATOM     19  O   UNL     1       8.116   8.295  17.220  0.00  0.00    +0.000 OA
ENDBRANCH   1  19
TORSDOF 2
ENDMDL
MODEL 2
REMARK VINA RESULT:      -7.3      0.694      1.117
REMARK  Name = 
REMARK  3 active torsions:
REMARK  status: ('A' for Active; 'I' for Inactive)
REMARK    1  A    between atoms: C_1  and  O_2
REMARK    2  A    between atoms: O_2  and  C_3
REMARK    3  A    between atoms: C_10  and  C_11
REMARK                            x       y       z     vdW  Elec       q    Type
REMARK                         _______ _______ _______ _____ _____    ______ ____
ROOT
ATOM      1  C   UNL     1       7.348   7.077  17.634  0.00  0.00    +0.000 A 
ATOM      2  C   UNL     1       7.775   6.226  18.656  0.00  0.00    +0.000 A 
ATOM      3  C   UNL     1       6.951   5.184  19.090  0.00  0.00    +0.000 A 
ATOM      4  C   UNL     1       5.694   5.008  18.510  0.00  0.00    +0.000 A 
ATOM      5  C   UNL     1       5.243   5.878  17.522  0.00  0.00    +0.000 A 
ATOM      6  C   UNL     1       6.079   6.899  17.072  0.00  0.00    +0.000 A 
ATOM      7  O   UNL     1       4.005   5.793  16.944  0.00  0.00    +0.000 OA
ATOM      8  C   UNL     1       3.021   5.120  17.753  0.00  0.00    +0.000 C 
ATOM      9  C   UNL     1       3.524   3.747  18.191  0.00  0.00    +0.000 C 
ATOM     10  C   UNL     1       4.826   3.891  18.923  0.00  0.00    +0.000 C 
ATOM     11  O   UNL     1       5.179   3.103  19.795  0.00  0.00    +0.000 OA
ENDROOT
BRANCH   8  12
ATOM     12  C   UNL     1       2.475   6.050  18.822  0.00  0.00    +0.000 A 
ATOM     13  C   UNL     1       2.068   5.642  20.098  0.00  0.00    +0.000 A 
ATOM     14  C   UNL     1       1.573   6.575  21.005  0.00  0.00    +0.000 A 
ATOM     15  C   UNL     1       1.485   7.897  20.609  0.00  0.00    +0.000 A 
ATOM     16  N   UNL     1       1.860   8.336  19.392  0.00  0.00    +0.000 NA
ATOM     17  C   UNL     1       2.350   7.411  18.534  0.00  0.00    +0.000 A 
ENDBRANCH   8  12
BRANCH   1  19
ATOM     18  C   UNL     1       8.151   9.282  17.972  0.00  0.00    +0.000 C 
ATOM     19  O   UNL     1       8.056   8.135  17.135  0.00  0.00    +0.000 OA
ENDBRANCH   1  19
TORSDOF 2
ENDMDL
MODEL 3
REMARK VINA RESULT:      -6.7      3.135      5.865
REMARK  Name = 
REMARK  3 active torsions:
REMARK  status: ('A' for Active; 'I' for Inactive)
REMARK    1  A    between atoms: C_1  and  O_2
REMARK    2  A    between atoms: O_2  and  C_3
REMARK    3  A    between atoms: C_10  and  C_11
REMARK                            x       y       z     vdW  Elec       q    Type
REMARK                         _______ _______ _______ _____ _____    ______ ____
ROOT
ATOM      1  C   UNL     1       2.798   2.577  18.961  0.00  0.00    +0.000 A 
ATOM      2  C   UNL     1       3.933   2.306  19.727  0.00  0.00    +0.000 A 
ATOM      3  C   UNL     1       4.990   3.219  19.763  0.00  0.00    +0.000 A 
ATOM      4  C   UNL     1       4.912   4.397  19.016  0.00  0.00    +0.000 A 
ATOM      5  C   UNL     1       3.803   4.654  18.216  0.00  0.00    +0.000 A 
ATOM      6  C   UNL     1       2.739   3.753  18.205  0.00  0.00    +0.000 A 
ATOM      7  O   UNL     1       3.681   5.764  17.423  0.00  0.00    +0.000 OA
ATOM      8  C   UNL     1       4.937   6.365  17.053  0.00  0.00    +0.000 C 
ATOM      9  C   UNL     1       5.786   6.656  18.289  0.00  0.00    +0.000 C 
ATOM     10  C   UNL     1       5.996   5.393  19.072  0.00  0.00    +0.000 C 
ATOM     11  O   UNL     1       6.995   5.206  19.758  0.00  0.00    +0.000 OA
ENDROOT
BRANCH   8  12
ATOM     12  C   UNL     1       5.584   5.601  15.912  0.00  0.00    +0.000 A 
ATOM     13  C   UNL     1       4.913   4.701  15.076  0.00  0.00    +0.000 A 
ATOM     14  C   UNL     1       5.601   4.043  14.060  0.00  0.00    +0.000 A 
ATOM     15  C   UNL     1       6.953   4.293  13.911  0.00  0.00    +0.000 A 
ATOM     16  N   UNL     1       7.643   5.147  14.692  0.00  0.00    +0.000 NA
ATOM     17  C   UNL     1       6.947   5.782  15.664  0.00  0.00    +0.000 A 
ENDBRANCH   8  12
BRANCH   1  19
ATOM     18  C   UNL     1       0.438   2.397  18.826  0.00  0.00    +0.000 C 
ATOM     19  O   UNL     1       1.710   1.758  18.837  0.00  0.00    +0.000 OA
ENDBRANCH   1  19
TORSDOF 2
ENDMDL
MODEL 4
REMARK VINA RESULT:      -6.6      2.231      5.598
REMARK  Name = 
REMARK  3 active torsions:
REMARK  status: ('A' for Active; 'I' for Inactive)
REMARK    1  A    between atoms: C_1  and  O_2
REMARK    2  A    between atoms: O_2  and  C_3
REMARK    3  A    between atoms: C_10  and  C_11
REMARK                            x       y       z     vdW  Elec       q    Type
REMARK                         _______ _______ _______ _____ _____    ______ ____
ROOT
ATOM      1  C   UNL     1       1.781   4.638  20.617  0.00  0.00    +0.000 A 
ATOM      2  C   UNL     1       1.520   5.988  20.863  0.00  0.00    +0.000 A 
ATOM      3  C   UNL     1       1.966   6.963  19.968  0.00  0.00    +0.000 A 
ATOM      4  C   UNL     1       2.689   6.584  18.835  0.00  0.00    +0.000 A 
ATOM      5  C   UNL     1       2.991   5.245  18.605  0.00  0.00    +0.000 A 
ATOM      6  C   UNL     1       2.519   4.273  19.486  0.00  0.00    +0.000 A 
ATOM      7  O   UNL     1       3.734   4.807  17.541  0.00  0.00    +0.000 OA
ATOM      8  C   UNL     1       4.612   5.805  16.985  0.00  0.00    +0.000 C 
ATOM      9  C   UNL     1       3.841   7.076  16.637  0.00  0.00    +0.000 C 
ATOM     10  C   UNL     1       3.133   7.591  17.856  0.00  0.00    +0.000 C 
ATOM     11  O   UNL     1       2.895   8.784  18.020  0.00  0.00    +0.000 OA
ENDROOT
BRANCH   8  12
ATOM     12  C   UNL     1       5.869   5.945  17.826  0.00  0.00    +0.000 A 
ATOM     13  C   UNL     1       6.887   6.874  17.584  0.00  0.00    +0.000 A 
ATOM     14  C   UNL     1       8.006   6.917  18.412  0.00  0.00    +0.000 A 
ATOM     15  C   UNL     1       8.086   6.016  19.459  0.00  0.00    +0.000 A 
ATOM     16  N   UNL     1       7.134   5.101  19.728  0.00  0.00    +0.000 NA
ATOM     17  C   UNL     1       6.051   5.091  18.916  0.00  0.00    +0.000 A 
ENDBRANCH   8  12
BRANCH   1  19
ATOM     18  C   UNL     1       2.344   2.533  21.550  0.00  0.00    +0.000 C 
ATOM     19  O   UNL     1       1.409   3.598  21.422  0.00  0.00    +0.000 OA
ENDBRANCH   1  19
TORSDOF 2
ENDMDL
MODEL 5
REMARK VINA RESULT:      -6.6      2.393      3.970
REMARK  Name = 
REMARK  3 active torsions:
REMARK  status: ('A' for Active; 'I' for Inactive)
REMARK    1  A    between atoms: C_1  and  O_2
REMARK    2  A    between atoms: O_2  and  C_3
REMARK    3  A    between atoms: C_10  and  C_11
REMARK                            x       y       z     vdW  Elec       q    Type
REMARK                         _______ _______ _______ _____ _____    ______ ____
ROOT
ATOM      1  C   UNL     1       6.185   5.871  16.309  0.00  0.00    +0.000 A 
ATOM      2  C   UNL     1       5.210   6.637  15.666  0.00  0.00    +0.000 A 
ATOM      3  C   UNL     1       4.061   7.031  16.356  0.00  0.00    +0.000 A 
ATOM      4  C   UNL     1       3.884   6.643  17.685  0.00  0.00    +0.000 A 
ATOM      5  C   UNL     1       4.831   5.844  18.320  0.00  0.00    +0.000 A 
ATOM      6  C   UNL     1       5.989   5.476  17.637  0.00  0.00    +0.000 A 
ATOM      7  O   UNL     1       4.699   5.387  19.605  0.00  0.00    +0.000 OA
ATOM      8  C   UNL     1       3.338   5.326  20.072  0.00  0.00    +0.000 C 
ATOM      9  C   UNL     1       2.638   6.670  19.886  0.00  0.00    +0.000 C 
ATOM     10  C   UNL     1       2.701   7.082  18.445  0.00  0.00    +0.000 C 
ATOM     11  O   UNL     1       1.837   7.782  17.925  0.00  0.00    +0.000 OA
ENDROOT
BRANCH   8  12
ATOM     12  C   UNL     1       2.642   4.084  19.543  0.00  0.00    +0.000 A 
ATOM     13  C   UNL     1       1.254   3.922  19.469  0.00  0.00    +0.000 A 
ATOM     14  C   UNL     1       0.714   2.738  18.974  0.00  0.00    +0.000 A 
ATOM     15  C   UNL     1       1.579   1.735  18.575  0.00  0.00    +0.000 A 
ATOM     16  N   UNL     1       2.921   1.844  18.632  0.00  0.00    +0.000 NA
ATOM     17  C   UNL     1       3.419   3.010  19.104  0.00  0.00    +0.000 A 
ENDBRANCH   8  12
BRANCH   1  19
ATOM     18  C   UNL     1       7.203   4.710  14.510  0.00  0.00    +0.000 C 
ATOM     19  O   UNL     1       7.341   5.416  15.738  0.00  0.00    +0.000 OA
ENDBRANCH   1  19
TORSDOF 2
ENDMDL
MODEL 6
REMARK VINA RESULT:      -6.6      2.229      2.990
REMARK  Name = 
REMARK  3 active torsions:
REMARK  status: ('A' for Active; 'I' for Inactive)
REMARK    1  A    between atoms: C_1  and  O_2
REMARK    2  A    between atoms: O_2  and  C_3
REMARK    3  A    between atoms: C_10  and  C_11
REMARK                            x       y       z     vdW  Elec       q    Type
REMARK                         _______ _______ _______ _____ _____    ______ ____
ROOT
ATOM      1  C   UNL     1       6.346   4.782  14.946  0.00  0.00    +0.000 A 
ATOM      2  C   UNL     1       7.387   5.179  15.788  0.00  0.00    +0.000 A 
ATOM      3  C   UNL     1       7.223   5.136  17.175  0.00  0.00    +0.000 A 
ATOM      4  C   UNL     1       6.008   4.711  17.715  0.00  0.00    +0.000 A 
ATOM      5  C   UNL     1       4.950   4.355  16.883  0.00  0.00    +0.000 A 
ATOM      6  C   UNL     1       5.128   4.372  15.500  0.00  0.00    +0.000 A 
ATOM      7  O   UNL     1       3.718   3.974  17.343  0.00  0.00    +0.000 OA
ATOM      8  C   UNL     1       3.407   4.457  18.664  0.00  0.00    +0.000 C 
ATOM      9  C   UNL     1       4.508   4.083  19.653  0.00  0.00    +0.000 C 
ATOM     10  C   UNL     1       5.826   4.618  19.174  0.00  0.00    +0.000 C 
ATOM     11  O   UNL     1       6.728   4.927  19.946  0.00  0.00    +0.000 OA
ENDROOT
BRANCH   8  12
ATOM     12  C   UNL     1       2.958   5.907  18.616  0.00  0.00    +0.000 A 
ATOM     13  C   UNL     1       3.097   6.745  17.503  0.00  0.00    +0.000 A 
ATOM     14  C   UNL     1       2.659   8.065  17.564  0.00  0.00    +0.000 A 
ATOM     15  C   UNL     1       2.101   8.521  18.745  0.00  0.00    +0.000 A 
ATOM     16  N   UNL     1       1.951   7.754  19.842  0.00  0.00    +0.000 NA
ATOM     17  C   UNL     1       2.373   6.471  19.751  0.00  0.00    +0.000 A 
ENDBRANCH   8  12
BRANCH   1  19
ATOM     18  C   UNL     1       6.114   3.552  12.933  0.00  0.00    +0.000 C 
ATOM     19  O   UNL     1       6.382   4.791  13.579  0.00  0.00    +0.000 OA
ENDBRANCH   1  19
TORSDOF 2
ENDMDL
MODEL 7
REMARK VINA RESULT:      -6.5      2.042      2.353
REMARK  Name = 
REMARK  3 active torsions:
REMARK  status: ('A' for Active; 'I' for Inactive)
REMARK    1  A    between atoms: C_1  and  O_2
REMARK    2  A    between atoms: O_2  and  C_3
REMARK    3  A    between atoms: C_10  and  C_11
REMARK                            x       y       z     vdW  Elec       q    Type
REMARK                         _______ _______ _______ _____ _____    ______ ____
ROOT
ATOM      1  C   UNL     1       6.321   5.058  15.787  0.00  0.00    +0.000 A 
ATOM      2  C   UNL     1       7.101   4.730  16.898  0.00  0.00    +0.000 A 
ATOM      3  C   UNL     1       6.510   4.146  18.022  0.00  0.00    +0.000 A 
ATOM      4  C   UNL     1       5.135   3.908  18.036  0.00  0.00    +0.000 A 
ATOM      5  C   UNL     1       4.343   4.272  16.950  0.00  0.00    +0.000 A 
ATOM      6  C   UNL     1       4.941   4.828  15.820  0.00  0.00    +0.000 A 
ATOM      7  O   UNL     1       2.984   4.111  16.915  0.00  0.00    +0.000 OA
ATOM      8  C   UNL     1       2.364   4.048  18.214  0.00  0.00    +0.000 C 
ATOM      9  C   UNL     1       3.026   2.980  19.082  0.00  0.00    +0.000 C 
ATOM     10  C   UNL     1       4.498   3.255  19.193  0.00  0.00    +0.000 C 
ATOM     11  O   UNL     1       5.154   2.923  20.175  0.00  0.00    +0.000 OA
ENDROOT
BRANCH   8  12
ATOM     12  C   UNL     1       2.200   5.439  18.801  0.00  0.00    +0.000 A 
ATOM     13  C   UNL     1       2.444   6.628  18.106  0.00  0.00    +0.000 A 
ATOM     14  C   UNL     1       2.271   7.857  18.739  0.00  0.00    +0.000 A 
ATOM     15  C   UNL     1       1.868   7.865  20.062  0.00  0.00    +0.000 A 
ATOM     16  N   UNL     1       1.625   6.747  20.773  0.00  0.00    +0.000 NA
ATOM     17  C   UNL     1       1.789   5.567  20.129  0.00  0.00    +0.000 A 
ENDBRANCH   8  12
BRANCH   1  19
ATOM     18  C   UNL     1       7.113   4.761  13.573  0.00  0.00    +0.000 C 
ATOM     19  O   UNL     1       6.780   5.642  14.640  0.00  0.00    +0.000 OA
ENDBRANCH   1  19
TORSDOF 2
ENDMDL
MODEL 8
REMARK VINA RESULT:      -6.5      2.266      3.898
REMARK  Name = 
REMARK  3 active torsions:
REMARK  status: ('A' for Active; 'I' for Inactive)
REMARK    1  A    between atoms: C_1  and  O_2
REMARK    2  A    between atoms: O_2  and  C_3
REMARK    3  A    between atoms: C_10  and  C_11
REMARK                            x       y       z     vdW  Elec       q    Type
REMARK                         _______ _______ _______ _____ _____    ______ ____
ROOT
ATOM      1  C   UNL     1       6.242   5.630  16.260  0.00  0.00    +0.000 A 
ATOM      2  C   UNL     1       5.338   6.457  15.590  0.00  0.00    +0.000 A 
ATOM      3  C   UNL     1       4.215   6.953  16.258  0.00  0.00    +0.000 A 
ATOM      4  C   UNL     1       3.992   6.605  17.591  0.00  0.00    +0.000 A 
ATOM      5  C   UNL     1       4.866   5.747  18.253  0.00  0.00    +0.000 A 
ATOM      6  C   UNL     1       6.000   5.276  17.592  0.00  0.00    +0.000 A 
ATOM      7  O   UNL     1       4.684   5.327  19.544  0.00  0.00    +0.000 OA
ATOM      8  C   UNL     1       3.316   5.382  19.994  0.00  0.00    +0.000 C 
ATOM      9  C   UNL     1       2.726   6.772  19.775  0.00  0.00    +0.000 C 
ATOM     10  C   UNL     1       2.838   7.150  18.327  0.00  0.00    +0.000 C 
ATOM     11  O   UNL     1       2.038   7.906  17.782  0.00  0.00    +0.000 OA
ENDROOT
BRANCH   8  12
ATOM     12  C   UNL     1       2.532   4.188  19.479  0.00  0.00    +0.000 A 
ATOM     13  C   UNL     1       3.015   3.262  18.547  0.00  0.00    +0.000 A 
ATOM     14  C   UNL     1       2.211   2.203  18.132  0.00  0.00    +0.000 A 
ATOM     15  C   UNL     1       0.933   2.103  18.652  0.00  0.00    +0.000 A 
ATOM     16  N   UNL     1       0.424   2.971  19.547  0.00  0.00    +0.000 NA
ATOM     17  C   UNL     1       1.231   3.983  19.943  0.00  0.00    +0.000 A 
ENDBRANCH   8  12
BRANCH   1  19
ATOM     18  C   UNL     1       7.326   4.820  14.314  0.00  0.00    +0.000 C 
ATOM     19  O   UNL     1       7.365   5.075  15.713  0.00  0.00    +0.000 OA
ENDBRANCH   1  19
TORSDOF 2
ENDMDL
MODEL 9
REMARK VINA RESULT:      -6.4      1.994      2.382
REMARK  Name = 
REMARK  3 active torsions:
REMARK  status: ('A' for Active; 'I' for Inactive)
REMARK    1  A    between atoms: C_1  and  O_2
REMARK    2  A    between atoms: O_2  and  C_3
REMARK    3  A    between atoms: C_10  and  C_11
REMARK                            x       y       z     vdW  Elec       q    Type
REMARK                         _______ _______ _______ _____ _____    ______ ____
ROOT
ATOM      1  C   UNL     1       6.657   5.133  16.216  0.00  0.00    +0.000 A 
ATOM      2  C   UNL     1       7.331   4.753  17.379  0.00  0.00    +0.000 A 
ATOM      3  C   UNL     1       6.638   4.127  18.418  0.00  0.00    +0.000 A 
ATOM      4  C   UNL     1       5.266   3.899  18.297  0.00  0.00    +0.000 A 
ATOM      5  C   UNL     1       4.578   4.314  17.159  0.00  0.00    +0.000 A 
ATOM      6  C   UNL     1       5.279   4.913  16.113  0.00  0.00    +0.000 A 
ATOM      7  O   UNL     1       3.227   4.165  16.994  0.00  0.00    +0.000 OA
ATOM      8  C   UNL     1       2.491   4.053  18.226  0.00  0.00    +0.000 C 
ATOM      9  C   UNL     1       3.067   2.945  19.105  0.00  0.00    +0.000 C 
ATOM     10  C   UNL     1       4.523   3.204  19.362  0.00  0.00    +0.000 C 
ATOM     11  O   UNL     1       5.086   2.826  20.384  0.00  0.00    +0.000 OA
ENDROOT
BRANCH   8  12
ATOM     12  C   UNL     1       2.279   5.419  18.854  0.00  0.00    +0.000 A 
ATOM     13  C   UNL     1       1.901   5.632  20.185  0.00  0.00    +0.000 A 
ATOM     14  C   UNL     1       1.725   6.928  20.664  0.00  0.00    +0.000 A 
ATOM     15  C   UNL     1       1.919   7.984  19.792  0.00  0.00    +0.000 A 
ATOM     16  N   UNL     1       2.279   7.828  18.503  0.00  0.00    +0.000 NA
ATOM     17  C   UNL     1       2.456   6.559  18.067  0.00  0.00    +0.000 A 
ENDBRANCH   8  12
BRANCH   1  19
ATOM     18  C   UNL     1       7.287   5.010  13.934  0.00  0.00    +0.000 C 
ATOM     19  O   UNL     1       7.221   5.761  15.141  0.00  0.00    +0.000 OA
ENDBRANCH   1  19
TORSDOF 2
ENDMDL
