MODEL 1
REMARK VINA RESULT:      -7.3      0.000      0.000
REMARK  Name = 
REMARK  7 active torsions:
REMARK  status: ('A' for Active; 'I' for Inactive)
REMARK    1  A    between atoms: C_1  and  O_2
REMARK    2  A    between atoms: O_2  and  C_3
REMARK    3  A    between atoms: C_7  and  C_8
REMARK    4  A    between atoms: C_8  and  C_9
REMARK    5  A    between atoms: C_8  and  N_10
REMARK    6  A    between atoms: N_13  and  S_14
REMARK    7  A    between atoms: S_14  and  C_15
REMARK                            x       y       z     vdW  Elec       q    Type
REMARK                         _______ _______ _______ _____ _____    ______ ____
ROOT
ATOM      1  C   UNL     1       2.473   3.963  19.071  0.00  0.00    +0.000 C 
ATOM      2  C   UNL     1       1.395   3.315  18.179  0.00  0.00    +0.000 C 
ENDROOT
BRANCH   1   7
ATOM      3  C   UNL     1       2.157   7.758  18.429  0.00  0.00    +0.000 A 
ATOM      4  C   UNL     1       1.820   8.211  19.703  0.00  0.00    +0.000 A 
ATOM      5  C   UNL     1       1.695   7.312  20.758  0.00  0.00    +0.000 A 
ATOM      6  C   UNL     1       1.903   5.948  20.542  0.00  0.00    +0.000 A 
ATOM      7  C   UNL     1       2.268   5.461  19.276  0.00  0.00    +0.000 A 
ATOM      8  C   UNL     1       2.388   6.392  18.224  0.00  0.00    +0.000 A 
BRANCH   3  10
ATOM      9  C   UNL     1       1.942  10.064  17.886  0.00  0.00    +0.000 C 
ATOM     10  O   UNL     1       2.228   8.734  17.473  0.00  0.00    +0.000 OA
ENDBRANCH   3  10
ENDBRANCH   1   7
BRANCH   1  11
ATOM     11  N   UNL     1       3.795   3.519  18.598  0.00  0.00    +0.000 NA
ATOM     12  C   UNL     1       4.013   3.406  17.153  0.00  0.00    +0.000 C 
ATOM     13  C   UNL     1       4.553   4.664  16.453  0.00  0.00    +0.000 C 
ATOM     14  N   UNL     1       5.703   5.263  17.169  0.00  0.00    +0.000 NA
ATOM     15  C   UNL     1       5.557   5.375  18.637  0.00  0.00    +0.000 C 
ATOM     16  C   UNL     1       4.959   4.106  19.269  0.00  0.00    +0.000 C 
BRANCH  14  17
ATOM     17  S   UNL     1       7.231   5.261  16.486  0.00  0.00    +0.000 S 
ATOM     18  C   UNL     1       6.895   4.644  14.851  0.00  0.00    +0.000 C 
ATOM     19  O   UNL     1       7.684   6.632  16.359  0.00  0.00    +0.000 OA
ATOM     20  O   UNL     1       8.027   4.269  17.168  0.00  0.00    +0.000 OA
ENDBRANCH  14  17
ENDBRANCH   1  11
TORSDOF 4
ENDMDL
MODEL 2
REMARK VINA RESULT:      -7.3      3.313      5.381
REMARK  Name = 
REMARK  7 active torsions:
REMARK  status: ('A' for Active; 'I' for Inactive)
REMARK    1  A    between atoms: C_1  and  O_2
REMARK    2  A    between atoms: O_2  and  C_3
REMARK    3  A    between atoms: C_7  and  C_8
REMARK    4  A    between atoms: C_8  and  C_9
REMARK    5  A    between atoms: C_8  and  N_10
REMARK    6  A    between atoms: N_13  and  S_14
REMARK    7  A    between atoms: S_14  and  C_15
REMARK                            x       y       z     vdW  Elec       q    Type
REMARK                         _______ _______ _______ _____ _____    ______ ____
ROOT
ATOM      1  C   UNL     1       5.258   4.998  16.306  0.00  0.00    +0.000 C 
ATOM      2  C   UNL     1       5.762   3.661  15.725  0.00  0.00    +0.000 C 
ENDROOT
BRANCH   1   7
ATOM      3  C   UNL     1       7.522   7.768  17.762  0.00  0.00    +0.000 A 
ATOM      4  C   UNL     1       8.226   7.050  18.726  0.00  0.00    +0.000 A 
ATOM      5  C   UNL     1       7.979   5.692  18.910  0.00  0.00    +0.000 A 
ATOM      6  C   UNL     1       7.020   5.044  18.129  0.00  0.00    +0.000 A 
ATOM      7  C   UNL     1       6.310   5.733  17.132  0.00  0.00    +0.000 A 
ATOM      8  C   UNL     1       6.578   7.107  16.965  0.00  0.00    +0.000 A 
BRANCH   3  10
ATOM      9  C   UNL     1       8.771   9.589  18.645  0.00  0.00    +0.000 C 
ATOM     10  O   UNL     1       7.838   9.098  17.692  0.00  0.00    +0.000 OA
ENDBRANCH   3  10
ENDBRANCH   1   7
BRANCH   1  11
ATOM     11  N   UNL     1       3.945   4.768  16.930  0.00  0.00    +0.000 NA
ATOM     12  C   UNL     1       3.574   3.394  17.278  0.00  0.00    +0.000 C 
ATOM     13  C   UNL     1       3.958   2.930  18.693  0.00  0.00    +0.000 C 
ATOM     14  N   UNL     1       3.584   3.914  19.734  0.00  0.00    +0.000 NA
ATOM     15  C   UNL     1       3.903   5.327  19.428  0.00  0.00    +0.000 C 
ATOM     16  C   UNL     1       3.548   5.711  17.980  0.00  0.00    +0.000 C 
BRANCH  14  17
ATOM     17  S   UNL     1       2.396   3.560  20.859  0.00  0.00    +0.000 S 
ATOM     18  C   UNL     1       1.196   2.706  19.860  0.00  0.00    +0.000 C 
ATOM     19  O   UNL     1       2.932   2.611  21.816  0.00  0.00    +0.000 OA
ATOM     20  O   UNL     1       1.798   4.801  21.289  0.00  0.00    +0.000 OA
ENDBRANCH  14  17
ENDBRANCH   1  11
TORSDOF 4
ENDMDL
MODEL 3
REMARK VINA RESULT:      -7.1      1.140      1.682
REMARK  Name = 
REMARK  7 active torsions:
REMARK  status: ('A' for Active; 'I' for Inactive)
REMARK    1  A    between atoms: C_1  and  O_2
REMARK    2  A    between atoms: O_2  and  C_3
REMARK    3  A    between atoms: C_7  and  C_8
REMARK    4  A    between atoms: C_8  and  C_9
REMARK    5  A    between atoms: C_8  and  N_10
REMARK    6  A    between atoms: N_13  and  S_14
REMARK    7  A    between atoms: S_14  and  C_15
REMARK                            x       y       z     vdW  Elec       q    Type
REMARK                         _______ _______ _______ _____ _____    ______ ____
ROOT
ATOM      1  C   UNL     1       2.517   4.234  19.145  0.00  0.00    +0.000 C 
ATOM      2  C   UNL     1       1.544   3.476  18.220  0.00  0.00    +0.000 C 
ENDROOT
BRANCH   1   7
ATOM      3  C   UNL     1       1.745   7.784  20.455  0.00  0.00    +0.000 A 
ATOM      4  C   UNL     1       1.809   8.519  19.273  0.00  0.00    +0.000 A 
ATOM      5  C   UNL     1       2.097   7.885  18.067  0.00  0.00    +0.000 A 
ATOM      6  C   UNL     1       2.327   6.508  18.039  0.00  0.00    +0.000 A 
ATOM      7  C   UNL     1       2.246   5.735  19.209  0.00  0.00    +0.000 A 
ATOM      8  C   UNL     1       1.953   6.400  20.417  0.00  0.00    +0.000 A 
BRANCH   3  10
ATOM      9  C   UNL     1       0.745   9.728  21.393  0.00  0.00    +0.000 C 
ATOM     10  O   UNL     1       1.476   8.523  21.576  0.00  0.00    +0.000 OA
ENDBRANCH   3  10
ENDBRANCH   1   7
BRANCH   1  11
ATOM     11  N   UNL     1       3.890   3.806  18.828  0.00  0.00    +0.000 NA
ATOM     12  C   UNL     1       4.168   3.321  17.473  0.00  0.00    +0.000 C 
ATOM     13  C   UNL     1       4.619   4.384  16.457  0.00  0.00    +0.000 C 
ATOM     14  N   UNL     1       5.684   5.264  16.991  0.00  0.00    +0.000 NA
ATOM     15  C   UNL     1       5.476   5.761  18.369  0.00  0.00    +0.000 C 
ATOM     16  C   UNL     1       4.971   4.663  19.322  0.00  0.00    +0.000 C 
BRANCH  14  17
ATOM     17  S   UNL     1       7.230   5.220  16.352  0.00  0.00    +0.000 S 
ATOM     18  C   UNL     1       6.926   4.601  14.712  0.00  0.00    +0.000 C 
ATOM     19  O   UNL     1       7.720   6.580  16.229  0.00  0.00    +0.000 OA
ATOM     20  O   UNL     1       7.983   4.214  17.062  0.00  0.00    +0.000 OA
ENDBRANCH  14  17
ENDBRANCH   1  11
TORSDOF 4
ENDMDL
MODEL 4
REMARK VINA RESULT:      -7.0      3.459      6.670
REMARK  Name = 
REMARK  7 active torsions:
REMARK  status: ('A' for Active; 'I' for Inactive)
REMARK    1  A    between atoms: C_1  and  O_2
REMARK    2  A    between atoms: O_2  and  C_3
REMARK    3  A    between atoms: C_7  and  C_8
REMARK    4  A    between atoms: C_8  and  C_9
REMARK    5  A    between atoms: C_8  and  N_10
REMARK    6  A    between atoms: N_13  and  S_14
REMARK    7  A    between atoms: S_14  and  C_15
REMARK                            x       y       z     vdW  Elec       q    Type
REMARK                         _______ _______ _______ _____ _____    ______ ____
ROOT
ATOM      1  C   UNL     1       6.056   4.431  16.449  0.00  0.00    +0.000 C 
ATOM      2  C   UNL     1       6.998   5.349  17.253  0.00  0.00    +0.000 C 
ENDROOT
BRANCH   1   7
ATOM      3  C   UNL     1       6.024   3.501  12.701  0.00  0.00    +0.000 A 
ATOM      4  C   UNL     1       7.062   4.299  12.224  0.00  0.00    +0.000 A 
ATOM      5  C   UNL     1       7.766   5.128  13.094  0.00  0.00    +0.000 A 
ATOM      6  C   UNL     1       7.430   5.166  14.449  0.00  0.00    +0.000 A 
ATOM      7  C   UNL     1       6.406   4.356  14.965  0.00  0.00    +0.000 A 
ATOM      8  C   UNL     1       5.708   3.525  14.065  0.00  0.00    +0.000 A 
BRANCH   3  10
ATOM      9  C   UNL     1       4.123   3.201  11.303  0.00  0.00    +0.000 C 
ATOM     10  O   UNL     1       5.395   2.747  11.747  0.00  0.00    +0.000 OA
ENDBRANCH   3  10
ENDBRANCH   1   7
BRANCH   1  11
ATOM     11  N   UNL     1       4.666   4.769  16.800  0.00  0.00    +0.000 NA
ATOM     12  C   UNL     1       3.704   3.674  16.951  0.00  0.00    +0.000 C 
ATOM     13  C   UNL     1       3.569   3.085  18.366  0.00  0.00    +0.000 C 
ATOM     14  N   UNL     1       3.427   4.132  19.404  0.00  0.00    +0.000 NA
ATOM     15  C   UNL     1       4.350   5.283  19.288  0.00  0.00    +0.000 C 
ATOM     16  C   UNL     1       4.485   5.786  17.840  0.00  0.00    +0.000 C 
BRANCH  14  17
ATOM     17  S   UNL     1       1.997   4.301  20.257  0.00  0.00    +0.000 S 
ATOM     18  C   UNL     1       2.274   3.224  21.645  0.00  0.00    +0.000 C 
ATOM     19  O   UNL     1       1.915   5.659  20.758  0.00  0.00    +0.000 OA
ATOM     20  O   UNL     1       0.932   3.728  19.470  0.00  0.00    +0.000 OA
ENDBRANCH  14  17
ENDBRANCH   1  11
TORSDOF 4
ENDMDL
MODEL 5
REMARK VINA RESULT:      -6.9      0.872      1.350
REMARK  Name = 
REMARK  7 active torsions:
REMARK  status: ('A' for Active; 'I' for Inactive)
REMARK    1  A    between atoms: C_1  and  O_2
REMARK    2  A    between atoms: O_2  and  C_3
REMARK    3  A    between atoms: C_7  and  C_8
REMARK    4  A    between atoms: C_8  and  C_9
REMARK    5  A    between atoms: C_8  and  N_10
REMARK    6  A    between atoms: N_13  and  S_14
REMARK    7  A    between atoms: S_14  and  C_15
REMARK                            x       y       z     vdW  Elec       q    Type
REMARK                         _______ _______ _______ _____ _____    ______ ____
ROOT
ATOM      1  C   UNL     1       2.311   4.006  18.873  0.00  0.00    +0.000 C 
ATOM      2  C   UNL     1       1.330   3.584  17.760  0.00  0.00    +0.000 C 
ENDROOT
BRANCH   1   7
ATOM      3  C   UNL     1       2.084   7.861  18.925  0.00  0.00    +0.000 A 
ATOM      4  C   UNL     1       1.679   8.082  20.239  0.00  0.00    +0.000 A 
ATOM      5  C   UNL     1       1.479   7.007  21.102  0.00  0.00    +0.000 A 
ATOM      6  C   UNL     1       1.681   5.701  20.650  0.00  0.00    +0.000 A 
ATOM      7  C   UNL     1       2.113   5.446  19.339  0.00  0.00    +0.000 A 
ATOM      8  C   UNL     1       2.309   6.550  18.485  0.00  0.00    +0.000 A 
BRANCH   3  10
ATOM      9  C   UNL     1       1.116   9.880  18.124  0.00  0.00    +0.000 C 
ATOM     10  O   UNL     1       2.226   8.994  18.170  0.00  0.00    +0.000 OA
ENDBRANCH   3  10
ENDBRANCH   1   7
BRANCH   1  11
ATOM     11  N   UNL     1       3.669   3.604  18.473  0.00  0.00    +0.000 NA
ATOM     12  C   UNL     1       4.089   3.859  17.092  0.00  0.00    +0.000 C 
ATOM     13  C   UNL     1       4.772   5.213  16.836  0.00  0.00    +0.000 C 
ATOM     14  N   UNL     1       5.829   5.513  17.830  0.00  0.00    +0.000 NA
ATOM     15  C   UNL     1       5.476   5.245  19.242  0.00  0.00    +0.000 C 
ATOM     16  C   UNL     1       4.745   3.903  19.423  0.00  0.00    +0.000 C 
BRANCH  14  17
ATOM     17  S   UNL     1       7.438   5.574  17.376  0.00  0.00    +0.000 S 
ATOM     18  C   UNL     1       8.044   6.917  18.373  0.00  0.00    +0.000 C 
ATOM     19  O   UNL     1       8.092   4.360  17.823  0.00  0.00    +0.000 OA
ATOM     20  O   UNL     1       7.502   5.996  15.997  0.00  0.00    +0.000 OA
ENDBRANCH  14  17
ENDBRANCH   1  11
TORSDOF 4
ENDMDL
MODEL 6
REMARK VINA RESULT:      -6.8      3.602      6.631
REMARK  Name = 
REMARK  7 active torsions:
REMARK  status: ('A' for Active; 'I' for Inactive)
REMARK    1  A    between atoms: C_1  and  O_2
REMARK    2  A    between atoms: O_2  and  C_3
REMARK    3  A    between atoms: C_7  and  C_8
REMARK    4  A    between atoms: C_8  and  C_9
REMARK    5  A    between atoms: C_8  and  N_10
REMARK    6  A    between atoms: N_13  and  S_14
REMARK    7  A    between atoms: S_14  and  C_15
REMARK                            x       y       z     vdW  Elec       q    Type
REMARK                         _______ _______ _______ _____ _____    ______ ____
ROOT
ATOM      1  C   UNL     1       5.673   4.824  16.420  0.00  0.00    +0.000 C 
ATOM      2  C   UNL     1       5.768   6.305  16.836  0.00  0.00    +0.000 C 
ENDROOT
BRANCH   1   7
ATOM      3  C   UNL     1       5.848   3.520  12.789  0.00  0.00    +0.000 A 
ATOM      4  C   UNL     1       6.989   4.175  12.331  0.00  0.00    +0.000 A 
ATOM      5  C   UNL     1       7.697   5.027  13.175  0.00  0.00    +0.000 A 
ATOM      6  C   UNL     1       7.262   5.231  14.486  0.00  0.00    +0.000 A 
ATOM      7  C   UNL     1       6.130   4.567  14.987  0.00  0.00    +0.000 A 
ATOM      8  C   UNL     1       5.431   3.710  14.112  0.00  0.00    +0.000 A 
BRANCH   3  10
ATOM      9  C   UNL     1       4.054   3.249  11.250  0.00  0.00    +0.000 C 
ATOM     10  O   UNL     1       5.229   2.729  11.860  0.00  0.00    +0.000 OA
ENDBRANCH   3  10
ENDBRANCH   1   7
BRANCH   1  11
ATOM     11  N   UNL     1       4.348   4.315  16.810  0.00  0.00    +0.000 NA
ATOM     12  C   UNL     1       4.251   2.936  17.296  0.00  0.00    +0.000 C 
ATOM     13  C   UNL     1       4.403   2.745  18.815  0.00  0.00    +0.000 C 
ATOM     14  N   UNL     1       3.576   3.696  19.593  0.00  0.00    +0.000 NA
ATOM     15  C   UNL     1       3.606   5.102  19.130  0.00  0.00    +0.000 C 
ATOM     16  C   UNL     1       3.507   5.221  17.599  0.00  0.00    +0.000 C 
BRANCH  14  17
ATOM     17  S   UNL     1       2.285   3.155  20.511  0.00  0.00    +0.000 S 
ATOM     18  C   UNL     1       1.267   4.611  20.596  0.00  0.00    +0.000 C 
ATOM     19  O   UNL     1       1.564   2.153  19.750  0.00  0.00    +0.000 OA
ATOM     20  O   UNL     1       2.764   2.882  21.844  0.00  0.00    +0.000 OA
ENDBRANCH  14  17
ENDBRANCH   1  11
TORSDOF 4
ENDMDL
MODEL 7
REMARK VINA RESULT:      -6.8      1.849      2.801
REMARK  Name = 
REMARK  7 active torsions:
REMARK  status: ('A' for Active; 'I' for Inactive)
REMARK    1  A    between atoms: C_1  and  O_2
REMARK    2  A    between atoms: O_2  and  C_3
REMARK    3  A    between atoms: C_7  and  C_8
REMARK    4  A    between atoms: C_8  and  C_9
REMARK    5  A    between atoms: C_8  and  N_10
REMARK    6  A    between atoms: N_13  and  S_14
REMARK    7  A    between atoms: S_14  and  C_15
REMARK                            x       y       z     vdW  Elec       q    Type
REMARK                         _______ _______ _______ _____ _____    ______ ____
ROOT
ATOM      1  C   UNL     1       2.785   6.484  19.650  0.00  0.00    +0.000 C 
ATOM      2  C   UNL     1       2.077   5.376  20.455  0.00  0.00    +0.000 C 
ENDROOT
BRANCH   1   7
ATOM      3  C   UNL     1       0.618   9.537  20.599  0.00  0.00    +0.000 A 
ATOM      4  C   UNL     1       0.563  10.208  19.380  0.00  0.00    +0.000 A 
ATOM      5  C   UNL     1       1.214   9.690  18.263  0.00  0.00    +0.000 A 
ATOM      6  C   UNL     1       1.929   8.495  18.363  0.00  0.00    +0.000 A 
ATOM      7  C   UNL     1       1.983   7.781  19.571  0.00  0.00    +0.000 A 
ATOM      8  C   UNL     1       1.316   8.326  20.687  0.00  0.00    +0.000 A 
BRANCH   3  10
ATOM      9  C   UNL     1       0.008   9.524  22.898  0.00  0.00    +0.000 C 
ATOM     10  O   UNL     1      -0.043  10.156  21.626  0.00  0.00    +0.000 OA
ENDBRANCH   3  10
ENDBRANCH   1   7
BRANCH   1  11
ATOM     11  N   UNL     1       3.264   5.906  18.383  0.00  0.00    +0.000 NA
ATOM     12  C   UNL     1       3.965   6.784  17.442  0.00  0.00    +0.000 C 
ATOM     13  C   UNL     1       5.493   6.859  17.601  0.00  0.00    +0.000 C 
ATOM     14  N   UNL     1       6.117   5.522  17.724  0.00  0.00    +0.000 NA
ATOM     15  C   UNL     1       5.437   4.577  18.637  0.00  0.00    +0.000 C 
ATOM     16  C   UNL     1       3.907   4.592  18.468  0.00  0.00    +0.000 C 
BRANCH  14  17
ATOM     17  S   UNL     1       7.122   4.933  16.523  0.00  0.00    +0.000 S 
ATOM     18  C   UNL     1       6.028   3.844  15.639  0.00  0.00    +0.000 C 
ATOM     19  O   UNL     1       7.473   6.025  15.636  0.00  0.00    +0.000 OA
ATOM     20  O   UNL     1       8.138   4.117  17.144  0.00  0.00    +0.000 OA
ENDBRANCH  14  17
ENDBRANCH   1  11
TORSDOF 4
ENDMDL
MODEL 8
REMARK VINA RESULT:      -6.7      3.497      6.691
REMARK  Name = 
REMARK  7 active torsions:
REMARK  status: ('A' for Active; 'I' for Inactive)
REMARK    1  A    between atoms: C_1  and  O_2
REMARK    2  A    between atoms: O_2  and  C_3
REMARK    3  A    between atoms: C_7  and  C_8
REMARK    4  A    between atoms: C_8  and  C_9
REMARK    5  A    between atoms: C_8  and  N_10
REMARK    6  A    between atoms: N_13  and  S_14
REMARK    7  A    between atoms: S_14  and  C_15
REMARK                            x       y       z     vdW  Elec       q    Type
REMARK                         _______ _______ _______ _____ _____    ______ ____
ROOT
ATOM      1  C   UNL     1       5.920   5.178  16.059  0.00  0.00    +0.000 C 
ATOM      2  C   UNL     1       5.016   6.426  16.102  0.00  0.00    +0.000 C 
ENDROOT
BRANCH   1   7
ATOM      3  C   UNL     1       5.947   3.502  12.580  0.00  0.00    +0.000 A 
ATOM      4  C   UNL     1       7.073   4.094  12.013  0.00  0.00    +0.000 A 
ATOM      5  C   UNL     1       7.818   5.021  12.736  0.00  0.00    +0.000 A 
ATOM      6  C   UNL     1       7.435   5.365  14.034  0.00  0.00    +0.000 A 
ATOM      7  C   UNL     1       6.320   4.769  14.644  0.00  0.00    +0.000 A 
ATOM      8  C   UNL     1       5.582   3.833  13.891  0.00  0.00    +0.000 A 
BRANCH   3  10
ATOM      9  C   UNL     1       4.089   3.087  11.154  0.00  0.00    +0.000 C 
ATOM     10  O   UNL     1       5.287   2.624  11.763  0.00  0.00    +0.000 OA
ENDBRANCH   3  10
ENDBRANCH   1   7
BRANCH   1  11
ATOM     11  N   UNL     1       5.325   4.143  16.921  0.00  0.00    +0.000 NA
ATOM     12  C   UNL     1       5.739   4.090  18.326  0.00  0.00    +0.000 C 
ATOM     13  C   UNL     1       4.896   4.922  19.307  0.00  0.00    +0.000 C 
ATOM     14  N   UNL     1       3.441   4.718  19.121  0.00  0.00    +0.000 NA
ATOM     15  C   UNL     1       2.965   4.728  17.719  0.00  0.00    +0.000 C 
ATOM     16  C   UNL     1       3.883   3.926  16.779  0.00  0.00    +0.000 C 
BRANCH  14  17
ATOM     17  S   UNL     1       2.525   3.961  20.300  0.00  0.00    +0.000 S 
ATOM     18  C   UNL     1       1.151   3.347  19.352  0.00  0.00    +0.000 C 
ATOM     19  O   UNL     1       3.266   2.819  20.799  0.00  0.00    +0.000 OA
ATOM     20  O   UNL     1       2.017   4.973  21.194  0.00  0.00    +0.000 OA
ENDBRANCH  14  17
ENDBRANCH   1  11
TORSDOF 4
ENDMDL
MODEL 9
REMARK VINA RESULT:      -6.7      1.415      2.162
REMARK  Name = 
REMARK  7 active torsions:
REMARK  status: ('A' for Active; 'I' for Inactive)
REMARK    1  A    between atoms: C_1  and  O_2
REMARK    2  A    between atoms: O_2  and  C_3
REMARK    3  A    between atoms: C_7  and  C_8
REMARK    4  A    between atoms: C_8  and  C_9
REMARK    5  A    between atoms: C_8  and  N_10
REMARK    6  A    between atoms: N_13  and  S_14
REMARK    7  A    between atoms: S_14  and  C_15
REMARK                            x       y       z     vdW  Elec       q    Type
REMARK                         _______ _______ _______ _____ _____    ______ ____
ROOT
ATOM      1  C   UNL     1       2.296   4.233  19.028  0.00  0.00    +0.000 C 
ATOM      2  C   UNL     1       1.347   3.591  17.997  0.00  0.00    +0.000 C 
ENDROOT
BRANCH   1   7
ATOM      3  C   UNL     1       1.614   7.691  20.607  0.00  0.00    +0.000 A 
ATOM      4  C   UNL     1       1.720   8.515  19.488  0.00  0.00    +0.000 A 
ATOM      5  C   UNL     1       2.008   7.969  18.240  0.00  0.00    +0.000 A 
ATOM      6  C   UNL     1       2.195   6.592  18.105  0.00  0.00    +0.000 A 
ATOM      7  C   UNL     1       2.071   5.732  19.208  0.00  0.00    +0.000 A 
ATOM      8  C   UNL     1       1.779   6.308  20.461  0.00  0.00    +0.000 A 
BRANCH   3  10
ATOM      9  C   UNL     1       0.671   9.592  21.683  0.00  0.00    +0.000 C 
ATOM     10  O   UNL     1       1.350   8.346  21.779  0.00  0.00    +0.000 OA
ENDBRANCH   3  10
ENDBRANCH   1   7
BRANCH   1  11
ATOM     11  N   UNL     1       3.669   3.784  18.739  0.00  0.00    +0.000 NA
ATOM     12  C   UNL     1       4.116   3.779  17.344  0.00  0.00    +0.000 C 
ATOM     13  C   UNL     1       4.789   5.071  16.848  0.00  0.00    +0.000 C 
ATOM     14  N   UNL     1       5.819   5.571  17.788  0.00  0.00    +0.000 NA
ATOM     15  C   UNL     1       5.438   5.570  19.218  0.00  0.00    +0.000 C 
ATOM     16  C   UNL     1       4.718   4.275  19.636  0.00  0.00    +0.000 C 
BRANCH  14  17
ATOM     17  S   UNL     1       7.437   5.571  17.363  0.00  0.00    +0.000 S 
ATOM     18  C   UNL     1       8.071   6.906  18.353  0.00  0.00    +0.000 C 
ATOM     19  O   UNL     1       8.041   4.341  17.838  0.00  0.00    +0.000 OA
ATOM     20  O   UNL     1       7.540   5.971  15.980  0.00  0.00    +0.000 OA
ENDBRANCH  14  17
ENDBRANCH   1  11
TORSDOF 4
ENDMDL
