MODEL 1
REMARK VINA RESULT:      -8.8      0.000      0.000
REMARK  Name = 
REMARK  6 active torsions:
REMARK  status: ('A' for Active; 'I' for Inactive)
REMARK    1  A    between atoms: C_1  and  C_2
REMARK    2  A    between atoms: C_2  and  C_3
REMARK    3  A    between atoms: C_3  and  O_4
REMARK    4  A    between atoms: C_26  and  C_27
REMARK    5  A    between atoms: C_27  and  C_28
REMARK    6  A    between atoms: C_28  and  C_29
REMARK                            x       y       z     vdW  Elec       q    Type
REMARK                         _______ _______ _______ _____ _____    ______ ____
ROOT
ATOM      1  C   UNL     1      -1.466  10.923  18.502  0.00  0.00    +0.000 C 
ATOM      2  C   UNL     1      -2.094  11.849  19.638  0.00  0.00    +0.000 C 
ATOM      3  O   UNL     1      -3.132  12.491  19.477  0.00  0.00    +0.000 OA
ATOM      4  O   UNL     1      -1.565  11.771  20.877  0.00  0.00    +0.000 OA
ATOM      5  C   UNL     1      -0.153  11.712  20.954  0.00  0.00    +0.000 C 
ATOM      6  C   UNL     1       0.406  10.690  20.045  0.00  0.00    +0.000 A 
ATOM      7  C   UNL     1       0.012  10.516  18.762  0.00  0.00    +0.000 A 
ATOM      8  C   UNL     1       0.933   9.659  17.921  0.00  0.00    +0.000 A 
ATOM      9  C   UNL     1       1.713   8.722  18.527  0.00  0.00    +0.000 A 
ATOM     10  N   UNL     1       1.470   8.539  19.872  0.00  0.00    +0.000 N 
ATOM     11  C   UNL     1       0.900   9.449  20.705  0.00  0.00    +0.000 A 
ATOM     12  O   UNL     1       0.728   9.249  21.904  0.00  0.00    +0.000 OA
ATOM     13  C   UNL     1       1.729   7.180  20.277  0.00  0.00    +0.000 C 
ATOM     14  C   UNL     1       2.632   6.682  19.203  0.00  0.00    +0.000 A 
ATOM     15  C   UNL     1       2.740   7.653  18.200  0.00  0.00    +0.000 A 
ATOM     16  N   UNL     1       3.792   7.668  17.358  0.00  0.00    +0.000 NA
ATOM     17  C   UNL     1       4.720   6.643  17.484  0.00  0.00    +0.000 A 
ATOM     18  C   UNL     1       5.932   6.646  16.766  0.00  0.00    +0.000 A 
ATOM     19  C   UNL     1       6.890   5.612  16.833  0.00  0.00    +0.000 A 
ATOM     20  C   UNL     1       6.659   4.509  17.632  0.00  0.00    +0.000 A 
ATOM     21  C   UNL     1       5.500   4.479  18.396  0.00  0.00    +0.000 A 
ATOM     22  C   UNL     1       4.536   5.527  18.358  0.00  0.00    +0.000 A 
ATOM     23  C   UNL     1       3.413   5.527  19.217  0.00  0.00    +0.000 A 
ENDROOT
BRANCH   1  25
ATOM     24  C   UNL     1      -2.615  10.662  16.161  0.00  0.00    +0.000 C 
ATOM     25  C   UNL     1      -1.960  11.568  17.183  0.00  0.00    +0.000 C 
ENDBRANCH   1  25
BRANCH   1  26
ATOM     26  O   UNL     1      -2.208   9.679  18.650  0.00  0.00    +0.000 OA
ATOM     27  H   UNL     1      -3.111   9.844  18.313  0.00  0.00    +0.000 HD
ENDBRANCH   1  26
BRANCH  23  28
ATOM     28  C   UNL     1       3.148   4.379  20.178  0.00  0.00    +0.000 C 
BRANCH  28  29
ATOM     29  C   UNL     1       1.885   3.554  19.929  0.00  0.00    +0.000 C 
BRANCH  29  30
ATOM     30  C   UNL     1       1.383   2.879  21.180  0.00  0.00    +0.000 C 
ATOM     31  O   UNL     1       1.928   2.949  22.270  0.00  0.00    +0.000 OA
ENDBRANCH  29  30
ENDBRANCH  28  29
ENDBRANCH  23  28
TORSDOF 5
ENDMDL
MODEL 2
REMARK VINA RESULT:      -8.6      0.942      1.016
REMARK  Name = 
REMARK  6 active torsions:
REMARK  status: ('A' for Active; 'I' for Inactive)
REMARK    1  A    between atoms: C_1  and  C_2
REMARK    2  A    between atoms: C_2  and  C_3
REMARK    3  A    between atoms: C_3  and  O_4
REMARK    4  A    between atoms: C_26  and  C_27
REMARK    5  A    between atoms: C_27  and  C_28
REMARK    6  A    between atoms: C_28  and  C_29
REMARK                            x       y       z     vdW  Elec       q    Type
REMARK                         _______ _______ _______ _____ _____    ______ ____
ROOT
ATOM      1  C   UNL     1      -1.382  10.917  18.526  0.00  0.00    +0.000 C 
ATOM      2  C   UNL     1      -2.009  11.822  19.679  0.00  0.00    +0.000 C 
ATOM      3  O   UNL     1      -3.039  12.479  19.525  0.00  0.00    +0.000 OA
ATOM      4  O   UNL     1      -1.493  11.708  20.921  0.00  0.00    +0.000 OA
ATOM      5  C   UNL     1      -0.083  11.631  21.009  0.00  0.00    +0.000 C 
ATOM      6  C   UNL     1       0.473  10.625  20.080  0.00  0.00    +0.000 A 
ATOM      7  C   UNL     1       0.089  10.487  18.790  0.00  0.00    +0.000 A 
ATOM      8  C   UNL     1       1.009   9.641  17.936  0.00  0.00    +0.000 A 
ATOM      9  C   UNL     1       1.773   8.680  18.526  0.00  0.00    +0.000 A 
ATOM     10  N   UNL     1       1.515   8.467  19.864  0.00  0.00    +0.000 N 
ATOM     11  C   UNL     1       0.948   9.363  20.714  0.00  0.00    +0.000 A 
ATOM     12  O   UNL     1       0.762   9.135  21.906  0.00  0.00    +0.000 OA
ATOM     13  C   UNL     1       1.756   7.096  20.238  0.00  0.00    +0.000 C 
ATOM     14  C   UNL     1       2.663   6.614  19.160  0.00  0.00    +0.000 A 
ATOM     15  C   UNL     1       2.790   7.607  18.182  0.00  0.00    +0.000 A 
ATOM     16  N   UNL     1       3.851   7.632  17.350  0.00  0.00    +0.000 NA
ATOM     17  C   UNL     1       4.766   6.593  17.459  0.00  0.00    +0.000 A 
ATOM     18  C   UNL     1       5.984   6.600  16.752  0.00  0.00    +0.000 A 
ATOM     19  C   UNL     1       6.930   5.553  16.802  0.00  0.00    +0.000 A 
ATOM     20  C   UNL     1       6.679   4.434  17.572  0.00  0.00    +0.000 A 
ATOM     21  C   UNL     1       5.513   4.399  18.325  0.00  0.00    +0.000 A 
ATOM     22  C   UNL     1       4.561   5.458  18.304  0.00  0.00    +0.000 A 
ATOM     23  C   UNL     1       3.430   5.450  19.153  0.00  0.00    +0.000 A 
ENDROOT
BRANCH   1  25
ATOM     24  C   UNL     1      -2.585  10.743  16.205  0.00  0.00    +0.000 C 
ATOM     25  C   UNL     1      -1.856  11.600  17.219  0.00  0.00    +0.000 C 
ENDBRANCH   1  25
BRANCH   1  26
ATOM     26  O   UNL     1      -2.138   9.678  18.638  0.00  0.00    +0.000 OA
ATOM     27  H   UNL     1      -2.840   9.832  19.301  0.00  0.00    +0.000 HD
ENDBRANCH   1  26
BRANCH  23  28
ATOM     28  C   UNL     1       3.143   4.282  20.083  0.00  0.00    +0.000 C 
BRANCH  28  29
ATOM     29  C   UNL     1       1.915   3.432  19.758  0.00  0.00    +0.000 C 
BRANCH  29  30
ATOM     30  C   UNL     1       2.164   2.474  18.621  0.00  0.00    +0.000 C 
ATOM     31  O   UNL     1       2.001   2.742  17.441  0.00  0.00    +0.000 OA
ENDBRANCH  29  30
ENDBRANCH  28  29
ENDBRANCH  23  28
TORSDOF 5
ENDMDL
MODEL 3
REMARK VINA RESULT:      -8.1      1.071      1.237
REMARK  Name = 
REMARK  6 active torsions:
REMARK  status: ('A' for Active; 'I' for Inactive)
REMARK    1  A    between atoms: C_1  and  C_2
REMARK    2  A    between atoms: C_2  and  C_3
REMARK    3  A    between atoms: C_3  and  O_4
REMARK    4  A    between atoms: C_26  and  C_27
REMARK    5  A    between atoms: C_27  and  C_28
REMARK    6  A    between atoms: C_28  and  C_29
REMARK                            x       y       z     vdW  Elec       q    Type
REMARK                         _______ _______ _______ _____ _____    ______ ____
ROOT
ATOM      1  C   UNL     1      -0.814  11.163  19.205  0.00  0.00    +0.000 C 
ATOM      2  C   UNL     1      -1.373  11.763  20.572  0.00  0.00    +0.000 C 
ATOM      3  O   UNL     1      -2.292  12.582  20.614  0.00  0.00    +0.000 OA
ATOM      4  O   UNL     1      -0.948  11.206  21.725  0.00  0.00    +0.000 OA
ATOM      5  C   UNL     1       0.431  10.897  21.801  0.00  0.00    +0.000 C 
ATOM      6  C   UNL     1       0.893  10.146  20.616  0.00  0.00    +0.000 A 
ATOM      7  C   UNL     1       0.567  10.460  19.341  0.00  0.00    +0.000 A 
ATOM      8  C   UNL     1       1.406   9.783  18.280  0.00  0.00    +0.000 A 
ATOM      9  C   UNL     1       1.996   8.587  18.556  0.00  0.00    +0.000 A 
ATOM     10  N   UNL     1       1.637   8.023  19.763  0.00  0.00    +0.000 N 
ATOM     11  C   UNL     1       1.153   8.696  20.839  0.00  0.00    +0.000 A 
ATOM     12  O   UNL     1       0.871   8.151  21.902  0.00  0.00    +0.000 OA
ATOM     13  C   UNL     1       1.665   6.583  19.702  0.00  0.00    +0.000 C 
ATOM     14  C   UNL     1       2.555   6.318  18.539  0.00  0.00    +0.000 A 
ATOM     15  C   UNL     1       2.874   7.529  17.912  0.00  0.00    +0.000 A 
ATOM     16  N   UNL     1       3.972   7.644  17.139  0.00  0.00    +0.000 NA
ATOM     17  C   UNL     1       4.727   6.497  16.937  0.00  0.00    +0.000 A 
ATOM     18  C   UNL     1       5.972   6.535  16.279  0.00  0.00    +0.000 A 
ATOM     19  C   UNL     1       6.760   5.393  16.017  0.00  0.00    +0.000 A 
ATOM     20  C   UNL     1       6.314   4.145  16.406  0.00  0.00    +0.000 A 
ATOM     21  C   UNL     1       5.115   4.058  17.099  0.00  0.00    +0.000 A 
ATOM     22  C   UNL     1       4.321   5.204  17.392  0.00  0.00    +0.000 A 
ATOM     23  C   UNL     1       3.154   5.109  18.185  0.00  0.00    +0.000 A 
ENDROOT
BRANCH   1  25
ATOM     24  C   UNL     1      -0.239  13.505  18.179  0.00  0.00    +0.000 C 
ATOM     25  C   UNL     1      -1.115  12.270  18.163  0.00  0.00    +0.000 C 
ENDBRANCH   1  25
BRANCH   1  26
ATOM     26  O   UNL     1      -1.739  10.075  18.924  0.00  0.00    +0.000 OA
ATOM     27  H   UNL     1      -1.488   9.705  18.055  0.00  0.00    +0.000 HD
ENDBRANCH   1  26
BRANCH  23  28
ATOM     28  C   UNL     1       2.657   3.772  18.711  0.00  0.00    +0.000 C 
BRANCH  28  29
ATOM     29  C   UNL     1       3.141   3.360  20.102  0.00  0.00    +0.000 C 
BRANCH  29  30
ATOM     30  C   UNL     1       2.002   3.140  21.064  0.00  0.00    +0.000 C 
ATOM     31  O   UNL     1       2.131   3.000  22.270  0.00  0.00    +0.000 OA
ENDBRANCH  29  30
ENDBRANCH  28  29
ENDBRANCH  23  28
TORSDOF 5
ENDMDL
MODEL 4
REMARK VINA RESULT:      -7.9      2.169      8.133
REMARK  Name = 
REMARK  6 active torsions:
REMARK  status: ('A' for Active; 'I' for Inactive)
REMARK    1  A    between atoms: C_1  and  C_2
REMARK    2  A    between atoms: C_2  and  C_3
REMARK    3  A    between atoms: C_3  and  O_4
REMARK    4  A    between atoms: C_26  and  C_27
REMARK    5  A    between atoms: C_27  and  C_28
REMARK    6  A    between atoms: C_28  and  C_29
REMARK                            x       y       z     vdW  Elec       q    Type
REMARK                         _______ _______ _______ _____ _____    ______ ____
ROOT
ATOM      1  C   UNL     1       2.371   3.728  19.318  0.00  0.00    +0.000 C 
ATOM      2  C   UNL     1       3.714   3.194  18.644  0.00  0.00    +0.000 C 
ATOM      3  O   UNL     1       3.902   2.006  18.383  0.00  0.00    +0.000 OA
ATOM      4  O   UNL     1       4.588   4.108  18.174  0.00  0.00    +0.000 OA
ATOM      5  C   UNL     1       4.814   5.240  18.994  0.00  0.00    +0.000 C 
ATOM      6  C   UNL     1       3.548   5.858  19.439  0.00  0.00    +0.000 A 
ATOM      7  C   UNL     1       2.484   5.163  19.905  0.00  0.00    +0.000 A 
ATOM      8  C   UNL     1       1.438   5.995  20.614  0.00  0.00    +0.000 A 
ATOM      9  C   UNL     1       1.304   7.313  20.299  0.00  0.00    +0.000 A 
ATOM     10  N   UNL     1       2.060   7.737  19.226  0.00  0.00    +0.000 N 
ATOM     11  C   UNL     1       3.193   7.141  18.769  0.00  0.00    +0.000 A 
ATOM     12  O   UNL     1       3.846   7.573  17.824  0.00  0.00    +0.000 OA
ATOM     13  C   UNL     1       1.410   8.807  18.511  0.00  0.00    +0.000 C 
ATOM     14  C   UNL     1       0.456   9.346  19.519  0.00  0.00    +0.000 A 
ATOM     15  C   UNL     1       0.475   8.533  20.658  0.00  0.00    +0.000 A 
ATOM     16  N   UNL     1       0.069   9.002  21.854  0.00  0.00    +0.000 NA
ATOM     17  C   UNL     1      -0.433  10.296  21.890  0.00  0.00    +0.000 A 
ATOM     18  C   UNL     1      -0.740  10.940  23.104  0.00  0.00    +0.000 A 
ATOM     19  C   UNL     1      -1.285  12.240  23.191  0.00  0.00    +0.000 A 
ATOM     20  C   UNL     1      -1.556  12.952  22.039  0.00  0.00    +0.000 A 
ATOM     21  C   UNL     1      -1.230  12.380  20.817  0.00  0.00    +0.000 A 
ATOM     22  C   UNL     1      -0.656  11.080  20.715  0.00  0.00    +0.000 A 
ATOM     23  C   UNL     1      -0.238  10.555  19.470  0.00  0.00    +0.000 A 
ENDROOT
BRANCH   1  25
ATOM     24  C   UNL     1       1.662   2.683  21.614  0.00  0.00    +0.000 C 
ATOM     25  C   UNL     1       1.850   2.510  20.122  0.00  0.00    +0.000 C 
ENDBRANCH   1  25
BRANCH   1  26
ATOM     26  O   UNL     1       1.475   3.880  18.180  0.00  0.00    +0.000 OA
ATOM     27  H   UNL     1       2.026   3.828  17.375  0.00  0.00    +0.000 HD
ENDBRANCH   1  26
BRANCH  23  28
ATOM     28  C   UNL     1      -0.436  11.327  18.175  0.00  0.00    +0.000 C 
BRANCH  28  29
ATOM     29  C   UNL     1      -1.843  11.312  17.577  0.00  0.00    +0.000 C 
BRANCH  29  30
ATOM     30  C   UNL     1      -2.299   9.922  17.215  0.00  0.00    +0.000 C 
ATOM     31  O   UNL     1      -3.330   9.406  17.614  0.00  0.00    +0.000 OA
ENDBRANCH  29  30
ENDBRANCH  28  29
ENDBRANCH  23  28
TORSDOF 5
ENDMDL
MODEL 5
REMARK VINA RESULT:      -7.9      2.413      8.213
REMARK  Name = 
REMARK  6 active torsions:
REMARK  status: ('A' for Active; 'I' for Inactive)
REMARK    1  A    between atoms: C_1  and  C_2
REMARK    2  A    between atoms: C_2  and  C_3
REMARK    3  A    between atoms: C_3  and  O_4
REMARK    4  A    between atoms: C_26  and  C_27
REMARK    5  A    between atoms: C_27  and  C_28
REMARK    6  A    between atoms: C_28  and  C_29
REMARK                            x       y       z     vdW  Elec       q    Type
REMARK                         _______ _______ _______ _____ _____    ______ ____
ROOT
ATOM      1  C   UNL     1       2.657   4.626  19.345  0.00  0.00    +0.000 C 
ATOM      2  C   UNL     1       3.855   4.110  18.428  0.00  0.00    +0.000 C 
ATOM      3  O   UNL     1       4.156   2.920  18.331  0.00  0.00    +0.000 OA
ATOM      4  O   UNL     1       4.430   4.994  17.587  0.00  0.00    +0.000 OA
ATOM      5  C   UNL     1       4.673   6.288  18.106  0.00  0.00    +0.000 C 
ATOM      6  C   UNL     1       3.479   6.848  18.772  0.00  0.00    +0.000 A 
ATOM      7  C   UNL     1       2.688   6.155  19.624  0.00  0.00    +0.000 A 
ATOM      8  C   UNL     1       1.735   7.000  20.442  0.00  0.00    +0.000 A 
ATOM      9  C   UNL     1       1.323   8.204  19.957  0.00  0.00    +0.000 A 
ATOM     10  N   UNL     1       1.710   8.475  18.660  0.00  0.00    +0.000 N 
ATOM     11  C   UNL     1       2.770   7.920  18.017  0.00  0.00    +0.000 A 
ATOM     12  O   UNL     1       3.090   8.214  16.870  0.00  0.00    +0.000 OA
ATOM     13  C   UNL     1       0.742   9.299  17.981  0.00  0.00    +0.000 C 
ATOM     14  C   UNL     1      -0.001   9.931  19.106  0.00  0.00    +0.000 A 
ATOM     15  C   UNL     1       0.429   9.377  20.317  0.00  0.00    +0.000 A 
ATOM     16  N   UNL     1       0.267  10.037  21.481  0.00  0.00    +0.000 NA
ATOM     17  C   UNL     1      -0.406  11.250  21.432  0.00  0.00    +0.000 A 
ATOM     18  C   UNL     1      -0.495  12.095  22.556  0.00  0.00    +0.000 A 
ATOM     19  C   UNL     1      -1.198  13.320  22.568  0.00  0.00    +0.000 A 
ATOM     20  C   UNL     1      -1.857  13.746  21.432  0.00  0.00    +0.000 A 
ATOM     21  C   UNL     1      -1.761  12.972  20.283  0.00  0.00    +0.000 A 
ATOM     22  C   UNL     1      -1.036  11.747  20.249  0.00  0.00    +0.000 A 
ATOM     23  C   UNL     1      -0.866  11.024  19.046  0.00  0.00    +0.000 A 
ENDROOT
BRANCH   1  25
ATOM     24  C   UNL     1       1.167   3.179  20.943  0.00  0.00    +0.000 C 
ATOM     25  C   UNL     1       2.552   3.552  20.457  0.00  0.00    +0.000 C 
ENDBRANCH   1  25
BRANCH   1  26
ATOM     26  O   UNL     1       1.492   4.445  18.491  0.00  0.00    +0.000 OA
ATOM     27  H   UNL     1       1.364   3.481  18.386  0.00  0.00    +0.000 HD
ENDBRANCH   1  26
BRANCH  23  28
ATOM     28  C   UNL     1      -1.500  11.487  17.744  0.00  0.00    +0.000 C 
BRANCH  28  29
ATOM     29  C   UNL     1      -2.557  10.568  17.131  0.00  0.00    +0.000 C 
BRANCH  29  30
ATOM     30  C   UNL     1      -2.918  10.965  15.723  0.00  0.00    +0.000 C 
ATOM     31  O   UNL     1      -2.604  10.337  14.724  0.00  0.00    +0.000 OA
ENDBRANCH  29  30
ENDBRANCH  28  29
ENDBRANCH  23  28
TORSDOF 5
ENDMDL
MODEL 6
REMARK VINA RESULT:      -7.8      1.212      1.277
REMARK  Name = 
REMARK  6 active torsions:
REMARK  status: ('A' for Active; 'I' for Inactive)
REMARK    1  A    between atoms: C_1  and  C_2
REMARK    2  A    between atoms: C_2  and  C_3
REMARK    3  A    between atoms: C_3  and  O_4
REMARK    4  A    between atoms: C_26  and  C_27
REMARK    5  A    between atoms: C_27  and  C_28
REMARK    6  A    between atoms: C_28  and  C_29
REMARK                            x       y       z     vdW  Elec       q    Type
REMARK                         _______ _______ _______ _____ _____    ______ ____
ROOT
ATOM      1  C   UNL     1      -0.910  10.983  18.988  0.00  0.00    +0.000 C 
ATOM      2  C   UNL     1      -1.419  11.675  20.331  0.00  0.00    +0.000 C 
ATOM      3  O   UNL     1      -2.370  12.456  20.360  0.00  0.00    +0.000 OA
ATOM      4  O   UNL     1      -0.905  11.237  21.499  0.00  0.00    +0.000 OA
ATOM      5  C   UNL     1       0.489  10.992  21.519  0.00  0.00    +0.000 C 
ATOM      6  C   UNL     1       0.919  10.162  20.375  0.00  0.00    +0.000 A 
ATOM      7  C   UNL     1       0.507  10.352  19.100  0.00  0.00    +0.000 A 
ATOM      8  C   UNL     1       1.316   9.620  18.051  0.00  0.00    +0.000 A 
ATOM      9  C   UNL     1       1.975   8.478  18.390  0.00  0.00    +0.000 A 
ATOM     10  N   UNL     1       1.710   8.005  19.659  0.00  0.00    +0.000 N 
ATOM     11  C   UNL     1       1.256   8.748  20.703  0.00  0.00    +0.000 A 
ATOM     12  O   UNL     1       1.060   8.285  21.823  0.00  0.00    +0.000 OA
ATOM     13  C   UNL     1       1.800   6.568  19.718  0.00  0.00    +0.000 C 
ATOM     14  C   UNL     1       2.635   6.240  18.529  0.00  0.00    +0.000 A 
ATOM     15  C   UNL     1       2.862   7.404  17.786  0.00  0.00    +0.000 A 
ATOM     16  N   UNL     1       3.909   7.498  16.942  0.00  0.00    +0.000 NA
ATOM     17  C   UNL     1       4.703   6.369  16.791  0.00  0.00    +0.000 A 
ATOM     18  C   UNL     1       5.906   6.401  16.060  0.00  0.00    +0.000 A 
ATOM     19  C   UNL     1       6.730   5.274  15.848  0.00  0.00    +0.000 A 
ATOM     20  C   UNL     1       6.364   4.047  16.365  0.00  0.00    +0.000 A 
ATOM     21  C   UNL     1       5.210   3.971  17.133  0.00  0.00    +0.000 A 
ATOM     22  C   UNL     1       4.383   5.105  17.377  0.00  0.00    +0.000 A 
ATOM     23  C   UNL     1       3.267   5.031  18.243  0.00  0.00    +0.000 A 
ENDROOT
BRANCH   1  25
ATOM     24  C   UNL     1      -2.384  11.542  16.895  0.00  0.00    +0.000 C 
ATOM     25  C   UNL     1      -1.319  11.983  17.878  0.00  0.00    +0.000 C 
ENDBRANCH   1  25
BRANCH   1  26
ATOM     26  O   UNL     1      -1.799   9.838  18.855  0.00  0.00    +0.000 OA
ATOM     27  H   UNL     1      -2.088   9.596  19.757  0.00  0.00    +0.000 HD
ENDBRANCH   1  26
BRANCH  23  28
ATOM     28  C   UNL     1       2.862   3.725  18.908  0.00  0.00    +0.000 C 
BRANCH  28  29
ATOM     29  C   UNL     1       3.279   3.541  20.367  0.00  0.00    +0.000 C 
BRANCH  29  30
ATOM     30  C   UNL     1       4.015   2.246  20.596  0.00  0.00    +0.000 C 
ATOM     31  O   UNL     1       5.167   2.033  20.251  0.00  0.00    +0.000 OA
ENDBRANCH  29  30
ENDBRANCH  28  29
ENDBRANCH  23  28
TORSDOF 5
ENDMDL
MODEL 7
REMARK VINA RESULT:      -7.6      2.329      4.123
REMARK  Name = 
REMARK  6 active torsions:
REMARK  status: ('A' for Active; 'I' for Inactive)
REMARK    1  A    between atoms: C_1  and  C_2
REMARK    2  A    between atoms: C_2  and  C_3
REMARK    3  A    between atoms: C_3  and  O_4
REMARK    4  A    between atoms: C_26  and  C_27
REMARK    5  A    between atoms: C_27  and  C_28
REMARK    6  A    between atoms: C_28  and  C_29
REMARK                            x       y       z     vdW  Elec       q    Type
REMARK                         _______ _______ _______ _____ _____    ______ ____
ROOT
ATOM      1  C   UNL     1       0.275  10.946  21.254  0.00  0.00    +0.000 C 
ATOM      2  C   UNL     1      -0.226  12.294  20.566  0.00  0.00    +0.000 C 
ATOM      3  O   UNL     1      -0.565  13.286  21.212  0.00  0.00    +0.000 OA
ATOM      4  O   UNL     1      -0.087  12.408  19.229  0.00  0.00    +0.000 OA
ATOM      5  C   UNL     1      -0.416  11.263  18.464  0.00  0.00    +0.000 C 
ATOM      6  C   UNL     1       0.233  10.044  18.990  0.00  0.00    +0.000 A 
ATOM      7  C   UNL     1       0.286   9.716  20.302  0.00  0.00    +0.000 A 
ATOM      8  C   UNL     1       0.689   8.286  20.587  0.00  0.00    +0.000 A 
ATOM      9  C   UNL     1       1.458   7.614  19.686  0.00  0.00    +0.000 A 
ATOM     10  N   UNL     1       1.932   8.377  18.639  0.00  0.00    +0.000 N 
ATOM     11  C   UNL     1       1.378   9.533  18.186  0.00  0.00    +0.000 A 
ATOM     12  O   UNL     1       1.823  10.163  17.231  0.00  0.00    +0.000 OA
ATOM     13  C   UNL     1       3.210   7.902  18.174  0.00  0.00    +0.000 C 
ATOM     14  C   UNL     1       3.240   6.497  18.667  0.00  0.00    +0.000 A 
ATOM     15  C   UNL     1       2.120   6.265  19.475  0.00  0.00    +0.000 A 
ATOM     16  N   UNL     1       1.663   5.015  19.686  0.00  0.00    +0.000 NA
ATOM     17  C   UNL     1       2.389   3.972  19.130  0.00  0.00    +0.000 A 
ATOM     18  C   UNL     1       1.920   2.644  19.155  0.00  0.00    +0.000 A 
ATOM     19  C   UNL     1       2.637   1.544  18.635  0.00  0.00    +0.000 A 
ATOM     20  C   UNL     1       3.881   1.740  18.067  0.00  0.00    +0.000 A 
ATOM     21  C   UNL     1       4.369   3.036  17.976  0.00  0.00    +0.000 A 
ATOM     22  C   UNL     1       3.646   4.158  18.473  0.00  0.00    +0.000 A 
ATOM     23  C   UNL     1       4.112   5.480  18.282  0.00  0.00    +0.000 A 
ENDROOT
BRANCH   1  25
ATOM     24  C   UNL     1      -0.428   9.662  23.428  0.00  0.00    +0.000 C 
ATOM     25  C   UNL     1      -0.423  10.954  22.637  0.00  0.00    +0.000 C 
ENDBRANCH   1  25
BRANCH   1  26
ATOM     26  O   UNL     1       1.684  11.212  21.505  0.00  0.00    +0.000 OA
ATOM     27  H   UNL     1       1.736  12.092  21.930  0.00  0.00    +0.000 HD
ENDBRANCH   1  26
BRANCH  23  28
ATOM     28  C   UNL     1       5.436   5.763  17.590  0.00  0.00    +0.000 C 
BRANCH  28  29
ATOM     29  C   UNL     1       6.683   5.769  18.475  0.00  0.00    +0.000 C 
BRANCH  29  30
ATOM     30  C   UNL     1       7.736   4.805  17.991  0.00  0.00    +0.000 C 
ATOM     31  O   UNL     1       7.836   4.410  16.840  0.00  0.00    +0.000 OA
ENDBRANCH  29  30
ENDBRANCH  28  29
ENDBRANCH  23  28
TORSDOF 5
ENDMDL
MODEL 8
REMARK VINA RESULT:      -7.6      2.265      4.137
REMARK  Name = 
REMARK  6 active torsions:
REMARK  status: ('A' for Active; 'I' for Inactive)
REMARK    1  A    between atoms: C_1  and  C_2
REMARK    2  A    between atoms: C_2  and  C_3
REMARK    3  A    between atoms: C_3  and  O_4
REMARK    4  A    between atoms: C_26  and  C_27
REMARK    5  A    between atoms: C_27  and  C_28
REMARK    6  A    between atoms: C_28  and  C_29
REMARK                            x       y       z     vdW  Elec       q    Type
REMARK                         _______ _______ _______ _____ _____    ______ ____
ROOT
ATOM      1  C   UNL     1       0.035  11.642  21.106  0.00  0.00    +0.000 C 
ATOM      2  C   UNL     1      -0.673  12.752  20.206  0.00  0.00    +0.000 C 
ATOM      3  O   UNL     1      -1.021  13.847  20.649  0.00  0.00    +0.000 OA
ATOM      4  O   UNL     1      -0.714  12.549  18.873  0.00  0.00    +0.000 OA
ATOM      5  C   UNL     1      -1.027  11.236  18.448  0.00  0.00    +0.000 C 
ATOM      6  C   UNL     1      -0.205  10.222  19.140  0.00  0.00    +0.000 A 
ATOM      7  C   UNL     1       0.043  10.223  20.470  0.00  0.00    +0.000 A 
ATOM      8  C   UNL     1       0.612   8.931  21.016  0.00  0.00    +0.000 A 
ATOM      9  C   UNL     1       1.322   8.112  20.192  0.00  0.00    +0.000 A 
ATOM     10  N   UNL     1       1.586   8.628  18.940  0.00  0.00    +0.000 N 
ATOM     11  C   UNL     1       0.873   9.604  18.318  0.00  0.00    +0.000 A 
ATOM     12  O   UNL     1       1.133  10.012  17.191  0.00  0.00    +0.000 OA
ATOM     13  C   UNL     1       2.835   8.135  18.418  0.00  0.00    +0.000 C 
ATOM     14  C   UNL     1       3.059   6.895  19.211  0.00  0.00    +0.000 A 
ATOM     15  C   UNL     1       2.076   6.795  20.203  0.00  0.00    +0.000 A 
ATOM     16  N   UNL     1       1.769   5.607  20.760  0.00  0.00    +0.000 NA
ATOM     17  C   UNL     1       2.515   4.507  20.360  0.00  0.00    +0.000 A 
ATOM     18  C   UNL     1       2.180   3.198  20.757  0.00  0.00    +0.000 A 
ATOM     19  C   UNL     1       2.927   2.052  20.406  0.00  0.00    +0.000 A 
ATOM     20  C   UNL     1       4.066   2.182  19.635  0.00  0.00    +0.000 A 
ATOM     21  C   UNL     1       4.414   3.446  19.179  0.00  0.00    +0.000 A 
ATOM     22  C   UNL     1       3.656   4.608  19.504  0.00  0.00    +0.000 A 
ATOM     23  C   UNL     1       3.968   5.870  18.949  0.00  0.00    +0.000 A 
ENDROOT
BRANCH   1  25
ATOM     24  C   UNL     1      -1.428  10.938  23.163  0.00  0.00    +0.000 C 
ATOM     25  C   UNL     1      -0.481  11.940  22.536  0.00  0.00    +0.000 C 
ENDBRANCH   1  25
BRANCH   1  26
ATOM     26  O   UNL     1       1.433  12.049  21.083  0.00  0.00    +0.000 OA
ATOM     27  H   UNL     1       1.477  12.942  21.479  0.00  0.00    +0.000 HD
ENDBRANCH   1  26
BRANCH  23  28
ATOM     28  C   UNL     1       5.162   6.060  18.027  0.00  0.00    +0.000 C 
BRANCH  28  29
ATOM     29  C   UNL     1       4.922   5.819  16.536  0.00  0.00    +0.000 C 
BRANCH  29  30
ATOM     30  C   UNL     1       6.179   5.414  15.810  0.00  0.00    +0.000 C 
ATOM     31  O   UNL     1       7.276   5.919  15.990  0.00  0.00    +0.000 OA
ENDBRANCH  29  30
ENDBRANCH  28  29
ENDBRANCH  23  28
TORSDOF 5
ENDMDL
MODEL 9
REMARK VINA RESULT:      -7.5      1.569      1.958
REMARK  Name = 
REMARK  6 active torsions:
REMARK  status: ('A' for Active; 'I' for Inactive)
REMARK    1  A    between atoms: C_1  and  C_2
REMARK    2  A    between atoms: C_2  and  C_3
REMARK    3  A    between atoms: C_3  and  O_4
REMARK    4  A    between atoms: C_26  and  C_27
REMARK    5  A    between atoms: C_27  and  C_28
REMARK    6  A    between atoms: C_28  and  C_29
REMARK                            x       y       z     vdW  Elec       q    Type
REMARK                         _______ _______ _______ _____ _____    ______ ____
ROOT
ATOM      1  C   UNL     1      -0.183  10.674  19.550  0.00  0.00    +0.000 C 
ATOM      2  C   UNL     1      -0.791  10.998  20.987  0.00  0.00    +0.000 C 
ATOM      3  O   UNL     1      -1.633  11.878  21.172  0.00  0.00    +0.000 OA
ATOM      4  O   UNL     1      -0.509  10.148  21.996  0.00  0.00    +0.000 OA
ATOM      5  C   UNL     1       0.826   9.686  22.073  0.00  0.00    +0.000 C 
ATOM      6  C   UNL     1       1.310   9.184  20.770  0.00  0.00    +0.000 A 
ATOM      7  C   UNL     1       1.114   9.816  19.590  0.00  0.00    +0.000 A 
ATOM      8  C   UNL     1       1.970   9.317  18.447  0.00  0.00    +0.000 A 
ATOM      9  C   UNL     1       2.426   8.034  18.463  0.00  0.00    +0.000 A 
ATOM     10  N   UNL     1       1.924   7.248  19.480  0.00  0.00    +0.000 N 
ATOM     11  C   UNL     1       1.419   7.702  20.657  0.00  0.00    +0.000 A 
ATOM     12  O   UNL     1       1.008   6.959  21.543  0.00  0.00    +0.000 OA
ATOM     13  C   UNL     1       1.826   5.866  19.081  0.00  0.00    +0.000 C 
ATOM     14  C   UNL     1       2.778   5.784  17.938  0.00  0.00    +0.000 A 
ATOM     15  C   UNL     1       3.252   7.066  17.636  0.00  0.00    +0.000 A 
ATOM     16  N   UNL     1       4.413   7.239  16.974  0.00  0.00    +0.000 NA
ATOM     17  C   UNL     1       5.075   6.096  16.546  0.00  0.00    +0.000 A 
ATOM     18  C   UNL     1       6.366   6.152  15.986  0.00  0.00    +0.000 A 
ATOM     19  C   UNL     1       7.066   5.025  15.504  0.00  0.00    +0.000 A 
ATOM     20  C   UNL     1       6.481   3.775  15.560  0.00  0.00    +0.000 A 
ATOM     21  C   UNL     1       5.228   3.659  16.146  0.00  0.00    +0.000 A 
ATOM     22  C   UNL     1       4.520   4.784  16.659  0.00  0.00    +0.000 A 
ATOM     23  C   UNL     1       3.290   4.633  17.342  0.00  0.00    +0.000 A 
ENDROOT
BRANCH   1  25
ATOM     24  C   UNL     1      -1.399  12.140  17.750  0.00  0.00    +0.000 C 
ATOM     25  C   UNL     1      -0.301  12.016  18.786  0.00  0.00    +0.000 C 
ENDBRANCH   1  25
BRANCH   1  26
ATOM     26  O   UNL     1      -1.178   9.784  18.968  0.00  0.00    +0.000 OA
ATOM     27  H   UNL     1      -1.776  10.340  18.430  0.00  0.00    +0.000 HD
ENDBRANCH   1  26
BRANCH  23  28
ATOM     28  C   UNL     1       2.636   3.271  17.507  0.00  0.00    +0.000 C 
BRANCH  28  29
ATOM     29  C   UNL     1       2.776   2.605  18.876  0.00  0.00    +0.000 C 
BRANCH  29  30
ATOM     30  C   UNL     1       1.441   2.312  19.511  0.00  0.00    +0.000 C 
ATOM     31  O   UNL     1       0.396   2.172  18.895  0.00  0.00    +0.000 OA
ENDBRANCH  29  30
ENDBRANCH  28  29
ENDBRANCH  23  28
TORSDOF 5
ENDMDL
