MODEL 1
REMARK VINA RESULT:      -7.4      0.000      0.000
REMARK  Name = 
REMARK  17 active torsions:
REMARK  status: ('A' for Active; 'I' for Inactive)
REMARK    1  A    between atoms: C_1  and  O_2
REMARK    2  A    between atoms: O_2  and  C_3
REMARK    3  A    between atoms: C_6  and  C_7
REMARK    4  A    between atoms: C_7  and  C_8
REMARK    5  A    between atoms: C_8  and  N_9
REMARK    6  A    between atoms: N_9  and  C_10
REMARK    7  A    between atoms: N_9  and  C_11
REMARK    8  A    between atoms: C_11  and  C_12
REMARK    9  A    between atoms: C_12  and  C_13
REMARK   10  A    between atoms: C_13  and  C_14
REMARK   11  A    between atoms: C_14  and  C_15
REMARK   12  A    between atoms: C_23  and  O_24
REMARK   13  A    between atoms: O_24  and  C_25
REMARK   14  A    between atoms: C_26  and  O_27
REMARK   15  A    between atoms: O_27  and  C_28
REMARK   16  A    between atoms: C_30  and  O_31
REMARK   17  A    between atoms: O_31  and  C_32
REMARK                            x       y       z     vdW  Elec       q    Type
REMARK                         _______ _______ _______ _____ _____    ______ ____
ROOT
ATOM      1  C   UNL     1       6.343   5.670  16.900  0.00  0.00    +0.000 C 
ENDROOT
BRANCH   1   2
ATOM      2  C   UNL     1       6.571   7.173  17.036  0.00  0.00    +0.000 C 
BRANCH   2   3
ATOM      3  N   UNL     1       7.891   7.484  17.636  0.00  0.00    +0.000 NA
ATOM      4  C   UNL     1       8.082   6.656  18.828  0.00  0.00    +0.000 C 
BRANCH   3   5
ATOM      5  C   UNL     1       8.022   8.925  17.939  0.00  0.00    +0.000 C 
BRANCH   5   6
ATOM      6  C   UNL     1       8.918   9.281  19.143  0.00  0.00    +0.000 C 
BRANCH   6  10
ATOM      7  C   UNL     1      10.173  13.404  18.684  0.00  0.00    +0.000 A 
ATOM      8  C   UNL     1      10.215  12.517  17.592  0.00  0.00    +0.000 A 
ATOM      9  C   UNL     1       9.846  11.178  17.745  0.00  0.00    +0.000 A 
ATOM     10  C   UNL     1       9.439  10.698  18.988  0.00  0.00    +0.000 A 
ATOM     11  C   UNL     1       9.441  11.565  20.081  0.00  0.00    +0.000 A 
ATOM     12  C   UNL     1       9.816  12.913  19.949  0.00  0.00    +0.000 A 
BRANCH   7  14
ATOM     13  C   UNL     1      11.669  15.004  17.766  0.00  0.00    +0.000 C 
ATOM     14  O   UNL     1      10.503  14.732  18.552  0.00  0.00    +0.000 OA
ENDBRANCH   7  14
BRANCH  12  15
ATOM     15  O   UNL     1       9.729  13.584  21.138  0.00  0.00    +0.000 OA
ATOM     16  C   UNL     1       9.180  12.918  22.265  0.00  0.00    +0.000 C 
ENDBRANCH  12  15
ENDBRANCH   6  10
ENDBRANCH   5   6
ENDBRANCH   3   5
ENDBRANCH   2   3
ENDBRANCH   1   2
BRANCH   1  17
ATOM     17  C   UNL     1       5.028   5.284  16.209  0.00  0.00    +0.000 C 
BRANCH  17  18
ATOM     18  C   UNL     1       4.091   4.659  17.234  0.00  0.00    +0.000 C 
ATOM     19  C   UNL     1       2.820   3.917  16.785  0.00  0.00    +0.000 C 
ATOM     20  C   UNL     1       1.973   3.663  18.065  0.00  0.00    +0.000 C 
ATOM     21  C   UNL     1       2.318   4.885  18.882  0.00  0.00    +0.000 A 
ATOM     22  C   UNL     1       3.201   5.679  18.110  0.00  0.00    +0.000 A 
ATOM     23  C   UNL     1       3.092   7.043  18.290  0.00  0.00    +0.000 A 
ATOM     24  C   UNL     1       2.272   7.518  19.328  0.00  0.00    +0.000 A 
ATOM     25  C   UNL     1       1.684   6.671  20.304  0.00  0.00    +0.000 A 
ATOM     26  C   UNL     1       1.766   5.300  20.095  0.00  0.00    +0.000 A 
BRANCH  18  27
ATOM     27  C   UNL     1       4.868   4.075  18.404  0.00  0.00    +0.000 C 
ATOM     28  N   UNL     1       5.511   3.591  19.374  0.00  0.00    +0.000 NA
ENDBRANCH  18  27
BRANCH  25  29
ATOM     29  O   UNL     1       1.008   7.325  21.304  0.00  0.00    +0.000 OA
ATOM     30  C   UNL     1       1.151   8.741  21.409  0.00  0.00    +0.000 C 
ENDBRANCH  25  29
BRANCH  26  31
ATOM     31  O   UNL     1       1.292   4.389  21.000  0.00  0.00    +0.000 OA
ATOM     32  C   UNL     1       2.362   3.661  21.629  0.00  0.00    +0.000 C 
ENDBRANCH  26  31
ENDBRANCH  17  18
ENDBRANCH   1  17
TORSDOF 12
ENDMDL
MODEL 2
REMARK VINA RESULT:      -7.2      4.531      7.879
REMARK  Name = 
REMARK  17 active torsions:
REMARK  status: ('A' for Active; 'I' for Inactive)
REMARK    1  A    between atoms: C_1  and  O_2
REMARK    2  A    between atoms: O_2  and  C_3
REMARK    3  A    between atoms: C_6  and  C_7
REMARK    4  A    between atoms: C_7  and  C_8
REMARK    5  A    between atoms: C_8  and  N_9
REMARK    6  A    between atoms: N_9  and  C_10
REMARK    7  A    between atoms: N_9  and  C_11
REMARK    8  A    between atoms: C_11  and  C_12
REMARK    9  A    between atoms: C_12  and  C_13
REMARK   10  A    between atoms: C_13  and  C_14
REMARK   11  A    between atoms: C_14  and  C_15
REMARK   12  A    between atoms: C_23  and  O_24
REMARK   13  A    between atoms: O_24  and  C_25
REMARK   14  A    between atoms: C_26  and  O_27
REMARK   15  A    between atoms: O_27  and  C_28
REMARK   16  A    between atoms: C_30  and  O_31
REMARK   17  A    between atoms: O_31  and  C_32
REMARK                            x       y       z     vdW  Elec       q    Type
REMARK                         _______ _______ _______ _____ _____    ______ ____
ROOT
ATOM      1  C   UNL     1       1.849   7.666  18.829  0.00  0.00    +0.000 C 
ENDROOT
BRANCH   1   2
ATOM      2  C   UNL     1       2.973   6.739  18.372  0.00  0.00    +0.000 C 
BRANCH   2   3
ATOM      3  N   UNL     1       2.840   5.379  18.947  0.00  0.00    +0.000 NA
ATOM      4  C   UNL     1       2.020   5.449  20.158  0.00  0.00    +0.000 C 
BRANCH   3   5
ATOM      5  C   UNL     1       4.162   4.772  19.211  0.00  0.00    +0.000 C 
BRANCH   5   6
ATOM      6  C   UNL     1       4.542   3.571  18.322  0.00  0.00    +0.000 C 
BRANCH   6  10
ATOM      7  C   UNL     1       6.978   5.071  15.067  0.00  0.00    +0.000 A 
ATOM      8  C   UNL     1       6.183   3.923  14.896  0.00  0.00    +0.000 A 
ATOM      9  C   UNL     1       5.425   3.415  15.954  0.00  0.00    +0.000 A 
ATOM     10  C   UNL     1       5.453   4.035  17.201  0.00  0.00    +0.000 A 
ATOM     11  C   UNL     1       6.277   5.146  17.385  0.00  0.00    +0.000 A 
ATOM     12  C   UNL     1       7.052   5.667  16.336  0.00  0.00    +0.000 A 
BRANCH   7  14
ATOM     13  C   UNL     1       7.549   4.964  12.764  0.00  0.00    +0.000 C 
ATOM     14  O   UNL     1       7.710   5.607  14.034  0.00  0.00    +0.000 OA
ENDBRANCH   7  14
BRANCH  12  15
ATOM     15  O   UNL     1       7.769   6.764  16.729  0.00  0.00    +0.000 OA
ATOM     16  C   UNL     1       7.771   7.130  18.100  0.00  0.00    +0.000 C 
ENDBRANCH  12  15
ENDBRANCH   6  10
ENDBRANCH   5   6
ENDBRANCH   3   5
ENDBRANCH   2   3
ENDBRANCH   1   2
BRANCH   1  17
ATOM     17  C   UNL     1       1.835   9.038  18.142  0.00  0.00    +0.000 C 
BRANCH  17  18
ATOM     18  C   UNL     1       1.060  10.022  19.009  0.00  0.00    +0.000 C 
ATOM     19  C   UNL     1       0.655   9.651  20.446  0.00  0.00    +0.000 C 
ATOM     20  C   UNL     1      -0.344  10.742  20.928  0.00  0.00    +0.000 C 
ATOM     21  C   UNL     1      -1.036  11.085  19.630  0.00  0.00    +0.000 A 
ATOM     22  C   UNL     1      -0.488  10.257  18.621  0.00  0.00    +0.000 A 
ATOM     23  C   UNL     1      -1.356   9.882  17.616  0.00  0.00    +0.000 A 
ATOM     24  C   UNL     1      -2.626  10.483  17.570  0.00  0.00    +0.000 A 
ATOM     25  C   UNL     1      -3.000  11.573  18.398  0.00  0.00    +0.000 A 
ATOM     26  C   UNL     1      -2.138  11.919  19.431  0.00  0.00    +0.000 A 
BRANCH  18  27
ATOM     27  C   UNL     1       1.510  11.452  18.754  0.00  0.00    +0.000 C 
ATOM     28  N   UNL     1       1.884  12.638  18.543  0.00  0.00    +0.000 NA
ENDBRANCH  18  27
BRANCH  25  29
ATOM     29  O   UNL     1      -4.241  12.100  18.133  0.00  0.00    +0.000 OA
ATOM     30  C   UNL     1      -4.938  11.648  16.973  0.00  0.00    +0.000 C 
ENDBRANCH  25  29
BRANCH  26  31
ATOM     31  O   UNL     1      -2.365  12.991  20.251  0.00  0.00    +0.000 OA
ATOM     32  C   UNL     1      -1.377  14.021  20.063  0.00  0.00    +0.000 C 
ENDBRANCH  26  31
ENDBRANCH  17  18
ENDBRANCH   1  17
TORSDOF 12
ENDMDL
MODEL 3
REMARK VINA RESULT:      -6.8      4.517      7.911
REMARK  Name = 
REMARK  17 active torsions:
REMARK  status: ('A' for Active; 'I' for Inactive)
REMARK    1  A    between atoms: C_1  and  O_2
REMARK    2  A    between atoms: O_2  and  C_3
REMARK    3  A    between atoms: C_6  and  C_7
REMARK    4  A    between atoms: C_7  and  C_8
REMARK    5  A    between atoms: C_8  and  N_9
REMARK    6  A    between atoms: N_9  and  C_10
REMARK    7  A    between atoms: N_9  and  C_11
REMARK    8  A    between atoms: C_11  and  C_12
REMARK    9  A    between atoms: C_12  and  C_13
REMARK   10  A    between atoms: C_13  and  C_14
REMARK   11  A    between atoms: C_14  and  C_15
REMARK   12  A    between atoms: C_23  and  O_24
REMARK   13  A    between atoms: O_24  and  C_25
REMARK   14  A    between atoms: C_26  and  O_27
REMARK   15  A    between atoms: O_27  and  C_28
REMARK   16  A    between atoms: C_30  and  O_31
REMARK   17  A    between atoms: O_31  and  C_32
REMARK                            x       y       z     vdW  Elec       q    Type
REMARK                         _______ _______ _______ _____ _____    ______ ____
ROOT
ATOM      1  C   UNL     1       1.868   7.566  18.219  0.00  0.00    +0.000 C 
ENDROOT
BRANCH   1   2
ATOM      2  C   UNL     1       2.683   6.806  19.262  0.00  0.00    +0.000 C 
BRANCH   2   3
ATOM      3  N   UNL     1       2.189   5.422  19.454  0.00  0.00    +0.000 NA
ATOM      4  C   UNL     1       1.907   5.208  20.875  0.00  0.00    +0.000 C 
BRANCH   3   5
ATOM      5  C   UNL     1       3.146   4.426  18.927  0.00  0.00    +0.000 C 
BRANCH   5   6
ATOM      6  C   UNL     1       3.050   4.132  17.416  0.00  0.00    +0.000 C 
BRANCH   6  10
ATOM      7  C   UNL     1       6.754   5.038  15.357  0.00  0.00    +0.000 A 
ATOM      8  C   UNL     1       6.155   3.772  15.228  0.00  0.00    +0.000 A 
ATOM      9  C   UNL     1       4.980   3.464  15.920  0.00  0.00    +0.000 A 
ATOM     10  C   UNL     1       4.389   4.407  16.757  0.00  0.00    +0.000 A 
ATOM     11  C   UNL     1       5.007   5.647  16.921  0.00  0.00    +0.000 A 
ATOM     12  C   UNL     1       6.192   5.973  16.240  0.00  0.00    +0.000 A 
BRANCH   7  14
ATOM     13  C   UNL     1       7.803   5.273  13.239  0.00  0.00    +0.000 C 
ATOM     14  O   UNL     1       7.894   5.375  14.665  0.00  0.00    +0.000 OA
ENDBRANCH   7  14
BRANCH  12  15
ATOM     15  O   UNL     1       6.614   7.241  16.532  0.00  0.00    +0.000 OA
ATOM     16  C   UNL     1       7.593   7.425  17.544  0.00  0.00    +0.000 C 
ENDBRANCH  12  15
ENDBRANCH   6  10
ENDBRANCH   5   6
ENDBRANCH   3   5
ENDBRANCH   2   3
ENDBRANCH   1   2
BRANCH   1  17
ATOM     17  C   UNL     1       2.163   9.071  18.152  0.00  0.00    +0.000 C 
BRANCH  17  18
ATOM     18  C   UNL     1       0.961   9.838  18.690  0.00  0.00    +0.000 C 
ATOM     19  C   UNL     1      -0.358   9.883  17.899  0.00  0.00    +0.000 C 
ATOM     20  C   UNL     1      -1.252  10.960  18.579  0.00  0.00    +0.000 C 
ATOM     21  C   UNL     1      -0.206  11.939  19.055  0.00  0.00    +0.000 A 
ATOM     22  C   UNL     1       1.057  11.447  18.644  0.00  0.00    +0.000 A 
ATOM     23  C   UNL     1       2.000  12.405  18.332  0.00  0.00    +0.000 A 
ATOM     24  C   UNL     1       1.707  13.750  18.614  0.00  0.00    +0.000 A 
ATOM     25  C   UNL     1       0.568  14.159  19.355  0.00  0.00    +0.000 A 
ATOM     26  C   UNL     1      -0.395  13.196  19.632  0.00  0.00    +0.000 A 
BRANCH  18  27
ATOM     27  C   UNL     1       0.869   9.723  20.203  0.00  0.00    +0.000 C 
ATOM     28  N   UNL     1       0.792   9.628  21.458  0.00  0.00    +0.000 NA
ENDBRANCH  18  27
BRANCH  25  29
ATOM     29  O   UNL     1       0.507  15.504  19.626  0.00  0.00    +0.000 OA
ATOM     30  C   UNL     1      -0.234  16.343  18.741  0.00  0.00    +0.000 C 
ENDBRANCH  25  29
BRANCH  26  31
ATOM     31  O   UNL     1      -1.502  13.460  20.392  0.00  0.00    +0.000 OA
ATOM     32  C   UNL     1      -1.277  13.156  21.781  0.00  0.00    +0.000 C 
ENDBRANCH  26  31
ENDBRANCH  17  18
ENDBRANCH   1  17
TORSDOF 12
ENDMDL
MODEL 4
REMARK VINA RESULT:      -6.7      4.255      7.584
REMARK  Name = 
REMARK  17 active torsions:
REMARK  status: ('A' for Active; 'I' for Inactive)
REMARK    1  A    between atoms: C_1  and  O_2
REMARK    2  A    between atoms: O_2  and  C_3
REMARK    3  A    between atoms: C_6  and  C_7
REMARK    4  A    between atoms: C_7  and  C_8
REMARK    5  A    between atoms: C_8  and  N_9
REMARK    6  A    between atoms: N_9  and  C_10
REMARK    7  A    between atoms: N_9  and  C_11
REMARK    8  A    between atoms: C_11  and  C_12
REMARK    9  A    between atoms: C_12  and  C_13
REMARK   10  A    between atoms: C_13  and  C_14
REMARK   11  A    between atoms: C_14  and  C_15
REMARK   12  A    between atoms: C_23  and  O_24
REMARK   13  A    between atoms: O_24  and  C_25
REMARK   14  A    between atoms: C_26  and  O_27
REMARK   15  A    between atoms: O_27  and  C_28
REMARK   16  A    between atoms: C_30  and  O_31
REMARK   17  A    between atoms: O_31  and  C_32
REMARK                            x       y       z     vdW  Elec       q    Type
REMARK                         _______ _______ _______ _____ _____    ______ ____
ROOT
ATOM      1  C   UNL     1       2.008   7.063  18.221  0.00  0.00    +0.000 C 
ENDROOT
BRANCH   1   2
ATOM      2  C   UNL     1       2.235   6.346  19.549  0.00  0.00    +0.000 C 
BRANCH   2   3
ATOM      3  N   UNL     1       1.804   4.929  19.498  0.00  0.00    +0.000 NA
ATOM      4  C   UNL     1       2.307   4.233  20.684  0.00  0.00    +0.000 C 
BRANCH   3   5
ATOM      5  C   UNL     1       2.244   4.274  18.248  0.00  0.00    +0.000 C 
BRANCH   5   6
ATOM      6  C   UNL     1       3.632   3.603  18.290  0.00  0.00    +0.000 C 
BRANCH   6  10
ATOM      7  C   UNL     1       6.836   6.308  17.193  0.00  0.00    +0.000 A 
ATOM      8  C   UNL     1       6.479   6.131  18.542  0.00  0.00    +0.000 A 
ATOM      9  C   UNL     1       5.422   5.288  18.897  0.00  0.00    +0.000 A 
ATOM     10  C   UNL     1       4.699   4.616  17.915  0.00  0.00    +0.000 A 
ATOM     11  C   UNL     1       5.022   4.826  16.574  0.00  0.00    +0.000 A 
ATOM     12  C   UNL     1       6.075   5.676  16.197  0.00  0.00    +0.000 A 
BRANCH   7  14
ATOM     13  C   UNL     1       8.049   8.313  17.579  0.00  0.00    +0.000 C 
ATOM     14  O   UNL     1       7.890   7.109  16.820  0.00  0.00    +0.000 OA
ENDBRANCH   7  14
BRANCH  12  15
ATOM     15  O   UNL     1       6.229   5.723  14.838  0.00  0.00    +0.000 OA
ATOM     16  C   UNL     1       6.539   4.527  14.139  0.00  0.00    +0.000 C 
ENDBRANCH  12  15
ENDBRANCH   6  10
ENDBRANCH   5   6
ENDBRANCH   3   5
ENDBRANCH   2   3
ENDBRANCH   1   2
BRANCH   1  17
ATOM     17  C   UNL     1       2.411   8.544  18.219  0.00  0.00    +0.000 C 
BRANCH  17  18
ATOM     18  C   UNL     1       1.218   9.386  18.655  0.00  0.00    +0.000 C 
ATOM     19  C   UNL     1      -0.057   9.444  17.796  0.00  0.00    +0.000 C 
ATOM     20  C   UNL     1      -0.936  10.589  18.375  0.00  0.00    +0.000 C 
ATOM     21  C   UNL     1       0.127  11.548  18.854  0.00  0.00    +0.000 A 
ATOM     22  C   UNL     1       1.386  10.986  18.535  0.00  0.00    +0.000 A 
ATOM     23  C   UNL     1       2.384  11.887  18.224  0.00  0.00    +0.000 A 
ATOM     24  C   UNL     1       2.135  13.256  18.424  0.00  0.00    +0.000 A 
ATOM     25  C   UNL     1       0.979  13.748  19.083  0.00  0.00    +0.000 A 
ATOM     26  C   UNL     1      -0.037  12.840  19.358  0.00  0.00    +0.000 A 
BRANCH  18  27
ATOM     27  C   UNL     1       1.046   9.353  20.165  0.00  0.00    +0.000 C 
ATOM     28  N   UNL     1       0.904   9.327  21.418  0.00  0.00    +0.000 NA
ENDBRANCH  18  27
BRANCH  25  29
ATOM     29  O   UNL     1       0.963  15.106  19.285  0.00  0.00    +0.000 OA
ATOM     30  C   UNL     1      -0.041  15.879  18.627  0.00  0.00    +0.000 C 
ENDBRANCH  25  29
BRANCH  26  31
ATOM     31  O   UNL     1      -1.168  13.188  20.046  0.00  0.00    +0.000 OA
ATOM     32  C   UNL     1      -1.092  12.790  21.427  0.00  0.00    +0.000 C 
ENDBRANCH  26  31
ENDBRANCH  17  18
ENDBRANCH   1  17
TORSDOF 12
ENDMDL
MODEL 5
REMARK VINA RESULT:      -6.7      4.760      8.082
REMARK  Name = 
REMARK  17 active torsions:
REMARK  status: ('A' for Active; 'I' for Inactive)
REMARK    1  A    between atoms: C_1  and  O_2
REMARK    2  A    between atoms: O_2  and  C_3
REMARK    3  A    between atoms: C_6  and  C_7
REMARK    4  A    between atoms: C_7  and  C_8
REMARK    5  A    between atoms: C_8  and  N_9
REMARK    6  A    between atoms: N_9  and  C_10
REMARK    7  A    between atoms: N_9  and  C_11
REMARK    8  A    between atoms: C_11  and  C_12
REMARK    9  A    between atoms: C_12  and  C_13
REMARK   10  A    between atoms: C_13  and  C_14
REMARK   11  A    between atoms: C_14  and  C_15
REMARK   12  A    between atoms: C_23  and  O_24
REMARK   13  A    between atoms: O_24  and  C_25
REMARK   14  A    between atoms: C_26  and  O_27
REMARK   15  A    between atoms: O_27  and  C_28
REMARK   16  A    between atoms: C_30  and  O_31
REMARK   17  A    between atoms: O_31  and  C_32
REMARK                            x       y       z     vdW  Elec       q    Type
REMARK                         _______ _______ _______ _____ _____    ______ ____
ROOT
ATOM      1  C   UNL     1       1.578   8.387  17.910  0.00  0.00    +0.000 C 
ENDROOT
BRANCH   1   2
ATOM      2  C   UNL     1       2.616   7.483  18.569  0.00  0.00    +0.000 C 
BRANCH   2   3
ATOM      3  N   UNL     1       1.988   6.356  19.300  0.00  0.00    +0.000 NA
ATOM      4  C   UNL     1       1.782   6.747  20.696  0.00  0.00    +0.000 C 
BRANCH   3   5
ATOM      5  C   UNL     1       2.793   5.121  19.188  0.00  0.00    +0.000 C 
BRANCH   5   6
ATOM      6  C   UNL     1       4.304   5.275  19.455  0.00  0.00    +0.000 C 
BRANCH   6  10
ATOM      7  C   UNL     1       6.349   5.173  15.635  0.00  0.00    +0.000 A 
ATOM      8  C   UNL     1       5.307   4.269  15.914  0.00  0.00    +0.000 A 
ATOM      9  C   UNL     1       4.670   4.275  17.158  0.00  0.00    +0.000 A 
ATOM     10  C   UNL     1       5.066   5.172  18.146  0.00  0.00    +0.000 A 
ATOM     11  C   UNL     1       6.130   6.038  17.887  0.00  0.00    +0.000 A 
ATOM     12  C   UNL     1       6.788   6.042  16.646  0.00  0.00    +0.000 A 
BRANCH   7  14
ATOM     13  C   UNL     1       6.602   4.164  13.500  0.00  0.00    +0.000 C 
ATOM     14  O   UNL     1       6.972   5.206  14.410  0.00  0.00    +0.000 OA
ENDBRANCH   7  14
BRANCH  12  15
ATOM     15  O   UNL     1       7.785   6.977  16.602  0.00  0.00    +0.000 OA
ATOM     16  C   UNL     1       7.803   8.010  17.575  0.00  0.00    +0.000 C 
ENDBRANCH  12  15
ENDBRANCH   6  10
ENDBRANCH   5   6
ENDBRANCH   3   5
ENDBRANCH   2   3
ENDBRANCH   1   2
BRANCH   1  17
ATOM     17  C   UNL     1       1.838   9.890  18.086  0.00  0.00    +0.000 C 
BRANCH  17  18
ATOM     18  C   UNL     1       0.682  10.508  18.862  0.00  0.00    +0.000 C 
ATOM     19  C   UNL     1      -0.757  10.423  18.325  0.00  0.00    +0.000 C 
ATOM     20  C   UNL     1      -1.619  11.381  19.198  0.00  0.00    +0.000 C 
ATOM     21  C   UNL     1      -0.611  12.459  19.516  0.00  0.00    +0.000 A 
ATOM     22  C   UNL     1       0.599  12.119  18.865  0.00  0.00    +0.000 A 
ATOM     23  C   UNL     1       1.363  13.181  18.426  0.00  0.00    +0.000 A 
ATOM     24  C   UNL     1       0.988  14.479  18.811  0.00  0.00    +0.000 A 
ATOM     25  C   UNL     1      -0.033  14.745  19.761  0.00  0.00    +0.000 A 
ATOM     26  C   UNL     1      -0.821  13.676  20.168  0.00  0.00    +0.000 A 
BRANCH  18  27
ATOM     27  C   UNL     1       0.883  10.353  20.361  0.00  0.00    +0.000 C 
ATOM     28  N   UNL     1       1.048  10.224  21.605  0.00  0.00    +0.000 NA
ENDBRANCH  18  27
BRANCH  25  29
ATOM     29  O   UNL     1      -0.183  16.068  20.093  0.00  0.00    +0.000 OA
ATOM     30  C   UNL     1      -1.107  16.856  19.344  0.00  0.00    +0.000 C 
ENDBRANCH  25  29
BRANCH  26  31
ATOM     31  O   UNL     1      -1.791  13.800  21.126  0.00  0.00    +0.000 OA
ATOM     32  C   UNL     1      -1.328  13.351  22.412  0.00  0.00    +0.000 C 
ENDBRANCH  26  31
ENDBRANCH  17  18
ENDBRANCH   1  17
TORSDOF 12
ENDMDL
MODEL 6
REMARK VINA RESULT:      -6.7      4.326      7.547
REMARK  Name = 
REMARK  17 active torsions:
REMARK  status: ('A' for Active; 'I' for Inactive)
REMARK    1  A    between atoms: C_1  and  O_2
REMARK    2  A    between atoms: O_2  and  C_3
REMARK    3  A    between atoms: C_6  and  C_7
REMARK    4  A    between atoms: C_7  and  C_8
REMARK    5  A    between atoms: C_8  and  N_9
REMARK    6  A    between atoms: N_9  and  C_10
REMARK    7  A    between atoms: N_9  and  C_11
REMARK    8  A    between atoms: C_11  and  C_12
REMARK    9  A    between atoms: C_12  and  C_13
REMARK   10  A    between atoms: C_13  and  C_14
REMARK   11  A    between atoms: C_14  and  C_15
REMARK   12  A    between atoms: C_23  and  O_24
REMARK   13  A    between atoms: O_24  and  C_25
REMARK   14  A    between atoms: C_26  and  O_27
REMARK   15  A    between atoms: O_27  and  C_28
REMARK   16  A    between atoms: C_30  and  O_31
REMARK   17  A    between atoms: O_31  and  C_32
REMARK                            x       y       z     vdW  Elec       q    Type
REMARK                         _______ _______ _______ _____ _____    ______ ____
ROOT
ATOM      1  C   UNL     1       2.505   7.982  17.965  0.00  0.00    +0.000 C 
ENDROOT
BRANCH   1   2
ATOM      2  C   UNL     1       2.791   7.075  19.158  0.00  0.00    +0.000 C 
BRANCH   2   3
ATOM      3  N   UNL     1       3.161   5.702  18.737  0.00  0.00    +0.000 NA
ATOM      4  C   UNL     1       1.941   4.935  18.478  0.00  0.00    +0.000 C 
BRANCH   3   5
ATOM      5  C   UNL     1       4.023   5.042  19.741  0.00  0.00    +0.000 C 
BRANCH   5   6
ATOM      6  C   UNL     1       4.944   3.926  19.208  0.00  0.00    +0.000 C 
BRANCH   6  10
ATOM      7  C   UNL     1       6.293   5.215  15.296  0.00  0.00    +0.000 A 
ATOM      8  C   UNL     1       5.385   4.147  15.425  0.00  0.00    +0.000 A 
ATOM      9  C   UNL     1       4.977   3.705  16.686  0.00  0.00    +0.000 A 
ATOM     10  C   UNL     1       5.472   4.311  17.838  0.00  0.00    +0.000 A 
ATOM     11  C   UNL     1       6.407   5.339  17.713  0.00  0.00    +0.000 A 
ATOM     12  C   UNL     1       6.836   5.792  16.454  0.00  0.00    +0.000 A 
BRANCH   7  14
ATOM     13  C   UNL     1       7.495   4.793  13.292  0.00  0.00    +0.000 C 
ATOM     14  O   UNL     1       6.688   5.687  14.067  0.00  0.00    +0.000 OA
ENDBRANCH   7  14
BRANCH  12  15
ATOM     15  O   UNL     1       7.738   6.815  16.562  0.00  0.00    +0.000 OA
ATOM     16  C   UNL     1       7.780   7.572  17.762  0.00  0.00    +0.000 C 
ENDBRANCH  12  15
ENDBRANCH   6  10
ENDBRANCH   5   6
ENDBRANCH   3   5
ENDBRANCH   2   3
ENDBRANCH   1   2
BRANCH   1  17
ATOM     17  C   UNL     1       1.018   8.284  17.734  0.00  0.00    +0.000 C 
BRANCH  17  18
ATOM     18  C   UNL     1       0.728   9.718  18.159  0.00  0.00    +0.000 C 
ATOM     19  C   UNL     1       1.847  10.774  18.168  0.00  0.00    +0.000 C 
ATOM     20  C   UNL     1       1.282  12.021  18.908  0.00  0.00    +0.000 C 
ATOM     21  C   UNL     1       0.365  11.363  19.911  0.00  0.00    +0.000 A 
ATOM     22  C   UNL     1       0.469   9.962  19.732  0.00  0.00    +0.000 A 
ATOM     23  C   UNL     1       0.327   9.200  20.874  0.00  0.00    +0.000 A 
ATOM     24  C   UNL     1      -0.083   9.837  22.058  0.00  0.00    +0.000 A 
ATOM     25  C   UNL     1      -0.520  11.187  22.103  0.00  0.00    +0.000 A 
ATOM     26  C   UNL     1      -0.339  11.957  20.961  0.00  0.00    +0.000 A 
BRANCH  18  27
ATOM     27  C   UNL     1      -0.651  10.161  17.696  0.00  0.00    +0.000 C 
ATOM     28  N   UNL     1      -1.794  10.528  17.312  0.00  0.00    +0.000 NA
ENDBRANCH  18  27
BRANCH  25  29
ATOM     29  O   UNL     1      -0.988  11.602  23.325  0.00  0.00    +0.000 OA
ATOM     30  C   UNL     1      -2.394  11.783  23.490  0.00  0.00    +0.000 C 
ENDBRANCH  25  29
BRANCH  26  31
ATOM     31  O   UNL     1      -0.779  13.250  20.868  0.00  0.00    +0.000 OA
ATOM     32  C   UNL     1      -2.042  13.332  20.182  0.00  0.00    +0.000 C 
ENDBRANCH  26  31
ENDBRANCH  17  18
ENDBRANCH   1  17
TORSDOF 12
ENDMDL
MODEL 7
REMARK VINA RESULT:      -6.6      4.518      7.567
REMARK  Name = 
REMARK  17 active torsions:
REMARK  status: ('A' for Active; 'I' for Inactive)
REMARK    1  A    between atoms: C_1  and  O_2
REMARK    2  A    between atoms: O_2  and  C_3
REMARK    3  A    between atoms: C_6  and  C_7
REMARK    4  A    between atoms: C_7  and  C_8
REMARK    5  A    between atoms: C_8  and  N_9
REMARK    6  A    between atoms: N_9  and  C_10
REMARK    7  A    between atoms: N_9  and  C_11
REMARK    8  A    between atoms: C_11  and  C_12
REMARK    9  A    between atoms: C_12  and  C_13
REMARK   10  A    between atoms: C_13  and  C_14
REMARK   11  A    between atoms: C_14  and  C_15
REMARK   12  A    between atoms: C_23  and  O_24
REMARK   13  A    between atoms: O_24  and  C_25
REMARK   14  A    between atoms: C_26  and  O_27
REMARK   15  A    between atoms: O_27  and  C_28
REMARK   16  A    between atoms: C_30  and  O_31
REMARK   17  A    between atoms: O_31  and  C_32
REMARK                            x       y       z     vdW  Elec       q    Type
REMARK                         _______ _______ _______ _____ _____    ______ ____
ROOT
ATOM      1  C   UNL     1       2.641   7.505  19.306  0.00  0.00    +0.000 C 
ENDROOT
BRANCH   1   2
ATOM      2  C   UNL     1       2.848   6.010  19.529  0.00  0.00    +0.000 C 
BRANCH   2   3
ATOM      3  N   UNL     1       1.923   5.191  18.709  0.00  0.00    +0.000 NA
ATOM      4  C   UNL     1       1.284   4.189  19.564  0.00  0.00    +0.000 C 
BRANCH   3   5
ATOM      5  C   UNL     1       2.620   4.571  17.562  0.00  0.00    +0.000 C 
BRANCH   5   6
ATOM      6  C   UNL     1       3.901   3.781  17.898  0.00  0.00    +0.000 C 
BRANCH   6  10
ATOM      7  C   UNL     1       6.931   5.119  15.104  0.00  0.00    +0.000 A 
ATOM      8  C   UNL     1       6.200   3.943  14.857  0.00  0.00    +0.000 A 
ATOM      9  C   UNL     1       5.248   3.488  15.774  0.00  0.00    +0.000 A 
ATOM     10  C   UNL     1       5.016   4.191  16.954  0.00  0.00    +0.000 A 
ATOM     11  C   UNL     1       5.773   5.333  17.221  0.00  0.00    +0.000 A 
ATOM     12  C   UNL     1       6.740   5.801  16.316  0.00  0.00    +0.000 A 
BRANCH   7  14
ATOM     13  C   UNL     1       7.790   5.035  12.892  0.00  0.00    +0.000 C 
ATOM     14  O   UNL     1       7.853   5.603  14.205  0.00  0.00    +0.000 OA
ENDBRANCH   7  14
BRANCH  12  15
ATOM     15  O   UNL     1       7.349   6.939  16.767  0.00  0.00    +0.000 OA
ATOM     16  C   UNL     1       7.773   7.003  18.120  0.00  0.00    +0.000 C 
ENDBRANCH  12  15
ENDBRANCH   6  10
ENDBRANCH   5   6
ENDBRANCH   3   5
ENDBRANCH   2   3
ENDBRANCH   1   2
BRANCH   1  17
ATOM     17  C   UNL     1       1.588   7.852  18.243  0.00  0.00    +0.000 C 
BRANCH  17  18
ATOM     18  C   UNL     1       1.178   9.310  18.405  0.00  0.00    +0.000 C 
ATOM     19  C   UNL     1       2.219  10.436  18.277  0.00  0.00    +0.000 C 
ATOM     20  C   UNL     1       1.531  11.742  18.771  0.00  0.00    +0.000 C 
ATOM     21  C   UNL     1       0.611  11.192  19.835  0.00  0.00    +0.000 A 
ATOM     22  C   UNL     1       0.822   9.794  19.902  0.00  0.00    +0.000 A 
ATOM     23  C   UNL     1       0.674   9.225  21.151  0.00  0.00    +0.000 A 
ATOM     24  C   UNL     1       0.160  10.018  22.191  0.00  0.00    +0.000 A 
ATOM     25  C   UNL     1      -0.372  11.318  21.988  0.00  0.00    +0.000 A 
ATOM     26  C   UNL     1      -0.186  11.898  20.739  0.00  0.00    +0.000 A 
BRANCH  18  27
ATOM     27  C   UNL     1      -0.202   9.561  17.820  0.00  0.00    +0.000 C 
ATOM     28  N   UNL     1      -1.348   9.768  17.335  0.00  0.00    +0.000 NA
ENDBRANCH  18  27
BRANCH  25  29
ATOM     29  O   UNL     1      -0.930  11.894  23.102  0.00  0.00    +0.000 OA
ATOM     30  C   UNL     1      -2.346  11.822  23.268  0.00  0.00    +0.000 C 
ENDBRANCH  25  29
BRANCH  26  31
ATOM     31  O   UNL     1      -0.710  13.118  20.410  0.00  0.00    +0.000 OA
ATOM     32  C   UNL     1       0.102  14.197  20.911  0.00  0.00    +0.000 C 
ENDBRANCH  26  31
ENDBRANCH  17  18
ENDBRANCH   1  17
TORSDOF 12
ENDMDL
MODEL 8
REMARK VINA RESULT:      -6.6      4.821      8.089
REMARK  Name = 
REMARK  17 active torsions:
REMARK  status: ('A' for Active; 'I' for Inactive)
REMARK    1  A    between atoms: C_1  and  O_2
REMARK    2  A    between atoms: O_2  and  C_3
REMARK    3  A    between atoms: C_6  and  C_7
REMARK    4  A    between atoms: C_7  and  C_8
REMARK    5  A    between atoms: C_8  and  N_9
REMARK    6  A    between atoms: N_9  and  C_10
REMARK    7  A    between atoms: N_9  and  C_11
REMARK    8  A    between atoms: C_11  and  C_12
REMARK    9  A    between atoms: C_12  and  C_13
REMARK   10  A    between atoms: C_13  and  C_14
REMARK   11  A    between atoms: C_14  and  C_15
REMARK   12  A    between atoms: C_23  and  O_24
REMARK   13  A    between atoms: O_24  and  C_25
REMARK   14  A    between atoms: C_26  and  O_27
REMARK   15  A    between atoms: O_27  and  C_28
REMARK   16  A    between atoms: C_30  and  O_31
REMARK   17  A    between atoms: O_31  and  C_32
REMARK                            x       y       z     vdW  Elec       q    Type
REMARK                         _______ _______ _______ _____ _____    ______ ____
ROOT
ATOM      1  C   UNL     1       1.926   8.824  18.088  0.00  0.00    +0.000 C 
ENDROOT
BRANCH   1   2
ATOM      2  C   UNL     1       2.879   7.633  18.026  0.00  0.00    +0.000 C 
BRANCH   2   3
ATOM      3  N   UNL     1       2.310   6.429  18.677  0.00  0.00    +0.000 NA
ATOM      4  C   UNL     1       3.007   6.196  19.944  0.00  0.00    +0.000 C 
BRANCH   3   5
ATOM      5  C   UNL     1       2.374   5.250  17.788  0.00  0.00    +0.000 C 
BRANCH   5   6
ATOM      6  C   UNL     1       3.492   4.234  18.097  0.00  0.00    +0.000 C 
BRANCH   6  10
ATOM      7  C   UNL     1       6.734   5.093  15.352  0.00  0.00    +0.000 A 
ATOM      8  C   UNL     1       5.635   4.316  14.941  0.00  0.00    +0.000 A 
ATOM      9  C   UNL     1       4.606   4.006  15.834  0.00  0.00    +0.000 A 
ATOM     10  C   UNL     1       4.658   4.456  17.151  0.00  0.00    +0.000 A 
ATOM     11  C   UNL     1       5.769   5.188  17.572  0.00  0.00    +0.000 A 
ATOM     12  C   UNL     1       6.817   5.503  16.692  0.00  0.00    +0.000 A 
BRANCH   7  14
ATOM     13  C   UNL     1       7.583   4.979  13.137  0.00  0.00    +0.000 C 
ATOM     14  O   UNL     1       7.745   5.436  14.485  0.00  0.00    +0.000 OA
ENDBRANCH   7  14
BRANCH  12  15
ATOM     15  O   UNL     1       7.793   6.239  17.306  0.00  0.00    +0.000 OA
ATOM     16  C   UNL     1       7.776   6.361  18.720  0.00  0.00    +0.000 C 
ENDBRANCH  12  15
ENDBRANCH   6  10
ENDBRANCH   5   6
ENDBRANCH   3   5
ENDBRANCH   2   3
ENDBRANCH   1   2
BRANCH   1  17
ATOM     17  C   UNL     1       1.258   9.035  19.455  0.00  0.00    +0.000 C 
BRANCH  17  18
ATOM     18  C   UNL     1       0.435  10.317  19.414  0.00  0.00    +0.000 C 
ATOM     19  C   UNL     1       1.122  11.685  19.268  0.00  0.00    +0.000 C 
ATOM     20  C   UNL     1       0.036  12.765  19.544  0.00  0.00    +0.000 C 
ATOM     21  C   UNL     1      -0.818  12.052  20.565  0.00  0.00    +0.000 A 
ATOM     22  C   UNL     1      -0.231  10.786  20.806  0.00  0.00    +0.000 A 
ATOM     23  C   UNL     1      -0.369  10.296  22.088  0.00  0.00    +0.000 A 
ATOM     24  C   UNL     1      -1.214  10.980  22.979  0.00  0.00    +0.000 A 
ATOM     25  C   UNL     1      -2.062  12.047  22.582  0.00  0.00    +0.000 A 
ATOM     26  C   UNL     1      -1.890  12.559  21.303  0.00  0.00    +0.000 A 
BRANCH  18  27
ATOM     27  C   UNL     1      -0.874  10.105  18.670  0.00  0.00    +0.000 C 
ATOM     28  N   UNL     1      -1.959   9.929  18.053  0.00  0.00    +0.000 NA
ENDBRANCH  18  27
BRANCH  25  29
ATOM     29  O   UNL     1      -2.897  12.517  23.566  0.00  0.00    +0.000 OA
ATOM     30  C   UNL     1      -2.697  13.844  24.050  0.00  0.00    +0.000 C 
ENDBRANCH  25  29
BRANCH  26  31
ATOM     31  O   UNL     1      -2.691  13.543  20.791  0.00  0.00    +0.000 OA
ATOM     32  C   UNL     1      -3.939  13.014  20.307  0.00  0.00    +0.000 C 
ENDBRANCH  26  31
ENDBRANCH  17  18
ENDBRANCH   1  17
TORSDOF 12
ENDMDL
MODEL 9
REMARK VINA RESULT:      -6.5      4.159      7.623
REMARK  Name = 
REMARK  17 active torsions:
REMARK  status: ('A' for Active; 'I' for Inactive)
REMARK    1  A    between atoms: C_1  and  O_2
REMARK    2  A    between atoms: O_2  and  C_3
REMARK    3  A    between atoms: C_6  and  C_7
REMARK    4  A    between atoms: C_7  and  C_8
REMARK    5  A    between atoms: C_8  and  N_9
REMARK    6  A    between atoms: N_9  and  C_10
REMARK    7  A    between atoms: N_9  and  C_11
REMARK    8  A    between atoms: C_11  and  C_12
REMARK    9  A    between atoms: C_12  and  C_13
REMARK   10  A    between atoms: C_13  and  C_14
REMARK   11  A    between atoms: C_14  and  C_15
REMARK   12  A    between atoms: C_23  and  O_24
REMARK   13  A    between atoms: O_24  and  C_25
REMARK   14  A    between atoms: C_26  and  O_27
REMARK   15  A    between atoms: O_27  and  C_28
REMARK   16  A    between atoms: C_30  and  O_31
REMARK   17  A    between atoms: O_31  and  C_32
REMARK                            x       y       z     vdW  Elec       q    Type
REMARK                         _______ _______ _______ _____ _____    ______ ____
ROOT
ATOM      1  C   UNL     1       1.672   7.227  18.388  0.00  0.00    +0.000 C 
ENDROOT
BRANCH   1   2
ATOM      2  C   UNL     1       2.437   6.470  19.471  0.00  0.00    +0.000 C 
BRANCH   2   3
ATOM      3  N   UNL     1       1.886   5.113  19.697  0.00  0.00    +0.000 NA
ATOM      4  C   UNL     1       2.313   4.637  21.015  0.00  0.00    +0.000 C 
BRANCH   3   5
ATOM      5  C   UNL     1       2.281   4.181  18.621  0.00  0.00    +0.000 C 
BRANCH   5   6
ATOM      6  C   UNL     1       3.657   3.506  18.784  0.00  0.00    +0.000 C 
BRANCH   6  10
ATOM      7  C   UNL     1       6.930   6.107  17.640  0.00  0.00    +0.000 A 
ATOM      8  C   UNL     1       6.667   5.842  18.996  0.00  0.00    +0.000 A 
ATOM      9  C   UNL     1       5.590   5.033  19.371  0.00  0.00    +0.000 A 
ATOM     10  C   UNL     1       4.753   4.484  18.402  0.00  0.00    +0.000 A 
ATOM     11  C   UNL     1       4.985   4.784  17.059  0.00  0.00    +0.000 A 
ATOM     12  C   UNL     1       6.058   5.600  16.664  0.00  0.00    +0.000 A 
BRANCH   7  14
ATOM     13  C   UNL     1       7.939   8.256  17.618  0.00  0.00    +0.000 C 
ATOM     14  O   UNL     1       8.000   6.875  17.244  0.00  0.00    +0.000 OA
ENDBRANCH   7  14
BRANCH  12  15
ATOM     15  O   UNL     1       6.110   5.749  15.305  0.00  0.00    +0.000 OA
ATOM     16  C   UNL     1       5.517   4.756  14.481  0.00  0.00    +0.000 C 
ENDBRANCH  12  15
ENDBRANCH   6  10
ENDBRANCH   5   6
ENDBRANCH   3   5
ENDBRANCH   2   3
ENDBRANCH   1   2
BRANCH   1  17
ATOM     17  C   UNL     1       2.230   8.620  18.068  0.00  0.00    +0.000 C 
BRANCH  17  18
ATOM     18  C   UNL     1       1.439   9.665  18.846  0.00  0.00    +0.000 C 
ATOM     19  C   UNL     1       0.973   9.383  20.285  0.00  0.00    +0.000 C 
ATOM     20  C   UNL     1      -0.025  10.516  20.663  0.00  0.00    +0.000 C 
ATOM     21  C   UNL     1      -0.660  10.794  19.322  0.00  0.00    +0.000 A 
ATOM     22  C   UNL     1      -0.088   9.900  18.384  0.00  0.00    +0.000 A 
ATOM     23  C   UNL     1      -0.924   9.482  17.369  0.00  0.00    +0.000 A 
ATOM     24  C   UNL     1      -2.180  10.098  17.238  0.00  0.00    +0.000 A 
ATOM     25  C   UNL     1      -2.566  11.241  17.987  0.00  0.00    +0.000 A 
ATOM     26  C   UNL     1      -1.738  11.632  19.031  0.00  0.00    +0.000 A 
BRANCH  18  27
ATOM     27  C   UNL     1       1.924  11.070  18.527  0.00  0.00    +0.000 C 
ATOM     28  N   UNL     1       2.327  12.235  18.264  0.00  0.00    +0.000 NA
ENDBRANCH  18  27
BRANCH  25  29
ATOM     29  O   UNL     1      -3.786  11.770  17.643  0.00  0.00    +0.000 OA
ATOM     30  C   UNL     1      -4.960  11.009  17.921  0.00  0.00    +0.000 C 
ENDBRANCH  25  29
BRANCH  26  31
ATOM     31  O   UNL     1      -1.977  12.753  19.779  0.00  0.00    +0.000 OA
ATOM     32  C   UNL     1      -2.995  12.522  20.771  0.00  0.00    +0.000 C 
ENDBRANCH  26  31
ENDBRANCH  17  18
ENDBRANCH   1  17
TORSDOF 12
ENDMDL
