MODEL 1
REMARK VINA RESULT:      -6.9      0.000      0.000
REMARK  Name = 
REMARK  12 active torsions:
REMARK  status: ('A' for Active; 'I' for Inactive)
REMARK    1  A    between atoms: C_1  and  C_2
REMARK    2  A    between atoms: C_2  and  N_3
REMARK    3  A    between atoms: N_3  and  C_4
REMARK    4  A    between atoms: N_3  and  C_6
REMARK    5  A    between atoms: C_4  and  C_5
REMARK    6  A    between atoms: C_6  and  C_7
REMARK    7  A    between atoms: C_7  and  C_8
REMARK    8  A    between atoms: C_8  and  C_9
REMARK    9  A    between atoms: C_9  and  C_10
REMARK   10  A    between atoms: C_9  and  N_11
REMARK   11  A    between atoms: N_18  and  C_19
REMARK   12  A    between atoms: C_19  and  C_20
REMARK                            x       y       z     vdW  Elec       q    Type
REMARK                         _______ _______ _______ _____ _____    ______ ____
ROOT
ATOM      1  N   UNL     1       4.955   3.012  16.421  0.00  0.00    +0.000 N 
ATOM      2  C   UNL     1       3.983   3.183  17.425  0.00  0.00    +0.000 A 
ATOM      3  C   UNL     1       3.255   2.038  17.776  0.00  0.00    +0.000 A 
ATOM      4  C   UNL     1       2.197   2.122  18.689  0.00  0.00    +0.000 A 
ATOM      5  C   UNL     1       1.952   3.376  19.251  0.00  0.00    +0.000 A 
ATOM      6  C   UNL     1       1.042   3.937  20.167  0.00  0.00    +0.000 A 
ATOM      7  N   UNL     1       1.278   5.230  20.409  0.00  0.00    +0.000 NA
ATOM      8  N   UNL     1       2.345   5.507  19.610  0.00  0.00    +0.000 N 
ATOM      9  C   UNL     1       2.772   4.428  18.879  0.00  0.00    +0.000 A 
ATOM     10  N   UNL     1       3.784   4.392  17.988  0.00  0.00    +0.000 NA
ATOM     11  H   UNL     1       5.755   2.544  16.840  0.00  0.00    +0.000 HD
ENDROOT
BRANCH   1  12
ATOM     12  C   UNL     1       5.332   4.209  15.655  0.00  0.00    +0.000 C 
ATOM     13  C   UNL     1       5.273   3.884  14.153  0.00  0.00    +0.000 C 
BRANCH  12  14
ATOM     14  C   UNL     1       6.775   4.587  16.066  0.00  0.00    +0.000 C 
BRANCH  14  15
ATOM     15  C   UNL     1       7.097   6.088  16.025  0.00  0.00    +0.000 C 
BRANCH  15  16
ATOM     16  C   UNL     1       6.388   6.933  17.097  0.00  0.00    +0.000 C 
BRANCH  16  17
ATOM     17  N   UNL     1       7.280   7.487  18.130  0.00  0.00    +0.000 NA
BRANCH  17  19
ATOM     18  C   UNL     1       7.029   5.413  19.553  0.00  0.00    +0.000 C 
ATOM     19  C   UNL     1       7.960   6.426  18.895  0.00  0.00    +0.000 C 
ENDBRANCH  17  19
BRANCH  17  20
ATOM     20  C   UNL     1       8.201   8.491  17.561  0.00  0.00    +0.000 C 
ATOM     21  C   UNL     1       8.628   9.629  18.486  0.00  0.00    +0.000 C 
ENDBRANCH  17  20
ENDBRANCH  16  17
ENDBRANCH  15  16
ENDBRANCH  14  15
ENDBRANCH  12  14
ENDBRANCH   1  12
BRANCH   8  22
ATOM     22  C   UNL     1       2.996   6.809  19.694  0.00  0.00    +0.000 C 
BRANCH  22  23
ATOM     23  C   UNL     1       2.088   7.962  19.323  0.00  0.00    +0.000 A 
ATOM     24  C   UNL     1       1.873   8.265  17.963  0.00  0.00    +0.000 A 
ATOM     25  C   UNL     1       0.971   9.258  17.575  0.00  0.00    +0.000 A 
ATOM     26  C   UNL     1       0.257   9.954  18.543  0.00  0.00    +0.000 A 
ATOM     27 CL   UNL     1      -0.891  11.144  18.069  0.00  0.00    +0.000 Cl
ATOM     28  C   UNL     1       0.454   9.680  19.893  0.00  0.00    +0.000 A 
ATOM     29  C   UNL     1       1.366   8.693  20.282  0.00  0.00    +0.000 A 
ATOM     30 CL   UNL     1       1.536   8.413  21.979  0.00  0.00    +0.000 Cl
ENDBRANCH  22  23
ENDBRANCH   8  22
TORSDOF 9
ENDMDL
MODEL 2
REMARK VINA RESULT:      -6.8      3.164      7.322
REMARK  Name = 
REMARK  12 active torsions:
REMARK  status: ('A' for Active; 'I' for Inactive)
REMARK    1  A    between atoms: C_1  and  C_2
REMARK    2  A    between atoms: C_2  and  N_3
REMARK    3  A    between atoms: N_3  and  C_4
REMARK    4  A    between atoms: N_3  and  C_6
REMARK    5  A    between atoms: C_4  and  C_5
REMARK    6  A    between atoms: C_6  and  C_7
REMARK    7  A    between atoms: C_7  and  C_8
REMARK    8  A    between atoms: C_8  and  C_9
REMARK    9  A    between atoms: C_9  and  C_10
REMARK   10  A    between atoms: C_9  and  N_11
REMARK   11  A    between atoms: N_18  and  C_19
REMARK   12  A    between atoms: C_19  and  C_20
REMARK                            x       y       z     vdW  Elec       q    Type
REMARK                         _______ _______ _______ _____ _____    ______ ____
ROOT
ATOM      1  N   UNL     1       0.866   6.843  20.545  0.00  0.00    +0.000 N 
ATOM      2  C   UNL     1       1.648   5.687  20.354  0.00  0.00    +0.000 A 
ATOM      3  C   UNL     1       0.998   4.465  20.569  0.00  0.00    +0.000 A 
ATOM      4  C   UNL     1       1.710   3.262  20.506  0.00  0.00    +0.000 A 
ATOM      5  C   UNL     1       3.064   3.351  20.174  0.00  0.00    +0.000 A 
ATOM      6  C   UNL     1       4.146   2.468  20.001  0.00  0.00    +0.000 A 
ATOM      7  N   UNL     1       5.268   3.087  19.621  0.00  0.00    +0.000 NA
ATOM      8  N   UNL     1       4.902   4.397  19.577  0.00  0.00    +0.000 N 
ATOM      9  C   UNL     1       3.591   4.607  19.922  0.00  0.00    +0.000 A 
ATOM     10  N   UNL     1       2.943   5.788  19.994  0.00  0.00    +0.000 NA
ATOM     11  H   UNL     1       0.256   6.942  19.736  0.00  0.00    +0.000 HD
ENDROOT
BRANCH   1  12
ATOM     12  C   UNL     1       1.586   8.083  20.871  0.00  0.00    +0.000 C 
ATOM     13  C   UNL     1       0.901   8.762  22.070  0.00  0.00    +0.000 C 
BRANCH  12  14
ATOM     14  C   UNL     1       1.521   8.998  19.625  0.00  0.00    +0.000 C 
BRANCH  14  15
ATOM     15  C   UNL     1       0.599  10.220  19.757  0.00  0.00    +0.000 C 
BRANCH  15  16
ATOM     16  C   UNL     1      -0.844   9.998  19.275  0.00  0.00    +0.000 C 
BRANCH  16  17
ATOM     17  N   UNL     1      -1.287  10.924  18.218  0.00  0.00    +0.000 NA
BRANCH  17  19
ATOM     18  C   UNL     1      -3.557  11.420  17.222  0.00  0.00    +0.000 C 
ATOM     19  C   UNL     1      -2.453  10.400  17.485  0.00  0.00    +0.000 C 
ENDBRANCH  17  19
BRANCH  17  20
ATOM     20  C   UNL     1      -1.482  12.288  18.748  0.00  0.00    +0.000 C 
ATOM     21  C   UNL     1      -0.471  13.344  18.307  0.00  0.00    +0.000 C 
ENDBRANCH  17  20
ENDBRANCH  16  17
ENDBRANCH  15  16
ENDBRANCH  14  15
ENDBRANCH  12  14
ENDBRANCH   1  12
BRANCH   8  22
ATOM     22  C   UNL     1       5.833   5.394  19.064  0.00  0.00    +0.000 C 
BRANCH  22  23
ATOM     23  C   UNL     1       6.067   5.288  17.572  0.00  0.00    +0.000 A 
ATOM     24  C   UNL     1       7.084   4.439  17.089  0.00  0.00    +0.000 A 
ATOM     25  C   UNL     1       7.272   4.239  15.720  0.00  0.00    +0.000 A 
ATOM     26  C   UNL     1       6.433   4.873  14.810  0.00  0.00    +0.000 A 
ATOM     27 CL   UNL     1       6.630   4.592  13.125  0.00  0.00    +0.000 Cl
ATOM     28  C   UNL     1       5.426   5.721  15.258  0.00  0.00    +0.000 A 
ATOM     29  C   UNL     1       5.245   5.931  16.630  0.00  0.00    +0.000 A 
ATOM     30 CL   UNL     1       3.960   6.990  17.095  0.00  0.00    +0.000 Cl
ENDBRANCH  22  23
ENDBRANCH   8  22
TORSDOF 9
ENDMDL
MODEL 3
REMARK VINA RESULT:      -6.7      2.184      4.316
REMARK  Name = 
REMARK  12 active torsions:
REMARK  status: ('A' for Active; 'I' for Inactive)
REMARK    1  A    between atoms: C_1  and  C_2
REMARK    2  A    between atoms: C_2  and  N_3
REMARK    3  A    between atoms: N_3  and  C_4
REMARK    4  A    between atoms: N_3  and  C_6
REMARK    5  A    between atoms: C_4  and  C_5
REMARK    6  A    between atoms: C_6  and  C_7
REMARK    7  A    between atoms: C_7  and  C_8
REMARK    8  A    between atoms: C_8  and  C_9
REMARK    9  A    between atoms: C_9  and  C_10
REMARK   10  A    between atoms: C_9  and  N_11
REMARK   11  A    between atoms: N_18  and  C_19
REMARK   12  A    between atoms: C_19  and  C_20
REMARK                            x       y       z     vdW  Elec       q    Type
REMARK                         _______ _______ _______ _____ _____    ______ ____
ROOT
ATOM      1  N   UNL     1       5.556   3.492  16.872  0.00  0.00    +0.000 N 
ATOM      2  C   UNL     1       4.383   3.458  17.650  0.00  0.00    +0.000 A 
ATOM      3  C   UNL     1       3.653   2.263  17.606  0.00  0.00    +0.000 A 
ATOM      4  C   UNL     1       2.420   2.160  18.261  0.00  0.00    +0.000 A 
ATOM      5  C   UNL     1       1.999   3.278  18.983  0.00  0.00    +0.000 A 
ATOM      6  C   UNL     1       0.886   3.645  19.764  0.00  0.00    +0.000 A 
ATOM      7  N   UNL     1       1.002   4.867  20.294  0.00  0.00    +0.000 NA
ATOM      8  N   UNL     1       2.201   5.301  19.818  0.00  0.00    +0.000 N 
ATOM      9  C   UNL     1       2.828   4.388  19.008  0.00  0.00    +0.000 A 
ATOM     10  N   UNL     1       4.009   4.532  18.374  0.00  0.00    +0.000 NA
ATOM     11  H   UNL     1       6.268   2.955  17.361  0.00  0.00    +0.000 HD
ENDROOT
BRANCH   1  12
ATOM     12  C   UNL     1       6.032   4.818  16.450  0.00  0.00    +0.000 C 
ATOM     13  C   UNL     1       4.823   5.752  16.269  0.00  0.00    +0.000 C 
BRANCH  12  14
ATOM     14  C   UNL     1       6.776   4.636  15.105  0.00  0.00    +0.000 C 
BRANCH  14  15
ATOM     15  C   UNL     1       6.166   3.597  14.153  0.00  0.00    +0.000 C 
BRANCH  15  16
ATOM     16  C   UNL     1       5.344   4.183  12.993  0.00  0.00    +0.000 C 
BRANCH  16  17
ATOM     17  N   UNL     1       5.302   3.343  11.784  0.00  0.00    +0.000 NA
BRANCH  17  19
ATOM     18  C   UNL     1       7.294   2.011  10.978  0.00  0.00    +0.000 C 
ATOM     19  C   UNL     1       6.113   2.122  11.937  0.00  0.00    +0.000 C 
ENDBRANCH  17  19
BRANCH  17  20
ATOM     20  C   UNL     1       3.911   3.083  11.360  0.00  0.00    +0.000 C 
ATOM     21  C   UNL     1       3.428   3.820  10.113  0.00  0.00    +0.000 C 
ENDBRANCH  17  20
ENDBRANCH  16  17
ENDBRANCH  15  16
ENDBRANCH  14  15
ENDBRANCH  12  14
ENDBRANCH   1  12
BRANCH   8  22
ATOM     22  C   UNL     1       2.755   6.564  20.290  0.00  0.00    +0.000 C 
BRANCH  22  23
ATOM     23  C   UNL     1       1.790   7.724  20.177  0.00  0.00    +0.000 A 
ATOM     24  C   UNL     1       0.993   8.073  21.287  0.00  0.00    +0.000 A 
ATOM     25  C   UNL     1       0.160   9.193  21.258  0.00  0.00    +0.000 A 
ATOM     26  C   UNL     1       0.122   9.993  20.122  0.00  0.00    +0.000 A 
ATOM     27 CL   UNL     1      -0.867  11.400  20.099  0.00  0.00    +0.000 Cl
ATOM     28  C   UNL     1       0.892   9.669  19.010  0.00  0.00    +0.000 A 
ATOM     29  C   UNL     1       1.719   8.541  19.035  0.00  0.00    +0.000 A 
ATOM     30 CL   UNL     1       2.650   8.223  17.613  0.00  0.00    +0.000 Cl
ENDBRANCH  22  23
ENDBRANCH   8  22
TORSDOF 9
ENDMDL
MODEL 4
REMARK VINA RESULT:      -6.7      3.280      7.362
REMARK  Name = 
REMARK  12 active torsions:
REMARK  status: ('A' for Active; 'I' for Inactive)
REMARK    1  A    between atoms: C_1  and  C_2
REMARK    2  A    between atoms: C_2  and  N_3
REMARK    3  A    between atoms: N_3  and  C_4
REMARK    4  A    between atoms: N_3  and  C_6
REMARK    5  A    between atoms: C_4  and  C_5
REMARK    6  A    between atoms: C_6  and  C_7
REMARK    7  A    between atoms: C_7  and  C_8
REMARK    8  A    between atoms: C_8  and  C_9
REMARK    9  A    between atoms: C_9  and  C_10
REMARK   10  A    between atoms: C_9  and  N_11
REMARK   11  A    between atoms: N_18  and  C_19
REMARK   12  A    between atoms: C_19  and  C_20
REMARK                            x       y       z     vdW  Elec       q    Type
REMARK                         _______ _______ _______ _____ _____    ______ ____
ROOT
ATOM      1  N   UNL     1       0.820   6.557  20.641  0.00  0.00    +0.000 N 
ATOM      2  C   UNL     1       1.622   5.419  20.435  0.00  0.00    +0.000 A 
ATOM      3  C   UNL     1       1.030   4.187  20.745  0.00  0.00    +0.000 A 
ATOM      4  C   UNL     1       1.775   3.004  20.674  0.00  0.00    +0.000 A 
ATOM      5  C   UNL     1       3.096   3.120  20.237  0.00  0.00    +0.000 A 
ATOM      6  C   UNL     1       4.190   2.262  20.016  0.00  0.00    +0.000 A 
ATOM      7  N   UNL     1       5.260   2.898  19.529  0.00  0.00    +0.000 NA
ATOM      8  N   UNL     1       4.849   4.194  19.463  0.00  0.00    +0.000 N 
ATOM      9  C   UNL     1       3.562   4.380  19.899  0.00  0.00    +0.000 A 
ATOM     10  N   UNL     1       2.883   5.543  19.975  0.00  0.00    +0.000 NA
ATOM     11  H   UNL     1       0.149   6.606  19.877  0.00  0.00    +0.000 HD
ENDROOT
BRANCH   1  12
ATOM     12  C   UNL     1       1.522   7.830  20.864  0.00  0.00    +0.000 C 
ATOM     13  C   UNL     1       0.745   8.658  21.902  0.00  0.00    +0.000 C 
BRANCH  12  14
ATOM     14  C   UNL     1       1.570   8.576  19.510  0.00  0.00    +0.000 C 
BRANCH  14  15
ATOM     15  C   UNL     1       0.880   9.948  19.492  0.00  0.00    +0.000 C 
BRANCH  15  16
ATOM     16  C   UNL     1       0.375  10.403  18.112  0.00  0.00    +0.000 C 
BRANCH  16  17
ATOM     17  N   UNL     1      -1.022  10.870  18.093  0.00  0.00    +0.000 NA
BRANCH  17  19
ATOM     18  C   UNL     1      -2.634  10.612  16.163  0.00  0.00    +0.000 C 
ATOM     19  C   UNL     1      -1.892   9.961  17.325  0.00  0.00    +0.000 C 
ENDBRANCH  17  19
BRANCH  17  20
ATOM     20  C   UNL     1      -1.512  11.151  19.457  0.00  0.00    +0.000 C 
ATOM     21  C   UNL     1      -2.210  12.493  19.669  0.00  0.00    +0.000 C 
ENDBRANCH  17  20
ENDBRANCH  16  17
ENDBRANCH  15  16
ENDBRANCH  14  15
ENDBRANCH  12  14
ENDBRANCH   1  12
BRANCH   8  22
ATOM     22  C   UNL     1       5.706   5.197  18.843  0.00  0.00    +0.000 C 
BRANCH  22  23
ATOM     23  C   UNL     1       6.029   4.901  17.394  0.00  0.00    +0.000 A 
ATOM     24  C   UNL     1       5.392   3.821  16.749  0.00  0.00    +0.000 A 
ATOM     25  C   UNL     1       5.589   3.570  15.389  0.00  0.00    +0.000 A 
ATOM     26  C   UNL     1       6.416   4.406  14.648  0.00  0.00    +0.000 A 
ATOM     27 CL   UNL     1       6.624   4.130  12.963  0.00  0.00    +0.000 Cl
ATOM     28  C   UNL     1       7.063   5.475  15.260  0.00  0.00    +0.000 A 
ATOM     29  C   UNL     1       6.874   5.720  16.625  0.00  0.00    +0.000 A 
ATOM     30 CL   UNL     1       7.708   7.077  17.297  0.00  0.00    +0.000 Cl
ENDBRANCH  22  23
ENDBRANCH   8  22
TORSDOF 9
ENDMDL
MODEL 5
REMARK VINA RESULT:      -6.6      3.287      7.211
REMARK  Name = 
REMARK  12 active torsions:
REMARK  status: ('A' for Active; 'I' for Inactive)
REMARK    1  A    between atoms: C_1  and  C_2
REMARK    2  A    between atoms: C_2  and  N_3
REMARK    3  A    between atoms: N_3  and  C_4
REMARK    4  A    between atoms: N_3  and  C_6
REMARK    5  A    between atoms: C_4  and  C_5
REMARK    6  A    between atoms: C_6  and  C_7
REMARK    7  A    between atoms: C_7  and  C_8
REMARK    8  A    between atoms: C_8  and  C_9
REMARK    9  A    between atoms: C_9  and  C_10
REMARK   10  A    between atoms: C_9  and  N_11
REMARK   11  A    between atoms: N_18  and  C_19
REMARK   12  A    between atoms: C_19  and  C_20
REMARK                            x       y       z     vdW  Elec       q    Type
REMARK                         _______ _______ _______ _____ _____    ______ ____
ROOT
ATOM      1  N   UNL     1       0.834   6.816  20.550  0.00  0.00    +0.000 N 
ATOM      2  C   UNL     1       1.633   5.672  20.359  0.00  0.00    +0.000 A 
ATOM      3  C   UNL     1       1.007   4.441  20.593  0.00  0.00    +0.000 A 
ATOM      4  C   UNL     1       1.740   3.250  20.532  0.00  0.00    +0.000 A 
ATOM      5  C   UNL     1       3.087   3.359  20.182  0.00  0.00    +0.000 A 
ATOM      6  C   UNL     1       4.182   2.493  20.002  0.00  0.00    +0.000 A 
ATOM      7  N   UNL     1       5.288   3.127  19.602  0.00  0.00    +0.000 NA
ATOM      8  N   UNL     1       4.898   4.431  19.551  0.00  0.00    +0.000 N 
ATOM      9  C   UNL     1       3.589   4.622  19.912  0.00  0.00    +0.000 A 
ATOM     10  N   UNL     1       2.921   5.792  19.981  0.00  0.00    +0.000 NA
ATOM     11  H   UNL     1       0.212   6.897  19.748  0.00  0.00    +0.000 HD
ENDROOT
BRANCH   1  12
ATOM     12  C   UNL     1       1.537   8.071  20.855  0.00  0.00    +0.000 C 
ATOM     13  C   UNL     1       0.871   8.737  22.071  0.00  0.00    +0.000 C 
BRANCH  12  14
ATOM     14  C   UNL     1       1.418   8.983  19.611  0.00  0.00    +0.000 C 
BRANCH  14  15
ATOM     15  C   UNL     1       0.182   9.894  19.582  0.00  0.00    +0.000 C 
BRANCH  15  16
ATOM     16  C   UNL     1       0.464  11.379  19.862  0.00  0.00    +0.000 C 
BRANCH  16  17
ATOM     17  N   UNL     1      -0.739  12.217  20.004  0.00  0.00    +0.000 NA
BRANCH  17  19
ATOM     18  C   UNL     1      -0.770  12.444  22.521  0.00  0.00    +0.000 C 
ATOM     19  C   UNL     1      -1.458  11.935  21.259  0.00  0.00    +0.000 C 
ENDBRANCH  17  19
BRANCH  17  20
ATOM     20  C   UNL     1      -0.424  13.646  19.808  0.00  0.00    +0.000 C 
ATOM     21  C   UNL     1       0.643  13.974  18.766  0.00  0.00    +0.000 C 
ENDBRANCH  17  20
ENDBRANCH  16  17
ENDBRANCH  15  16
ENDBRANCH  14  15
ENDBRANCH  12  14
ENDBRANCH   1  12
BRANCH   8  22
ATOM     22  C   UNL     1       5.805   5.439  19.016  0.00  0.00    +0.000 C 
BRANCH  22  23
ATOM     23  C   UNL     1       6.044   5.306  17.527  0.00  0.00    +0.000 A 
ATOM     24  C   UNL     1       7.075   4.464  17.063  0.00  0.00    +0.000 A 
ATOM     25  C   UNL     1       7.269   4.238  15.699  0.00  0.00    +0.000 A 
ATOM     26  C   UNL     1       6.422   4.840  14.775  0.00  0.00    +0.000 A 
ATOM     27 CL   UNL     1       6.626   4.527  13.097  0.00  0.00    +0.000 Cl
ATOM     28  C   UNL     1       5.400   5.681  15.204  0.00  0.00    +0.000 A 
ATOM     29  C   UNL     1       5.213   5.915  16.571  0.00  0.00    +0.000 A 
ATOM     30 CL   UNL     1       3.911   6.964  17.012  0.00  0.00    +0.000 Cl
ENDBRANCH  22  23
ENDBRANCH   8  22
TORSDOF 9
ENDMDL
MODEL 6
REMARK VINA RESULT:      -6.6      3.542      7.746
REMARK  Name = 
REMARK  12 active torsions:
REMARK  status: ('A' for Active; 'I' for Inactive)
REMARK    1  A    between atoms: C_1  and  C_2
REMARK    2  A    between atoms: C_2  and  N_3
REMARK    3  A    between atoms: N_3  and  C_4
REMARK    4  A    between atoms: N_3  and  C_6
REMARK    5  A    between atoms: C_4  and  C_5
REMARK    6  A    between atoms: C_6  and  C_7
REMARK    7  A    between atoms: C_7  and  C_8
REMARK    8  A    between atoms: C_8  and  C_9
REMARK    9  A    between atoms: C_9  and  C_10
REMARK   10  A    between atoms: C_9  and  N_11
REMARK   11  A    between atoms: N_18  and  C_19
REMARK   12  A    between atoms: C_19  and  C_20
REMARK                            x       y       z     vdW  Elec       q    Type
REMARK                         _______ _______ _______ _____ _____    ______ ____
ROOT
ATOM      1  N   UNL     1       0.828   7.218  20.629  0.00  0.00    +0.000 N 
ATOM      2  C   UNL     1       1.573   6.042  20.415  0.00  0.00    +0.000 A 
ATOM      3  C   UNL     1       0.941   4.843  20.768  0.00  0.00    +0.000 A 
ATOM      4  C   UNL     1       1.631   3.628  20.692  0.00  0.00    +0.000 A 
ATOM      5  C   UNL     1       2.939   3.679  20.207  0.00  0.00    +0.000 A 
ATOM      6  C   UNL     1       3.987   2.771  19.962  0.00  0.00    +0.000 A 
ATOM      7  N   UNL     1       5.065   3.352  19.426  0.00  0.00    +0.000 NA
ATOM      8  N   UNL     1       4.708   4.663  19.351  0.00  0.00    +0.000 N 
ATOM      9  C   UNL     1       3.446   4.912  19.829  0.00  0.00    +0.000 A 
ATOM     10  N   UNL     1       2.821   6.104  19.908  0.00  0.00    +0.000 NA
ATOM     11  H   UNL     1       0.133   7.283  19.889  0.00  0.00    +0.000 HD
ENDROOT
BRANCH   1  12
ATOM     12  C   UNL     1       1.592   8.462  20.804  0.00  0.00    +0.000 C 
ATOM     13  C   UNL     1       1.331   9.018  22.215  0.00  0.00    +0.000 C 
BRANCH  12  14
ATOM     14  C   UNL     1       1.098   9.464  19.733  0.00  0.00    +0.000 C 
BRANCH  14  15
ATOM     15  C   UNL     1      -0.387   9.844  19.827  0.00  0.00    +0.000 C 
BRANCH  15  16
ATOM     16  C   UNL     1      -1.033  10.268  18.497  0.00  0.00    +0.000 C 
BRANCH  16  17
ATOM     17  N   UNL     1      -2.115  11.259  18.628  0.00  0.00    +0.000 NA
BRANCH  17  19
ATOM     18  C   UNL     1      -0.534  13.207  18.318  0.00  0.00    +0.000 C 
ATOM     19  C   UNL     1      -1.621  12.543  19.157  0.00  0.00    +0.000 C 
ENDBRANCH  17  19
BRANCH  17  20
ATOM     20  C   UNL     1      -2.879  11.389  17.371  0.00  0.00    +0.000 C 
ATOM     21  C   UNL     1      -4.393  11.539  17.503  0.00  0.00    +0.000 C 
ENDBRANCH  17  20
ENDBRANCH  16  17
ENDBRANCH  15  16
ENDBRANCH  14  15
ENDBRANCH  12  14
ENDBRANCH   1  12
BRANCH   8  22
ATOM     22  C   UNL     1       5.584   5.618  18.683  0.00  0.00    +0.000 C 
BRANCH  22  23
ATOM     23  C   UNL     1       5.901   5.244  17.251  0.00  0.00    +0.000 A 
ATOM     24  C   UNL     1       4.962   5.527  16.237  0.00  0.00    +0.000 A 
ATOM     25  C   UNL     1       5.253   5.285  14.893  0.00  0.00    +0.000 A 
ATOM     26  C   UNL     1       6.495   4.770  14.539  0.00  0.00    +0.000 A 
ATOM     27 CL   UNL     1       6.875   4.517  12.881  0.00  0.00    +0.000 Cl
ATOM     28  C   UNL     1       7.437   4.476  15.519  0.00  0.00    +0.000 A 
ATOM     29  C   UNL     1       7.142   4.707  16.867  0.00  0.00    +0.000 A 
ATOM     30 CL   UNL     1       8.378   4.323  18.013  0.00  0.00    +0.000 Cl
ENDBRANCH  22  23
ENDBRANCH   8  22
TORSDOF 9
ENDMDL
MODEL 7
REMARK VINA RESULT:      -6.5      3.199      7.327
REMARK  Name = 
REMARK  12 active torsions:
REMARK  status: ('A' for Active; 'I' for Inactive)
REMARK    1  A    between atoms: C_1  and  C_2
REMARK    2  A    between atoms: C_2  and  N_3
REMARK    3  A    between atoms: N_3  and  C_4
REMARK    4  A    between atoms: N_3  and  C_6
REMARK    5  A    between atoms: C_4  and  C_5
REMARK    6  A    between atoms: C_6  and  C_7
REMARK    7  A    between atoms: C_7  and  C_8
REMARK    8  A    between atoms: C_8  and  C_9
REMARK    9  A    between atoms: C_9  and  C_10
REMARK   10  A    between atoms: C_9  and  N_11
REMARK   11  A    between atoms: N_18  and  C_19
REMARK   12  A    between atoms: C_19  and  C_20
REMARK                            x       y       z     vdW  Elec       q    Type
REMARK                         _______ _______ _______ _____ _____    ______ ____
ROOT
ATOM      1  N   UNL     1       0.919   6.591  20.699  0.00  0.00    +0.000 N 
ATOM      2  C   UNL     1       1.714   5.450  20.474  0.00  0.00    +0.000 A 
ATOM      3  C   UNL     1       1.145   4.224  20.841  0.00  0.00    +0.000 A 
ATOM      4  C   UNL     1       1.890   3.042  20.754  0.00  0.00    +0.000 A 
ATOM      5  C   UNL     1       3.185   3.153  20.244  0.00  0.00    +0.000 A 
ATOM      6  C   UNL     1       4.269   2.294  19.981  0.00  0.00    +0.000 A 
ATOM      7  N   UNL     1       5.308   2.923  19.424  0.00  0.00    +0.000 NA
ATOM      8  N   UNL     1       4.889   4.216  19.353  0.00  0.00    +0.000 N 
ATOM      9  C   UNL     1       3.626   4.406  19.854  0.00  0.00    +0.000 A 
ATOM     10  N   UNL     1       2.947   5.569  19.943  0.00  0.00    +0.000 NA
ATOM     11  H   UNL     1       0.207   6.621  19.972  0.00  0.00    +0.000 HD
ENDROOT
BRANCH   1  12
ATOM     12  C   UNL     1       1.627   7.870  20.857  0.00  0.00    +0.000 C 
ATOM     13  C   UNL     1       0.819   8.778  21.799  0.00  0.00    +0.000 C 
BRANCH  12  14
ATOM     14  C   UNL     1       1.738   8.514  19.454  0.00  0.00    +0.000 C 
BRANCH  14  15
ATOM     15  C   UNL     1       0.923   9.801  19.258  0.00  0.00    +0.000 C 
BRANCH  15  16
ATOM     16  C   UNL     1      -0.002   9.801  18.030  0.00  0.00    +0.000 C 
BRANCH  16  17
ATOM     17  N   UNL     1      -1.188  10.666  18.154  0.00  0.00    +0.000 NA
BRANCH  17  19
ATOM     18  C   UNL     1      -2.562  10.080  16.115  0.00  0.00    +0.000 C 
ATOM     19  C   UNL     1      -2.400  10.013  17.630  0.00  0.00    +0.000 C 
ENDBRANCH  17  19
BRANCH  17  20
ATOM     20  C   UNL     1      -1.336  11.177  19.532  0.00  0.00    +0.000 C 
ATOM     21  C   UNL     1      -2.199  12.425  19.709  0.00  0.00    +0.000 C 
ENDBRANCH  17  20
ENDBRANCH  16  17
ENDBRANCH  15  16
ENDBRANCH  14  15
ENDBRANCH  12  14
ENDBRANCH   1  12
BRANCH   8  22
ATOM     22  C   UNL     1       5.706   5.208  18.666  0.00  0.00    +0.000 C 
BRANCH  22  23
ATOM     23  C   UNL     1       5.873   4.932  17.187  0.00  0.00    +0.000 A 
ATOM     24  C   UNL     1       7.158   4.994  16.611  0.00  0.00    +0.000 A 
ATOM     25  C   UNL     1       7.369   4.655  15.273  0.00  0.00    +0.000 A 
ATOM     26  C   UNL     1       6.299   4.232  14.493  0.00  0.00    +0.000 A 
ATOM     27 CL   UNL     1       6.563   3.768  12.858  0.00  0.00    +0.000 Cl
ATOM     28  C   UNL     1       5.019   4.168  15.033  0.00  0.00    +0.000 A 
ATOM     29  C   UNL     1       4.805   4.519  16.371  0.00  0.00    +0.000 A 
ATOM     30 CL   UNL     1       3.184   4.396  16.961  0.00  0.00    +0.000 Cl
ENDBRANCH  22  23
ENDBRANCH   8  22
TORSDOF 9
ENDMDL
MODEL 8
REMARK VINA RESULT:      -6.5      0.359      1.364
REMARK  Name = 
REMARK  12 active torsions:
REMARK  status: ('A' for Active; 'I' for Inactive)
REMARK    1  A    between atoms: C_1  and  C_2
REMARK    2  A    between atoms: C_2  and  N_3
REMARK    3  A    between atoms: N_3  and  C_4
REMARK    4  A    between atoms: N_3  and  C_6
REMARK    5  A    between atoms: C_4  and  C_5
REMARK    6  A    between atoms: C_6  and  C_7
REMARK    7  A    between atoms: C_7  and  C_8
REMARK    8  A    between atoms: C_8  and  C_9
REMARK    9  A    between atoms: C_9  and  C_10
REMARK   10  A    between atoms: C_9  and  N_11
REMARK   11  A    between atoms: N_18  and  C_19
REMARK   12  A    between atoms: C_19  and  C_20
REMARK                            x       y       z     vdW  Elec       q    Type
REMARK                         _______ _______ _______ _____ _____    ______ ____
ROOT
ATOM      1  N   UNL     1       4.840   2.819  16.660  0.00  0.00    +0.000 N 
ATOM      2  C   UNL     1       3.844   3.029  17.633  0.00  0.00    +0.000 A 
ATOM      3  C   UNL     1       3.061   1.915  17.959  0.00  0.00    +0.000 A 
ATOM      4  C   UNL     1       1.979   2.041  18.838  0.00  0.00    +0.000 A 
ATOM      5  C   UNL     1       1.767   3.304  19.394  0.00  0.00    +0.000 A 
ATOM      6  C   UNL     1       0.852   3.902  20.281  0.00  0.00    +0.000 A 
ATOM      7  N   UNL     1       1.132   5.185  20.532  0.00  0.00    +0.000 NA
ATOM      8  N   UNL     1       2.234   5.419  19.767  0.00  0.00    +0.000 N 
ATOM      9  C   UNL     1       2.640   4.323  19.049  0.00  0.00    +0.000 A 
ATOM     10  N   UNL     1       3.678   4.245  18.191  0.00  0.00    +0.000 NA
ATOM     11  H   UNL     1       5.607   2.319  17.103  0.00  0.00    +0.000 HD
ENDROOT
BRANCH   1  12
ATOM     12  C   UNL     1       5.289   4.000  15.907  0.00  0.00    +0.000 C 
ATOM     13  C   UNL     1       5.136   3.725  14.401  0.00  0.00    +0.000 C 
BRANCH  12  14
ATOM     14  C   UNL     1       6.777   4.236  16.261  0.00  0.00    +0.000 C 
BRANCH  14  15
ATOM     15  C   UNL     1       7.340   5.604  15.846  0.00  0.00    +0.000 C 
BRANCH  15  16
ATOM     16  C   UNL     1       6.880   6.786  16.716  0.00  0.00    +0.000 C 
BRANCH  16  17
ATOM     17  N   UNL     1       7.882   7.262  17.684  0.00  0.00    +0.000 NA
BRANCH  17  19
ATOM     18  C   UNL     1       8.862   9.356  18.706  0.00  0.00    +0.000 C 
ATOM     19  C   UNL     1       7.670   8.676  18.041  0.00  0.00    +0.000 C 
ENDBRANCH  17  19
BRANCH  17  20
ATOM     20  C   UNL     1       7.971   6.362  18.851  0.00  0.00    +0.000 C 
ATOM     21  C   UNL     1       6.657   5.776  19.364  0.00  0.00    +0.000 C 
ENDBRANCH  17  20
ENDBRANCH  16  17
ENDBRANCH  15  16
ENDBRANCH  14  15
ENDBRANCH  12  14
ENDBRANCH   1  12
BRANCH   8  22
ATOM     22  C   UNL     1       2.934   6.692  19.873  0.00  0.00    +0.000 C 
BRANCH  22  23
ATOM     23  C   UNL     1       2.099   7.877  19.437  0.00  0.00    +0.000 A 
ATOM     24  C   UNL     1       2.009   8.196  18.067  0.00  0.00    +0.000 A 
ATOM     25  C   UNL     1       1.175   9.221  17.614  0.00  0.00    +0.000 A 
ATOM     26  C   UNL     1       0.405   9.934  18.525  0.00  0.00    +0.000 A 
ATOM     27 CL   UNL     1      -0.659  11.164  17.966  0.00  0.00    +0.000 Cl
ATOM     28  C   UNL     1       0.478   9.645  19.884  0.00  0.00    +0.000 A 
ATOM     29  C   UNL     1       1.322   8.626  20.339  0.00  0.00    +0.000 A 
ATOM     30 CL   UNL     1       1.338   8.329  22.042  0.00  0.00    +0.000 Cl
ENDBRANCH  22  23
ENDBRANCH   8  22
TORSDOF 9
ENDMDL
MODEL 9
REMARK VINA RESULT:      -6.4      3.440      7.352
REMARK  Name = 
REMARK  12 active torsions:
REMARK  status: ('A' for Active; 'I' for Inactive)
REMARK    1  A    between atoms: C_1  and  C_2
REMARK    2  A    between atoms: C_2  and  N_3
REMARK    3  A    between atoms: N_3  and  C_4
REMARK    4  A    between atoms: N_3  and  C_6
REMARK    5  A    between atoms: C_4  and  C_5
REMARK    6  A    between atoms: C_6  and  C_7
REMARK    7  A    between atoms: C_7  and  C_8
REMARK    8  A    between atoms: C_8  and  C_9
REMARK    9  A    between atoms: C_9  and  C_10
REMARK   10  A    between atoms: C_9  and  N_11
REMARK   11  A    between atoms: N_18  and  C_19
REMARK   12  A    between atoms: C_19  and  C_20
REMARK                            x       y       z     vdW  Elec       q    Type
REMARK                         _______ _______ _______ _____ _____    ______ ____
ROOT
ATOM      1  N   UNL     1       0.835   6.843  20.591  0.00  0.00    +0.000 N 
ATOM      2  C   UNL     1       1.604   5.677  20.417  0.00  0.00    +0.000 A 
ATOM      3  C   UNL     1       0.977   4.472  20.759  0.00  0.00    +0.000 A 
ATOM      4  C   UNL     1       1.687   3.266  20.721  0.00  0.00    +0.000 A 
ATOM      5  C   UNL     1       3.011   3.332  20.284  0.00  0.00    +0.000 A 
ATOM      6  C   UNL     1       4.080   2.438  20.087  0.00  0.00    +0.000 A 
ATOM      7  N   UNL     1       5.168   3.029  19.585  0.00  0.00    +0.000 NA
ATOM      8  N   UNL     1       4.795   4.335  19.483  0.00  0.00    +0.000 N 
ATOM      9  C   UNL     1       3.513   4.569  19.912  0.00  0.00    +0.000 A 
ATOM     10  N   UNL     1       2.868   5.753  19.956  0.00  0.00    +0.000 NA
ATOM     11  H   UNL     1       0.166   6.891  19.826  0.00  0.00    +0.000 HD
ENDROOT
BRANCH   1  12
ATOM     12  C   UNL     1       1.573   8.101  20.781  0.00  0.00    +0.000 C 
ATOM     13  C   UNL     1       1.053   8.803  22.047  0.00  0.00    +0.000 C 
BRANCH  12  14
ATOM     14  C   UNL     1       1.318   8.981  19.535  0.00  0.00    +0.000 C 
BRANCH  14  15
ATOM     15  C   UNL     1       1.064  10.468  19.823  0.00  0.00    +0.000 C 
BRANCH  15  16
ATOM     16  C   UNL     1      -0.167  11.065  19.122  0.00  0.00    +0.000 C 
BRANCH  16  17
ATOM     17  N   UNL     1      -0.834  12.147  19.866  0.00  0.00    +0.000 NA
BRANCH  17  19
ATOM     18  C   UNL     1      -0.769  12.376  22.382  0.00  0.00    +0.000 C 
ATOM     19  C   UNL     1      -1.359  11.680  21.160  0.00  0.00    +0.000 C 
ENDBRANCH  17  19
BRANCH  17  20
ATOM     20  C   UNL     1       0.034  13.338  19.971  0.00  0.00    +0.000 C 
ATOM     21  C   UNL     1      -0.242  14.474  18.989  0.00  0.00    +0.000 C 
ENDBRANCH  17  20
ENDBRANCH  16  17
ENDBRANCH  15  16
ENDBRANCH  14  15
ENDBRANCH  12  14
ENDBRANCH   1  12
BRANCH   8  22
ATOM     22  C   UNL     1       5.681   5.295  18.838  0.00  0.00    +0.000 C 
BRANCH  22  23
ATOM     23  C   UNL     1       5.993   4.952  17.396  0.00  0.00    +0.000 A 
ATOM     24  C   UNL     1       5.331   3.870  16.782  0.00  0.00    +0.000 A 
ATOM     25  C   UNL     1       5.518   3.579  15.430  0.00  0.00    +0.000 A 
ATOM     26  C   UNL     1       6.361   4.376  14.664  0.00  0.00    +0.000 A 
ATOM     27 CL   UNL     1       6.557   4.050  12.987  0.00  0.00    +0.000 Cl
ATOM     28  C   UNL     1       7.032   5.447  15.245  0.00  0.00    +0.000 A 
ATOM     29  C   UNL     1       6.853   5.732  16.604  0.00  0.00    +0.000 A 
ATOM     30 CL   UNL     1       7.718   7.089  17.237  0.00  0.00    +0.000 Cl
ENDBRANCH  22  23
ENDBRANCH   8  22
TORSDOF 9
ENDMDL
