MODEL 1
REMARK VINA RESULT:      -8.6      0.000      0.000
REMARK  Name = 
REMARK  3 active torsions:
REMARK  status: ('A' for Active; 'I' for Inactive)
REMARK    1  A    between atoms: C_1  and  O_2
REMARK    2  A    between atoms: O_2  and  C_3
REMARK    3  A    between atoms: N_13  and  C_14
REMARK                            x       y       z     vdW  Elec       q    Type
REMARK                         _______ _______ _______ _____ _____    ______ ____
ROOT
ATOM      1  C   UNL     1       6.369   4.297  14.048  0.00  0.00    +0.000 A 
ATOM      2  C   UNL     1       5.255   3.723  14.661  0.00  0.00    +0.000 A 
ATOM      3  C   UNL     1       4.953   3.987  16.007  0.00  0.00    +0.000 A 
ATOM      4  C   UNL     1       5.763   4.829  16.784  0.00  0.00    +0.000 A 
ATOM      5  C   UNL     1       6.877   5.400  16.135  0.00  0.00    +0.000 A 
ATOM      6  C   UNL     1       7.173   5.151  14.790  0.00  0.00    +0.000 A 
ATOM      7  N   UNL     1       7.711   6.286  16.813  0.00  0.00    +0.000 N 
ATOM      8  C   UNL     1       7.604   6.497  18.150  0.00  0.00    +0.000 C 
ATOM      9  O   UNL     1       8.314   7.324  18.718  0.00  0.00    +0.000 OA
ATOM     10  C   UNL     1       6.658   5.588  18.909  0.00  0.00    +0.000 C 
ATOM     11  N   UNL     1       5.483   5.126  18.152  0.00  0.00    +0.000 N 
ATOM     12  H   UNL     1       8.419   6.820  16.330  0.00  0.00    +0.000 HD
ENDROOT
BRANCH  11  13
ATOM     13  C   UNL     1       4.237   5.067  18.807  0.00  0.00    +0.000 A 
ATOM     14  N   UNL     1       3.644   6.241  19.121  0.00  0.00    +0.000 NA
ATOM     15  C   UNL     1       2.465   6.219  19.768  0.00  0.00    +0.000 A 
ATOM     16 CL   UNL     1       1.807   7.737  20.190  0.00  0.00    +0.000 Cl
ATOM     17  N   UNL     1       1.764   5.147  20.140  0.00  0.00    +0.000 NA
ATOM     18  C   UNL     1       2.363   4.005  19.807  0.00  0.00    +0.000 A 
ATOM     19  C   UNL     1       3.584   3.901  19.169  0.00  0.00    +0.000 A 
ATOM     20  C   UNL     1       3.909   2.457  19.071  0.00  0.00    +0.000 C 
ATOM     21  O   UNL     1       2.665   1.770  19.316  0.00  0.00    +0.000 OA
ATOM     22  C   UNL     1       1.821   2.643  20.096  0.00  0.00    +0.000 C 
ENDBRANCH  11  13
BRANCH   1  24
ATOM     23  C   UNL     1       5.586   3.117  12.140  0.00  0.00    +0.000 C 
ATOM     24  O   UNL     1       6.572   3.951  12.740  0.00  0.00    +0.000 OA
ENDBRANCH   1  24
TORSDOF 2
ENDMDL
MODEL 2
REMARK VINA RESULT:      -7.8      2.117      2.448
REMARK  Name = 
REMARK  3 active torsions:
REMARK  status: ('A' for Active; 'I' for Inactive)
REMARK    1  A    between atoms: C_1  and  O_2
REMARK    2  A    between atoms: O_2  and  C_3
REMARK    3  A    between atoms: N_13  and  C_14
REMARK                            x       y       z     vdW  Elec       q    Type
REMARK                         _______ _______ _______ _____ _____    ______ ____
ROOT
ATOM      1  C   UNL     1       6.510   4.307  13.909  0.00  0.00    +0.000 A 
ATOM      2  C   UNL     1       5.757   3.427  14.686  0.00  0.00    +0.000 A 
ATOM      3  C   UNL     1       5.614   3.623  16.070  0.00  0.00    +0.000 A 
ATOM      4  C   UNL     1       6.230   4.704  16.720  0.00  0.00    +0.000 A 
ATOM      5  C   UNL     1       6.979   5.580  15.907  0.00  0.00    +0.000 A 
ATOM      6  C   UNL     1       7.111   5.396  14.526  0.00  0.00    +0.000 A 
ATOM      7  N   UNL     1       7.586   6.707  16.457  0.00  0.00    +0.000 N 
ATOM      8  C   UNL     1       7.641   6.915  17.798  0.00  0.00    +0.000 C 
ATOM      9  O   UNL     1       8.132   7.942  18.258  0.00  0.00    +0.000 OA
ATOM     10  C   UNL     1       7.176   5.776  18.683  0.00  0.00    +0.000 C 
ATOM     11  N   UNL     1       6.101   4.939  18.122  0.00  0.00    +0.000 N 
ATOM     12  H   UNL     1       7.994   7.424  15.874  0.00  0.00    +0.000 HD
ENDROOT
BRANCH  11  13
ATOM     13  C   UNL     1       5.068   4.505  18.976  0.00  0.00    +0.000 A 
ATOM     14  N   UNL     1       5.230   3.312  19.592  0.00  0.00    +0.000 NA
ATOM     15  C   UNL     1       4.252   2.858  20.395  0.00  0.00    +0.000 A 
ATOM     16 CL   UNL     1       4.497   1.318  21.088  0.00  0.00    +0.000 Cl
ATOM     17  N   UNL     1       3.101   3.464  20.693  0.00  0.00    +0.000 NA
ATOM     18  C   UNL     1       2.972   4.641  20.083  0.00  0.00    +0.000 A 
ATOM     19  C   UNL     1       3.893   5.197  19.217  0.00  0.00    +0.000 A 
ATOM     20  C   UNL     1       3.313   6.465  18.710  0.00  0.00    +0.000 C 
ATOM     21  O   UNL     1       2.234   6.778  19.614  0.00  0.00    +0.000 OA
ATOM     22  C   UNL     1       1.790   5.545  20.220  0.00  0.00    +0.000 C 
ENDBRANCH  11  13
BRANCH   1  24
ATOM     23  C   UNL     1       5.642   3.068  12.077  0.00  0.00    +0.000 C 
ATOM     24  O   UNL     1       6.592   4.003  12.578  0.00  0.00    +0.000 OA
ENDBRANCH   1  24
TORSDOF 2
ENDMDL
MODEL 3
REMARK VINA RESULT:      -7.7      2.468      6.239
REMARK  Name = 
REMARK  3 active torsions:
REMARK  status: ('A' for Active; 'I' for Inactive)
REMARK    1  A    between atoms: C_1  and  O_2
REMARK    2  A    between atoms: O_2  and  C_3
REMARK    3  A    between atoms: N_13  and  C_14
REMARK                            x       y       z     vdW  Elec       q    Type
REMARK                         _______ _______ _______ _____ _____    ______ ____
ROOT
ATOM      1  C   UNL     1       2.707   3.229  21.111  0.00  0.00    +0.000 A 
ATOM      2  C   UNL     1       3.697   2.914  20.181  0.00  0.00    +0.000 A 
ATOM      3  C   UNL     1       4.124   3.856  19.230  0.00  0.00    +0.000 A 
ATOM      4  C   UNL     1       3.565   5.141  19.176  0.00  0.00    +0.000 A 
ATOM      5  C   UNL     1       2.571   5.433  20.134  0.00  0.00    +0.000 A 
ATOM      6  C   UNL     1       2.154   4.502  21.093  0.00  0.00    +0.000 A 
ATOM      7  N   UNL     1       1.994   6.699  20.188  0.00  0.00    +0.000 N 
ATOM      8  C   UNL     1       2.218   7.636  19.230  0.00  0.00    +0.000 C 
ATOM      9  O   UNL     1       1.742   8.764  19.327  0.00  0.00    +0.000 OA
ATOM     10  C   UNL     1       2.978   7.183  18.000  0.00  0.00    +0.000 C 
ATOM     11  N   UNL     1       3.978   6.126  18.229  0.00  0.00    +0.000 N 
ATOM     12  H   UNL     1       1.397   6.975  20.955  0.00  0.00    +0.000 HD
ENDROOT
BRANCH  11  13
ATOM     13  C   UNL     1       5.214   6.207  17.557  0.00  0.00    +0.000 A 
ATOM     14  N   UNL     1       6.079   7.164  17.961  0.00  0.00    +0.000 NA
ATOM     15  C   UNL     1       7.257   7.284  17.324  0.00  0.00    +0.000 A 
ATOM     16 CL   UNL     1       8.272   8.554  17.846  0.00  0.00    +0.000 Cl
ATOM     17  N   UNL     1       7.713   6.539  16.316  0.00  0.00    +0.000 NA
ATOM     18  C   UNL     1       6.848   5.597  15.946  0.00  0.00    +0.000 A 
ATOM     19  C   UNL     1       5.600   5.396  16.504  0.00  0.00    +0.000 A 
ATOM     20  C   UNL     1       4.946   4.306  15.740  0.00  0.00    +0.000 C 
ATOM     21  O   UNL     1       6.010   3.659  15.012  0.00  0.00    +0.000 OA
ATOM     22  C   UNL     1       7.078   4.616  14.843  0.00  0.00    +0.000 C 
ENDBRANCH  11  13
BRANCH   1  24
ATOM     23  C   UNL     1       1.004   2.195  22.405  0.00  0.00    +0.000 C 
ATOM     24  O   UNL     1       2.361   2.226  21.974  0.00  0.00    +0.000 OA
ENDBRANCH   1  24
TORSDOF 2
ENDMDL
MODEL 4
REMARK VINA RESULT:      -7.5      1.951      2.490
REMARK  Name = 
REMARK  3 active torsions:
REMARK  status: ('A' for Active; 'I' for Inactive)
REMARK    1  A    between atoms: C_1  and  O_2
REMARK    2  A    between atoms: O_2  and  C_3
REMARK    3  A    between atoms: N_13  and  C_14
REMARK                            x       y       z     vdW  Elec       q    Type
REMARK                         _______ _______ _______ _____ _____    ______ ____
ROOT
ATOM      1  C   UNL     1       6.315   4.111  14.086  0.00  0.00    +0.000 A 
ATOM      2  C   UNL     1       5.264   3.561  14.819  0.00  0.00    +0.000 A 
ATOM      3  C   UNL     1       5.015   3.962  16.142  0.00  0.00    +0.000 A 
ATOM      4  C   UNL     1       5.818   4.923  16.775  0.00  0.00    +0.000 A 
ATOM      5  C   UNL     1       6.868   5.467  16.006  0.00  0.00    +0.000 A 
ATOM      6  C   UNL     1       7.110   5.080  14.683  0.00  0.00    +0.000 A 
ATOM      7  N   UNL     1       7.688   6.462  16.535  0.00  0.00    +0.000 N 
ATOM      8  C   UNL     1       7.636   6.819  17.844  0.00  0.00    +0.000 C 
ATOM      9  O   UNL     1       8.329   7.737  18.276  0.00  0.00    +0.000 OA
ATOM     10  C   UNL     1       6.777   5.960  18.750  0.00  0.00    +0.000 C 
ATOM     11  N   UNL     1       5.591   5.361  18.114  0.00  0.00    +0.000 N 
ATOM     12  H   UNL     1       8.342   6.970  15.957  0.00  0.00    +0.000 HD
ENDROOT
BRANCH  11  13
ATOM     13  C   UNL     1       4.384   5.320  18.840  0.00  0.00    +0.000 A 
ATOM     14  N   UNL     1       4.133   4.206  19.566  0.00  0.00    +0.000 NA
ATOM     15  C   UNL     1       2.979   4.125  20.250  0.00  0.00    +0.000 A 
ATOM     16 CL   UNL     1       2.701   2.665  21.091  0.00  0.00    +0.000 Cl
ATOM     17  N   UNL     1       2.016   5.045  20.329  0.00  0.00    +0.000 NA
ATOM     18  C   UNL     1       2.293   6.135  19.616  0.00  0.00    +0.000 A 
ATOM     19  C   UNL     1       3.429   6.322  18.852  0.00  0.00    +0.000 A 
ATOM     20  C   UNL     1       3.290   7.630  18.167  0.00  0.00    +0.000 C 
ATOM     21  O   UNL     1       2.242   8.322  18.877  0.00  0.00    +0.000 OA
ATOM     22  C   UNL     1       1.403   7.330  19.507  0.00  0.00    +0.000 C 
ENDBRANCH  11  13
BRANCH   1  24
ATOM     23  C   UNL     1       5.279   3.324  12.098  0.00  0.00    +0.000 C 
ATOM     24  O   UNL     1       6.471   3.629  12.816  0.00  0.00    +0.000 OA
ENDBRANCH   1  24
TORSDOF 2
ENDMDL
MODEL 5
REMARK VINA RESULT:      -7.0      2.079      2.663
REMARK  Name = 
REMARK  3 active torsions:
REMARK  status: ('A' for Active; 'I' for Inactive)
REMARK    1  A    between atoms: C_1  and  O_2
REMARK    2  A    between atoms: O_2  and  C_3
REMARK    3  A    between atoms: N_13  and  C_14
REMARK                            x       y       z     vdW  Elec       q    Type
REMARK                         _______ _______ _______ _____ _____    ______ ____
ROOT
ATOM      1  C   UNL     1       6.373   4.329  14.202  0.00  0.00    +0.000 A 
ATOM      2  C   UNL     1       5.029   4.270  14.569  0.00  0.00    +0.000 A 
ATOM      3  C   UNL     1       4.636   4.430  15.908  0.00  0.00    +0.000 A 
ATOM      4  C   UNL     1       5.579   4.646  16.924  0.00  0.00    +0.000 A 
ATOM      5  C   UNL     1       6.930   4.709  16.521  0.00  0.00    +0.000 A 
ATOM      6  C   UNL     1       7.324   4.565  15.185  0.00  0.00    +0.000 A 
ATOM      7  N   UNL     1       7.932   4.968  17.453  0.00  0.00    +0.000 N 
ATOM      8  C   UNL     1       7.688   4.991  18.788  0.00  0.00    +0.000 C 
ATOM      9  O   UNL     1       8.575   5.275  19.588  0.00  0.00    +0.000 OA
ATOM     10  C   UNL     1       6.313   4.538  19.236  0.00  0.00    +0.000 C 
ATOM     11  N   UNL     1       5.217   4.821  18.293  0.00  0.00    +0.000 N 
ATOM     12  H   UNL     1       8.880   5.168  17.167  0.00  0.00    +0.000 HD
ENDROOT
BRANCH  11  13
ATOM     13  C   UNL     1       3.981   5.262  18.806  0.00  0.00    +0.000 A 
ATOM     14  N   UNL     1       3.328   4.433  19.653  0.00  0.00    +0.000 NA
ATOM     15  C   UNL     1       2.135   4.814  20.142  0.00  0.00    +0.000 A 
ATOM     16 CL   UNL     1       1.340   3.692  21.153  0.00  0.00    +0.000 Cl
ATOM     17  N   UNL     1       1.491   5.958  19.908  0.00  0.00    +0.000 NA
ATOM     18  C   UNL     1       2.160   6.761  19.082  0.00  0.00    +0.000 A 
ATOM     19  C   UNL     1       3.376   6.468  18.496  0.00  0.00    +0.000 A 
ATOM     20  C   UNL     1       3.714   7.595  17.592  0.00  0.00    +0.000 C 
ATOM     21  O   UNL     1       2.850   8.678  17.996  0.00  0.00    +0.000 OA
ATOM     22  C   UNL     1       1.688   8.105  18.633  0.00  0.00    +0.000 C 
ENDBRANCH  11  13
BRANCH   1  24
ATOM     23  C   UNL     1       5.832   3.179  12.195  0.00  0.00    +0.000 C 
ATOM     24  O   UNL     1       6.635   4.140  12.873  0.00  0.00    +0.000 OA
ENDBRANCH   1  24
TORSDOF 2
ENDMDL
MODEL 6
REMARK VINA RESULT:      -7.0      3.044      5.307
REMARK  Name = 
REMARK  3 active torsions:
REMARK  status: ('A' for Active; 'I' for Inactive)
REMARK    1  A    between atoms: C_1  and  O_2
REMARK    2  A    between atoms: O_2  and  C_3
REMARK    3  A    between atoms: N_13  and  C_14
REMARK                            x       y       z     vdW  Elec       q    Type
REMARK                         _______ _______ _______ _____ _____    ______ ____
ROOT
ATOM      1  C   UNL     1       5.536   4.807  17.728  0.00  0.00    +0.000 A 
ATOM      2  C   UNL     1       4.971   6.055  17.465  0.00  0.00    +0.000 A 
ATOM      3  C   UNL     1       3.856   6.512  18.186  0.00  0.00    +0.000 A 
ATOM      4  C   UNL     1       3.266   5.728  19.190  0.00  0.00    +0.000 A 
ATOM      5  C   UNL     1       3.864   4.474  19.438  0.00  0.00    +0.000 A 
ATOM      6  C   UNL     1       4.985   4.022  18.731  0.00  0.00    +0.000 A 
ATOM      7  N   UNL     1       3.377   3.648  20.448  0.00  0.00    +0.000 N 
ATOM      8  C   UNL     1       2.219   3.917  21.105  0.00  0.00    +0.000 C 
ATOM      9  O   UNL     1       1.837   3.205  22.030  0.00  0.00    +0.000 OA
ATOM     10  C   UNL     1       1.381   5.059  20.566  0.00  0.00    +0.000 C 
ATOM     11  N   UNL     1       2.138   6.162  19.948  0.00  0.00    +0.000 N 
ATOM     12  H   UNL     1       3.878   2.823  20.743  0.00  0.00    +0.000 HD
ENDROOT
BRANCH  11  13
ATOM     13  C   UNL     1       1.722   7.486  20.191  0.00  0.00    +0.000 A 
ATOM     14  N   UNL     1       1.348   7.799  21.452  0.00  0.00    +0.000 NA
ATOM     15  C   UNL     1       0.923   9.047  21.712  0.00  0.00    +0.000 A 
ATOM     16 CL   UNL     1       0.406   9.352  23.310  0.00  0.00    +0.000 Cl
ATOM     17  N   UNL     1       0.837  10.069  20.858  0.00  0.00    +0.000 NA
ATOM     18  C   UNL     1       1.223   9.738  19.627  0.00  0.00    +0.000 A 
ATOM     19  C   UNL     1       1.650   8.484  19.234  0.00  0.00    +0.000 A 
ATOM     20  C   UNL     1       1.900   8.540  17.773  0.00  0.00    +0.000 C 
ATOM     21  O   UNL     1       1.974   9.945  17.454  0.00  0.00    +0.000 OA
ATOM     22  C   UNL     1       1.233  10.669  18.459  0.00  0.00    +0.000 C 
ENDBRANCH  11  13
BRANCH   1  24
ATOM     23  C   UNL     1       6.316   4.021  15.626  0.00  0.00    +0.000 C 
ATOM     24  O   UNL     1       6.606   4.463  16.949  0.00  0.00    +0.000 OA
ENDBRANCH   1  24
TORSDOF 2
ENDMDL
MODEL 7
REMARK VINA RESULT:      -6.9      2.312      6.477
REMARK  Name = 
REMARK  3 active torsions:
REMARK  status: ('A' for Active; 'I' for Inactive)
REMARK    1  A    between atoms: C_1  and  O_2
REMARK    2  A    between atoms: O_2  and  C_3
REMARK    3  A    between atoms: N_13  and  C_14
REMARK                            x       y       z     vdW  Elec       q    Type
REMARK                         _______ _______ _______ _____ _____    ______ ____
ROOT
ATOM      1  C   UNL     1       1.266   6.523  20.503  0.00  0.00    +0.000 A 
ATOM      2  C   UNL     1       2.331   7.300  20.049  0.00  0.00    +0.000 A 
ATOM      3  C   UNL     1       3.480   6.706  19.500  0.00  0.00    +0.000 A 
ATOM      4  C   UNL     1       3.600   5.311  19.397  0.00  0.00    +0.000 A 
ATOM      5  C   UNL     1       2.504   4.552  19.858  0.00  0.00    +0.000 A 
ATOM      6  C   UNL     1       1.352   5.142  20.392  0.00  0.00    +0.000 A 
ATOM      7  N   UNL     1       2.513   3.163  19.752  0.00  0.00    +0.000 N 
ATOM      8  C   UNL     1       3.623   2.476  19.379  0.00  0.00    +0.000 C 
ATOM      9  O   UNL     1       3.594   1.256  19.239  0.00  0.00    +0.000 OA
ATOM     10  C   UNL     1       4.908   3.271  19.262  0.00  0.00    +0.000 C 
ATOM     11  N   UNL     1       4.748   4.673  18.839  0.00  0.00    +0.000 N 
ATOM     12  H   UNL     1       1.685   2.614  19.932  0.00  0.00    +0.000 HD
ENDROOT
BRANCH  11  13
ATOM     13  C   UNL     1       5.675   5.214  17.927  0.00  0.00    +0.000 A 
ATOM     14  N   UNL     1       6.444   6.240  18.359  0.00  0.00    +0.000 NA
ATOM     15  C   UNL     1       7.323   6.795  17.506  0.00  0.00    +0.000 A 
ATOM     16 CL   UNL     1       8.213   8.126  18.099  0.00  0.00    +0.000 Cl
ATOM     17  N   UNL     1       7.562   6.440  16.243  0.00  0.00    +0.000 NA
ATOM     18  C   UNL     1       6.801   5.421  15.847  0.00  0.00    +0.000 A 
ATOM     19  C   UNL     1       5.847   4.790  16.621  0.00  0.00    +0.000 A 
ATOM     20  C   UNL     1       5.186   3.774  15.765  0.00  0.00    +0.000 C 
ATOM     21  O   UNL     1       6.064   3.601  14.634  0.00  0.00    +0.000 OA
ATOM     22  C   UNL     1       6.841   4.808  14.485  0.00  0.00    +0.000 C 
ENDBRANCH  11  13
BRANCH   1  24
ATOM     23  C   UNL     1       0.474   8.541  21.475  0.00  0.00    +0.000 C 
ATOM     24  O   UNL     1       0.211   7.212  21.034  0.00  0.00    +0.000 OA
ENDBRANCH   1  24
TORSDOF 2
ENDMDL
MODEL 8
REMARK VINA RESULT:      -6.6      8.725     11.727
REMARK  Name = 
REMARK  3 active torsions:
REMARK  status: ('A' for Active; 'I' for Inactive)
REMARK    1  A    between atoms: C_1  and  O_2
REMARK    2  A    between atoms: O_2  and  C_3
REMARK    3  A    between atoms: N_13  and  C_14
REMARK                            x       y       z     vdW  Elec       q    Type
REMARK                         _______ _______ _______ _____ _____    ______ ____
ROOT
ATOM      1  C   UNL     1      -6.089  12.815  18.412  0.00  0.00    +0.000 A 
ATOM      2  C   UNL     1      -5.273  12.641  19.530  0.00  0.00    +0.000 A 
ATOM      3  C   UNL     1      -4.028  11.999  19.425  0.00  0.00    +0.000 A 
ATOM      4  C   UNL     1      -3.565  11.503  18.197  0.00  0.00    +0.000 A 
ATOM      5  C   UNL     1      -4.408  11.700  17.084  0.00  0.00    +0.000 A 
ATOM      6  C   UNL     1      -5.643  12.352  17.182  0.00  0.00    +0.000 A 
ATOM      7  N   UNL     1      -4.011  11.283  15.815  0.00  0.00    +0.000 N 
ATOM      8  C   UNL     1      -2.903  10.523  15.620  0.00  0.00    +0.000 C 
ATOM      9  O   UNL     1      -2.541  10.214  14.488  0.00  0.00    +0.000 OA
ATOM     10  C   UNL     1      -2.216   9.989  16.861  0.00  0.00    +0.000 C 
ATOM     11  N   UNL     1      -2.303  10.852  18.052  0.00  0.00    +0.000 N 
ATOM     12  H   UNL     1      -4.525  11.548  14.988  0.00  0.00    +0.000 HD
ENDROOT
BRANCH  11  13
ATOM     13  C   UNL     1      -1.166  10.985  18.874  0.00  0.00    +0.000 A 
ATOM     14  N   UNL     1      -0.846   9.936  19.666  0.00  0.00    +0.000 NA
ATOM     15  C   UNL     1       0.218  10.040  20.480  0.00  0.00    +0.000 A 
ATOM     16 CL   UNL     1       0.524   8.703  21.497  0.00  0.00    +0.000 Cl
ATOM     17  N   UNL     1       1.049  11.077  20.601  0.00  0.00    +0.000 NA
ATOM     18  C   UNL     1       0.719  12.090  19.802  0.00  0.00    +0.000 A 
ATOM     19  C   UNL     1      -0.365  12.111  18.946  0.00  0.00    +0.000 A 
ATOM     20  C   UNL     1      -0.403  13.454  18.316  0.00  0.00    +0.000 C 
ATOM     21  O   UNL     1       0.902  14.021  18.551  0.00  0.00    +0.000 OA
ATOM     22  C   UNL     1       1.459  13.385  19.721  0.00  0.00    +0.000 C 
ENDBRANCH  11  13
BRANCH   1  24
ATOM     23  C   UNL     1      -7.246  14.632  19.413  0.00  0.00    +0.000 C 
ATOM     24  O   UNL     1      -7.285  13.436  18.640  0.00  0.00    +0.000 OA
ENDBRANCH   1  24
TORSDOF 2
ENDMDL
MODEL 9
REMARK VINA RESULT:      -6.5      4.992      7.683
REMARK  Name = 
REMARK  3 active torsions:
REMARK  status: ('A' for Active; 'I' for Inactive)
REMARK    1  A    between atoms: C_1  and  O_2
REMARK    2  A    between atoms: O_2  and  C_3
REMARK    3  A    between atoms: N_13  and  C_14
REMARK                            x       y       z     vdW  Elec       q    Type
REMARK                         _______ _______ _______ _____ _____    ______ ____
ROOT
ATOM      1  C   UNL     1      -1.365  10.983  18.354  0.00  0.00    +0.000 A 
ATOM      2  C   UNL     1      -0.538  10.096  17.666  0.00  0.00    +0.000 A 
ATOM      3  C   UNL     1       0.354   9.255  18.352  0.00  0.00    +0.000 A 
ATOM      4  C   UNL     1       0.450   9.283  19.752  0.00  0.00    +0.000 A 
ATOM      5  C   UNL     1      -0.404  10.185  20.421  0.00  0.00    +0.000 A 
ATOM      6  C   UNL     1      -1.304  11.013  19.740  0.00  0.00    +0.000 A 
ATOM      7  N   UNL     1      -0.413  10.248  21.812  0.00  0.00    +0.000 N 
ATOM      8  C   UNL     1       0.506   9.595  22.570  0.00  0.00    +0.000 C 
ATOM      9  O   UNL     1       0.447   9.621  23.796  0.00  0.00    +0.000 OA
ATOM     10  C   UNL     1       1.657   8.942  21.831  0.00  0.00    +0.000 C 
ATOM     11  N   UNL     1       1.339   8.439  20.484  0.00  0.00    +0.000 N 
ATOM     12  H   UNL     1      -1.117  10.770  22.313  0.00  0.00    +0.000 HD
ENDROOT
BRANCH  11  13
ATOM     13  C   UNL     1       1.880   7.203  20.078  0.00  0.00    +0.000 A 
ATOM     14  N   UNL     1       1.539   6.110  20.797  0.00  0.00    +0.000 NA
ATOM     15  C   UNL     1       2.057   4.918  20.451  0.00  0.00    +0.000 A 
ATOM     16 CL   UNL     1       1.634   3.594  21.441  0.00  0.00    +0.000 Cl
ATOM     17  N   UNL     1       2.883   4.658  19.437  0.00  0.00    +0.000 NA
ATOM     18  C   UNL     1       3.193   5.748  18.738  0.00  0.00    +0.000 A 
ATOM     19  C   UNL     1       2.747   7.026  19.014  0.00  0.00    +0.000 A 
ATOM     20  C   UNL     1       3.399   7.940  18.044  0.00  0.00    +0.000 C 
ATOM     21  O   UNL     1       3.900   7.086  16.994  0.00  0.00    +0.000 OA
ATOM     22  C   UNL     1       4.100   5.769  17.551  0.00  0.00    +0.000 C 
ENDBRANCH  11  13
BRANCH   1  24
ATOM     23  C   UNL     1      -2.684  11.169  16.387  0.00  0.00    +0.000 C 
ATOM     24  O   UNL     1      -2.177  11.763  17.578  0.00  0.00    +0.000 OA
ENDBRANCH   1  24
TORSDOF 2
ENDMDL
