MODEL 1
REMARK VINA RESULT:      -5.8      0.000      0.000
REMARK  Name = 
REMARK  4 active torsions:
REMARK  status: ('A' for Active; 'I' for Inactive)
REMARK    1  A    between atoms: C_2  and  C_4
REMARK    2  A    between atoms: C_4  and  C_5
REMARK    3  A    between atoms: C_5  and  N_6
REMARK    4  A    between atoms: C_5  and  C_7
REMARK                            x       y       z     vdW  Elec       q    Type
REMARK                         _______ _______ _______ _____ _____    ______ ____
ROOT
ATOM      1  C   UNL     1       7.178   5.621  16.842  0.00  0.00    +0.000 C 
ENDROOT
BRANCH   1   2
ATOM      2  C   UNL     1       5.720   5.452  16.316  0.00  0.00    +0.000 C 
ATOM      3  C   UNL     1       5.099   4.042  16.424  0.00  0.00    +0.000 C 
ATOM      4  C   UNL     1       4.028   3.833  17.493  0.00  0.00    +0.000 C 
ATOM      5  C   UNL     1       3.059   5.000  17.592  0.00  0.00    +0.000 C 
ATOM      6  C   UNL     1       3.826   6.278  17.886  0.00  0.00    +0.000 C 
ATOM      7  C   UNL     1       4.783   6.600  16.749  0.00  0.00    +0.000 C 
ENDBRANCH   1   2
BRANCH   1   8
ATOM      8  N   UNL     1       7.768   4.278  17.011  0.00  0.00    +0.000 NA
ATOM      9  H   UNL     1       7.060   3.557  16.889  0.00  0.00    +0.000 HD
ATOM     10  H   UNL     1       8.071   4.199  17.989  0.00  0.00    +0.000 HD
ENDBRANCH   1   8
BRANCH   1  11
ATOM     11  C   UNL     1       7.378   6.469  18.110  0.00  0.00    +0.000 C 
BRANCH  11  13
ATOM     12  N   UNL     1       8.490   5.481  20.051  0.00  0.00    +0.000 N 
ATOM     13  C   UNL     1       7.315   5.609  19.369  0.00  0.00    +0.000 C 
ATOM     14  O   UNL     1       6.303   5.056  19.792  0.00  0.00    +0.000 OA
ATOM     15  H   UNL     1       8.467   4.949  20.912  0.00  0.00    +0.000 HD
ATOM     16  H   UNL     1       9.337   5.975  19.807  0.00  0.00    +0.000 HD
ENDBRANCH  11  13
ENDBRANCH   1  11
TORSDOF 4
ENDMDL
MODEL 2
REMARK VINA RESULT:      -5.7      2.440      3.268
REMARK  Name = 
REMARK  4 active torsions:
REMARK  status: ('A' for Active; 'I' for Inactive)
REMARK    1  A    between atoms: C_2  and  C_4
REMARK    2  A    between atoms: C_4  and  C_5
REMARK    3  A    between atoms: C_5  and  N_6
REMARK    4  A    between atoms: C_5  and  C_7
REMARK                            x       y       z     vdW  Elec       q    Type
REMARK                         _______ _______ _______ _____ _____    ______ ____
ROOT
ATOM      1  C   UNL     1       4.438   4.249  18.237  0.00  0.00    +0.000 C 
ENDROOT
BRANCH   1   2
ATOM      2  C   UNL     1       2.975   4.604  18.643  0.00  0.00    +0.000 C 
ATOM      3  C   UNL     1       1.855   3.709  18.068  0.00  0.00    +0.000 C 
ATOM      4  C   UNL     1       1.179   2.736  19.030  0.00  0.00    +0.000 C 
ATOM      5  C   UNL     1       0.911   3.347  20.395  0.00  0.00    +0.000 C 
ATOM      6  C   UNL     1       2.215   3.837  21.002  0.00  0.00    +0.000 C 
ATOM      7  C   UNL     1       2.825   4.933  20.144  0.00  0.00    +0.000 C 
ENDBRANCH   1   2
BRANCH   1   8
ATOM      8  N   UNL     1       4.942   3.224  19.173  0.00  0.00    +0.000 NA
ATOM      9  H   UNL     1       4.756   2.289  18.815  0.00  0.00    +0.000 HD
ATOM     10  H   UNL     1       4.389   3.300  20.035  0.00  0.00    +0.000 HD
ENDBRANCH   1   8
BRANCH   1  11
ATOM     11  C   UNL     1       5.438   5.411  18.110  0.00  0.00    +0.000 C 
BRANCH  11  13
ATOM     12  N   UNL     1       7.645   4.362  18.001  0.00  0.00    +0.000 N 
ATOM     13  C   UNL     1       6.771   5.072  18.772  0.00  0.00    +0.000 C 
ATOM     14  O   UNL     1       7.092   5.399  19.911  0.00  0.00    +0.000 OA
ATOM     15  H   UNL     1       8.552   4.158  18.401  0.00  0.00    +0.000 HD
ATOM     16  H   UNL     1       7.479   4.133  17.031  0.00  0.00    +0.000 HD
ENDBRANCH  11  13
ENDBRANCH   1  11
TORSDOF 4
ENDMDL
MODEL 3
REMARK VINA RESULT:      -5.7      2.695      3.614
REMARK  Name = 
REMARK  4 active torsions:
REMARK  status: ('A' for Active; 'I' for Inactive)
REMARK    1  A    between atoms: C_2  and  C_4
REMARK    2  A    between atoms: C_4  and  C_5
REMARK    3  A    between atoms: C_5  and  N_6
REMARK    4  A    between atoms: C_5  and  C_7
REMARK                            x       y       z     vdW  Elec       q    Type
REMARK                         _______ _______ _______ _____ _____    ______ ____
ROOT
ATOM      1  C   UNL     1       3.681   5.695  18.236  0.00  0.00    +0.000 C 
ENDROOT
BRANCH   1   2
ATOM      2  C   UNL     1       2.206   5.342  18.597  0.00  0.00    +0.000 C 
ATOM      3  C   UNL     1       1.565   4.161  17.835  0.00  0.00    +0.000 C 
ATOM      4  C   UNL     1       1.364   2.860  18.610  0.00  0.00    +0.000 C 
ATOM      5  C   UNL     1       0.868   3.089  20.028  0.00  0.00    +0.000 C 
ATOM      6  C   UNL     1       1.847   3.979  20.776  0.00  0.00    +0.000 C 
ATOM      7  C   UNL     1       1.937   5.346  20.117  0.00  0.00    +0.000 C 
ENDBRANCH   1   2
BRANCH   1   8
ATOM      8  N   UNL     1       4.046   4.960  17.008  0.00  0.00    +0.000 NA
ATOM      9  H   UNL     1       3.361   5.126  16.273  0.00  0.00    +0.000 HD
ATOM     10  H   UNL     1       3.978   3.958  17.221  0.00  0.00    +0.000 HD
ENDBRANCH   1   8
BRANCH   1  11
ATOM     11  C   UNL     1       4.744   5.492  19.329  0.00  0.00    +0.000 C 
BRANCH  11  13
ATOM     12  N   UNL     1       5.123   3.075  19.313  0.00  0.00    +0.000 N 
ATOM     13  C   UNL     1       5.645   4.300  19.014  0.00  0.00    +0.000 C 
ATOM     14  O   UNL     1       6.764   4.379  18.516  0.00  0.00    +0.000 OA
ATOM     15  H   UNL     1       5.683   2.266  19.078  0.00  0.00    +0.000 HD
ATOM     16  H   UNL     1       4.179   2.934  19.646  0.00  0.00    +0.000 HD
ENDBRANCH  11  13
ENDBRANCH   1  11
TORSDOF 4
ENDMDL
MODEL 4
REMARK VINA RESULT:      -5.6      3.537      4.993
REMARK  Name = 
REMARK  4 active torsions:
REMARK  status: ('A' for Active; 'I' for Inactive)
REMARK    1  A    between atoms: C_2  and  C_4
REMARK    2  A    between atoms: C_4  and  C_5
REMARK    3  A    between atoms: C_5  and  N_6
REMARK    4  A    between atoms: C_5  and  C_7
REMARK                            x       y       z     vdW  Elec       q    Type
REMARK                         _______ _______ _______ _____ _____    ______ ____
ROOT
ATOM      1  C   UNL     1       1.978   2.542  20.433  0.00  0.00    +0.000 C 
ENDROOT
BRANCH   1   2
ATOM      2  C   UNL     1       1.372   3.869  19.881  0.00  0.00    +0.000 C 
ATOM      3  C   UNL     1       1.834   5.180  20.556  0.00  0.00    +0.000 C 
ATOM      4  C   UNL     1       2.793   6.068  19.767  0.00  0.00    +0.000 C 
ATOM      5  C   UNL     1       2.430   6.167  18.295  0.00  0.00    +0.000 C 
ATOM      6  C   UNL     1       2.404   4.777  17.680  0.00  0.00    +0.000 C 
ATOM      7  C   UNL     1       1.334   3.922  18.338  0.00  0.00    +0.000 C 
ENDBRANCH   1   2
BRANCH   1   8
ATOM      8  N   UNL     1       2.440   2.784  21.815  0.00  0.00    +0.000 NA
ATOM      9  H   UNL     1       2.050   2.090  22.450  0.00  0.00    +0.000 HD
ATOM     10  H   UNL     1       2.042   3.681  22.116  0.00  0.00    +0.000 HD
ENDBRANCH   1   8
BRANCH   1  11
ATOM     11  C   UNL     1       3.080   1.867  19.599  0.00  0.00    +0.000 C 
BRANCH  11  13
ATOM     12  N   UNL     1       5.110   3.215  19.388  0.00  0.00    +0.000 N 
ATOM     13  C   UNL     1       4.469   2.245  20.104  0.00  0.00    +0.000 C 
ATOM     14  O   UNL     1       5.016   1.753  21.087  0.00  0.00    +0.000 OA
ATOM     15  H   UNL     1       6.017   3.513  19.726  0.00  0.00    +0.000 HD
ATOM     16  H   UNL     1       4.686   3.719  18.622  0.00  0.00    +0.000 HD
ENDBRANCH  11  13
ENDBRANCH   1  11
TORSDOF 4
ENDMDL
MODEL 5
REMARK VINA RESULT:      -5.6      2.581      3.742
REMARK  Name = 
REMARK  4 active torsions:
REMARK  status: ('A' for Active; 'I' for Inactive)
REMARK    1  A    between atoms: C_2  and  C_4
REMARK    2  A    between atoms: C_4  and  C_5
REMARK    3  A    between atoms: C_5  and  N_6
REMARK    4  A    between atoms: C_5  and  C_7
REMARK                            x       y       z     vdW  Elec       q    Type
REMARK                         _______ _______ _______ _____ _____    ______ ____
ROOT
ATOM      1  C   UNL     1       3.532   2.949  17.293  0.00  0.00    +0.000 C 
ENDROOT
BRANCH   1   2
ATOM      2  C   UNL     1       2.101   3.187  17.864  0.00  0.00    +0.000 C 
ATOM      3  C   UNL     1       1.599   2.183  18.927  0.00  0.00    +0.000 C 
ATOM      4  C   UNL     1       1.535   2.674  20.372  0.00  0.00    +0.000 C 
ATOM      5  C   UNL     1       1.004   4.094  20.489  0.00  0.00    +0.000 C 
ATOM      6  C   UNL     1       1.874   5.035  19.672  0.00  0.00    +0.000 C 
ATOM      7  C   UNL     1       1.819   4.667  18.198  0.00  0.00    +0.000 C 
ENDBRANCH   1   2
BRANCH   1   8
ATOM      8  N   UNL     1       4.155   1.844  18.048  0.00  0.00    +0.000 NA
ATOM      9  H   UNL     1       3.471   1.117  18.250  0.00  0.00    +0.000 HD
ATOM     10  H   UNL     1       4.431   2.219  18.964  0.00  0.00    +0.000 HD
ENDBRANCH   1   8
BRANCH   1  11
ATOM     11  C   UNL     1       4.475   4.162  17.222  0.00  0.00    +0.000 C 
BRANCH  11  13
ATOM     12  N   UNL     1       6.820   4.132  17.914  0.00  0.00    +0.000 N 
ATOM     13  C   UNL     1       5.522   4.117  18.332  0.00  0.00    +0.000 C 
ATOM     14  O   UNL     1       5.270   4.082  19.533  0.00  0.00    +0.000 OA
ATOM     15  H   UNL     1       7.535   4.143  18.630  0.00  0.00    +0.000 HD
ATOM     16  H   UNL     1       7.098   4.244  16.948  0.00  0.00    +0.000 HD
ENDBRANCH  11  13
ENDBRANCH   1  11
TORSDOF 4
ENDMDL
MODEL 6
REMARK VINA RESULT:      -5.5      2.136      3.097
REMARK  Name = 
REMARK  4 active torsions:
REMARK  status: ('A' for Active; 'I' for Inactive)
REMARK    1  A    between atoms: C_2  and  C_4
REMARK    2  A    between atoms: C_4  and  C_5
REMARK    3  A    between atoms: C_5  and  N_6
REMARK    4  A    between atoms: C_5  and  C_7
REMARK                            x       y       z     vdW  Elec       q    Type
REMARK                         _______ _______ _______ _____ _____    ______ ____
ROOT
ATOM      1  C   UNL     1       4.885   4.102  17.693  0.00  0.00    +0.000 C 
ENDROOT
BRANCH   1   2
ATOM      2  C   UNL     1       3.626   4.913  18.128  0.00  0.00    +0.000 C 
ATOM      3  C   UNL     1       2.253   4.362  17.680  0.00  0.00    +0.000 C 
ATOM      4  C   UNL     1       1.382   3.710  18.750  0.00  0.00    +0.000 C 
ATOM      5  C   UNL     1       1.400   4.467  20.068  0.00  0.00    +0.000 C 
ATOM      6  C   UNL     1       2.829   4.577  20.575  0.00  0.00    +0.000 C 
ATOM      7  C   UNL     1       3.681   5.374  19.600  0.00  0.00    +0.000 C 
ENDBRANCH   1   2
BRANCH   1   8
ATOM      8  N   UNL     1       5.820   4.052  18.834  0.00  0.00    +0.000 NA
ATOM      9  H   UNL     1       5.328   3.811  19.692  0.00  0.00    +0.000 HD
ATOM     10  H   UNL     1       6.173   5.005  18.981  0.00  0.00    +0.000 HD
ENDBRANCH   1   8
BRANCH   1  11
ATOM     11  C   UNL     1       5.608   4.554  16.413  0.00  0.00    +0.000 C 
BRANCH  11  13
ATOM     12  N   UNL     1       7.275   6.317  16.721  0.00  0.00    +0.000 N 
ATOM     13  C   UNL     1       7.047   4.972  16.706  0.00  0.00    +0.000 C 
ATOM     14  O   UNL     1       7.971   4.195  16.932  0.00  0.00    +0.000 OA
ATOM     15  H   UNL     1       8.212   6.623  16.952  0.00  0.00    +0.000 HD
ATOM     16  H   UNL     1       6.547   7.011  16.626  0.00  0.00    +0.000 HD
ENDBRANCH  11  13
ENDBRANCH   1  11
TORSDOF 4
ENDMDL
MODEL 7
REMARK VINA RESULT:      -5.5      2.648      3.651
REMARK  Name = 
REMARK  4 active torsions:
REMARK  status: ('A' for Active; 'I' for Inactive)
REMARK    1  A    between atoms: C_2  and  C_4
REMARK    2  A    between atoms: C_4  and  C_5
REMARK    3  A    between atoms: C_5  and  N_6
REMARK    4  A    between atoms: C_5  and  C_7
REMARK                            x       y       z     vdW  Elec       q    Type
REMARK                         _______ _______ _______ _____ _____    ______ ____
ROOT
ATOM      1  C   UNL     1       3.593   3.689  17.127  0.00  0.00    +0.000 C 
ENDROOT
BRANCH   1   2
ATOM      2  C   UNL     1       2.173   3.895  17.739  0.00  0.00    +0.000 C 
ATOM      3  C   UNL     1       1.514   2.664  18.400  0.00  0.00    +0.000 C 
ATOM      4  C   UNL     1       1.441   2.648  19.925  0.00  0.00    +0.000 C 
ATOM      5  C   UNL     1       1.070   4.001  20.511  0.00  0.00    +0.000 C 
ATOM      6  C   UNL     1       2.076   5.047  20.062  0.00  0.00    +0.000 C 
ATOM      7  C   UNL     1       2.047   5.202  18.550  0.00  0.00    +0.000 C 
ENDBRANCH   1   2
BRANCH   1   8
ATOM      8  N   UNL     1       4.178   2.468  17.716  0.00  0.00    +0.000 NA
ATOM      9  H   UNL     1       3.695   1.639  17.377  0.00  0.00    +0.000 HD
ATOM     10  H   UNL     1       3.993   2.498  18.726  0.00  0.00    +0.000 HD
ENDBRANCH   1   8
BRANCH   1  11
ATOM     11  C   UNL     1       4.578   4.867  17.218  0.00  0.00    +0.000 C 
BRANCH  11  13
ATOM     12  N   UNL     1       6.656   4.259  18.357  0.00  0.00    +0.000 N 
ATOM     13  C   UNL     1       6.025   4.386  17.153  0.00  0.00    +0.000 C 
ATOM     14  O   UNL     1       6.627   4.107  16.120  0.00  0.00    +0.000 OA
ATOM     15  H   UNL     1       7.603   3.904  18.345  0.00  0.00    +0.000 HD
ATOM     16  H   UNL     1       6.196   4.392  19.247  0.00  0.00    +0.000 HD
ENDBRANCH  11  13
ENDBRANCH   1  11
TORSDOF 4
ENDMDL
MODEL 8
REMARK VINA RESULT:      -5.5      2.263      3.194
REMARK  Name = 
REMARK  4 active torsions:
REMARK  status: ('A' for Active; 'I' for Inactive)
REMARK    1  A    between atoms: C_2  and  C_4
REMARK    2  A    between atoms: C_4  and  C_5
REMARK    3  A    between atoms: C_5  and  N_6
REMARK    4  A    between atoms: C_5  and  C_7
REMARK                            x       y       z     vdW  Elec       q    Type
REMARK                         _______ _______ _______ _____ _____    ______ ____
ROOT
ATOM      1  C   UNL     1       4.687   4.078  17.929  0.00  0.00    +0.000 C 
ENDROOT
BRANCH   1   2
ATOM      2  C   UNL     1       3.176   4.424  18.096  0.00  0.00    +0.000 C 
ATOM      3  C   UNL     1       2.174   3.258  17.942  0.00  0.00    +0.000 C 
ATOM      4  C   UNL     1       1.511   2.737  19.215  0.00  0.00    +0.000 C 
ATOM      5  C   UNL     1       1.101   3.851  20.164  0.00  0.00    +0.000 C 
ATOM      6  C   UNL     1       2.316   4.685  20.531  0.00  0.00    +0.000 C 
ATOM      7  C   UNL     1       2.896   5.355  19.295  0.00  0.00    +0.000 C 
ENDBRANCH   1   2
BRANCH   1   8
ATOM      8  N   UNL     1       5.114   3.288  19.101  0.00  0.00    +0.000 NA
ATOM      9  H   UNL     1       4.661   2.376  19.104  0.00  0.00    +0.000 HD
ATOM     10  H   UNL     1       4.762   3.769  19.937  0.00  0.00    +0.000 HD
ENDBRANCH   1   8
BRANCH   1  11
ATOM     11  C   UNL     1       5.656   5.246  17.676  0.00  0.00    +0.000 C 
BRANCH  11  13
ATOM     12  N   UNL     1       7.424   4.754  16.060  0.00  0.00    +0.000 N 
ATOM     13  C   UNL     1       7.065   4.744  17.377  0.00  0.00    +0.000 C 
ATOM     14  O   UNL     1       7.867   4.358  18.223  0.00  0.00    +0.000 OA
ATOM     15  H   UNL     1       8.369   4.464  15.838  0.00  0.00    +0.000 HD
ATOM     16  H   UNL     1       6.847   5.135  15.324  0.00  0.00    +0.000 HD
ENDBRANCH  11  13
ENDBRANCH   1  11
TORSDOF 4
ENDMDL
MODEL 9
REMARK VINA RESULT:      -5.5      3.676      5.128
REMARK  Name = 
REMARK  4 active torsions:
REMARK  status: ('A' for Active; 'I' for Inactive)
REMARK    1  A    between atoms: C_2  and  C_4
REMARK    2  A    between atoms: C_4  and  C_5
REMARK    3  A    between atoms: C_5  and  N_6
REMARK    4  A    between atoms: C_5  and  C_7
REMARK                            x       y       z     vdW  Elec       q    Type
REMARK                         _______ _______ _______ _____ _____    ______ ____
ROOT
ATOM      1  C   UNL     1       1.530   5.056  20.091  0.00  0.00    +0.000 C 
ENDROOT
BRANCH   1   2
ATOM      2  C   UNL     1       2.184   5.347  18.706  0.00  0.00    +0.000 C 
ATOM      3  C   UNL     1       3.694   5.670  18.702  0.00  0.00    +0.000 C 
ATOM      4  C   UNL     1       4.636   4.590  18.173  0.00  0.00    +0.000 C 
ATOM      5  C   UNL     1       4.098   3.895  16.933  0.00  0.00    +0.000 C 
ATOM      6  C   UNL     1       2.742   3.280  17.239  0.00  0.00    +0.000 C 
ATOM      7  C   UNL     1       1.737   4.360  17.606  0.00  0.00    +0.000 C 
ENDBRANCH   1   2
BRANCH   1   8
ATOM      8  N   UNL     1       2.494   5.429  21.145  0.00  0.00    +0.000 NA
ATOM      9  H   UNL     1       2.722   4.623  21.724  0.00  0.00    +0.000 HD
ATOM     10  H   UNL     1       2.019   6.089  21.773  0.00  0.00    +0.000 HD
ENDBRANCH   1   8
BRANCH   1  11
ATOM     11  C   UNL     1       0.980   3.639  20.329  0.00  0.00    +0.000 C 
BRANCH  11  13
ATOM     12  N   UNL     1       3.105   2.518  20.785  0.00  0.00    +0.000 N 
ATOM     13  C   UNL     1       1.876   2.848  21.278  0.00  0.00    +0.000 C 
ATOM     14  O   UNL     1       1.569   2.515  22.419  0.00  0.00    +0.000 OA
ATOM     15  H   UNL     1       3.735   2.028  21.408  0.00  0.00    +0.000 HD
ATOM     16  H   UNL     1       3.453   2.830  19.889  0.00  0.00    +0.000 HD
ENDBRANCH  11  13
ENDBRANCH   1  11
TORSDOF 4
ENDMDL
