MODEL 1
REMARK VINA RESULT:      -7.7      0.000      0.000
REMARK  Name = 
REMARK  11 active torsions:
REMARK  status: ('A' for Active; 'I' for Inactive)
REMARK    1  A    between atoms: C_1  and  C_2
REMARK    2  A    between atoms: C_2  and  O_3
REMARK    3  A    between atoms: O_3  and  C_4
REMARK    4  A    between atoms: C_7  and  C_8
REMARK    5  A    between atoms: C_8  and  N_9
REMARK    6  A    between atoms: C_12  and  C_13
REMARK    7  A    between atoms: N_15  and  C_16
REMARK    8  A    between atoms: C_16  and  C_17
REMARK    9  A    between atoms: C_20  and  O_21
REMARK   10  A    between atoms: O_21  and  C_22
REMARK   11  A    between atoms: C_25  and  N_26
REMARK                            x       y       z     vdW  Elec       q    Type
REMARK                         _______ _______ _______ _____ _____    ______ ____
ROOT
ATOM      1  N   UNL     1       6.071   5.537  16.312  0.00  0.00    +0.000 N 
ATOM      2  N   UNL     1       5.757   6.805  15.962  0.00  0.00    +0.000 NA
ATOM      3  N   UNL     1       6.496   7.622  16.701  0.00  0.00    +0.000 NA
ATOM      4  C   UNL     1       7.277   6.858  17.550  0.00  0.00    +0.000 A 
ATOM      5  C   UNL     1       7.033   5.518  17.296  0.00  0.00    +0.000 A 
ENDROOT
BRANCH   4   6
ATOM      6  C   UNL     1       8.160   7.453  18.548  0.00  0.00    +0.000 C 
ATOM      7  O   UNL     1       8.661   6.808  19.487  0.00  0.00    +0.000 OA
ATOM      8  N   UNL     1       8.344   8.801  18.400  0.00  0.00    +0.000 N 
ATOM      9  H   UNL     1       7.694   9.275  17.778  0.00  0.00    +0.000 HD
BRANCH   8  10
ATOM     10  C   UNL     1       9.199   9.617  19.223  0.00  0.00    +0.000 C 
BRANCH  10  11
ATOM     11  C   UNL     1       9.649  10.843  18.466  0.00  0.00    +0.000 A 
ATOM     12  C   UNL     1      11.011  11.084  18.241  0.00  0.00    +0.000 A 
ATOM     13  C   UNL     1      11.431  12.252  17.596  0.00  0.00    +0.000 A 
ATOM     14  C   UNL     1      10.502  13.189  17.143  0.00  0.00    +0.000 A 
ATOM     15  C   UNL     1       9.145  12.969  17.378  0.00  0.00    +0.000 A 
ATOM     16  C   UNL     1       8.722  11.805  18.040  0.00  0.00    +0.000 A 
BRANCH  14  17
ATOM     17  O   UNL     1      11.043  14.283  16.525  0.00  0.00    +0.000 OA
ATOM     18  C   UNL     1      11.297  15.413  17.351  0.00  0.00    +0.000 C 
ENDBRANCH  14  17
ENDBRANCH  10  11
ENDBRANCH   8  10
ENDBRANCH   4   6
BRANCH   5  19
ATOM     19  N   UNL     1       7.463   4.362  17.868  0.00  0.00    +0.000 N 
ATOM     20  H   UNL     1       7.259   4.247  18.859  0.00  0.00    +0.000 HD
ATOM     21  H   UNL     1       7.316   3.478  17.394  0.00  0.00    +0.000 HD
ENDBRANCH   5  19
BRANCH   1  22
ATOM     22  C   UNL     1       5.265   4.427  15.815  0.00  0.00    +0.000 C 
BRANCH  22  26
ATOM     23  C   UNL     1       2.078   3.302  18.545  0.00  0.00    +0.000 A 
ATOM     24  C   UNL     1       2.785   2.328  17.838  0.00  0.00    +0.000 A 
ATOM     25  C   UNL     1       3.815   2.693  16.956  0.00  0.00    +0.000 A 
ATOM     26  C   UNL     1       4.115   4.045  16.725  0.00  0.00    +0.000 A 
ATOM     27  C   UNL     1       3.371   5.008  17.420  0.00  0.00    +0.000 A 
ATOM     28  C   UNL     1       2.381   4.643  18.332  0.00  0.00    +0.000 A 
BRANCH  23  29
ATOM     29  O   UNL     1       1.123   2.858  19.420  0.00  0.00    +0.000 OA
BRANCH  29  31
ATOM     30  C   UNL     1       1.846   2.744  21.703  0.00  0.00    +0.000 C 
ATOM     31  C   UNL     1       1.088   3.555  20.671  0.00  0.00    +0.000 C 
ENDBRANCH  29  31
ENDBRANCH  23  29
ENDBRANCH  22  26
ENDBRANCH   1  22
TORSDOF 9
ENDMDL
MODEL 2
REMARK VINA RESULT:      -7.4      1.286      1.546
REMARK  Name = 
REMARK  11 active torsions:
REMARK  status: ('A' for Active; 'I' for Inactive)
REMARK    1  A    between atoms: C_1  and  C_2
REMARK    2  A    between atoms: C_2  and  O_3
REMARK    3  A    between atoms: O_3  and  C_4
REMARK    4  A    between atoms: C_7  and  C_8
REMARK    5  A    between atoms: C_8  and  N_9
REMARK    6  A    between atoms: C_12  and  C_13
REMARK    7  A    between atoms: N_15  and  C_16
REMARK    8  A    between atoms: C_16  and  C_17
REMARK    9  A    between atoms: C_20  and  O_21
REMARK   10  A    between atoms: O_21  and  C_22
REMARK   11  A    between atoms: C_25  and  N_26
REMARK                            x       y       z     vdW  Elec       q    Type
REMARK                         _______ _______ _______ _____ _____    ______ ____
ROOT
ATOM      1  N   UNL     1       5.905   5.337  16.342  0.00  0.00    +0.000 N 
ATOM      2  N   UNL     1       5.574   6.593  15.965  0.00  0.00    +0.000 NA
ATOM      3  N   UNL     1       6.341   7.434  16.644  0.00  0.00    +0.000 NA
ATOM      4  C   UNL     1       7.160   6.699  17.484  0.00  0.00    +0.000 A 
ATOM      5  C   UNL     1       6.908   5.351  17.284  0.00  0.00    +0.000 A 
ENDROOT
BRANCH   4   6
ATOM      6  C   UNL     1       8.083   7.327  18.423  0.00  0.00    +0.000 C 
ATOM      7  O   UNL     1       8.598   6.722  19.381  0.00  0.00    +0.000 OA
ATOM      8  N   UNL     1       8.288   8.661  18.199  0.00  0.00    +0.000 N 
ATOM      9  H   UNL     1       7.630   9.116  17.571  0.00  0.00    +0.000 HD
BRANCH   8  10
ATOM     10  C   UNL     1       9.183   9.501  18.954  0.00  0.00    +0.000 C 
BRANCH  10  11
ATOM     11  C   UNL     1       8.876  10.958  18.706  0.00  0.00    +0.000 A 
ATOM     12  C   UNL     1       8.208  11.359  17.540  0.00  0.00    +0.000 A 
ATOM     13  C   UNL     1       7.980  12.714  17.280  0.00  0.00    +0.000 A 
ATOM     14  C   UNL     1       8.392  13.692  18.186  0.00  0.00    +0.000 A 
ATOM     15  C   UNL     1       9.074  13.306  19.339  0.00  0.00    +0.000 A 
ATOM     16  C   UNL     1       9.319  11.948  19.594  0.00  0.00    +0.000 A 
BRANCH  14  17
ATOM     17  O   UNL     1       8.105  14.977  17.815  0.00  0.00    +0.000 OA
ATOM     18  C   UNL     1       6.811  15.459  18.157  0.00  0.00    +0.000 C 
ENDBRANCH  14  17
ENDBRANCH  10  11
ENDBRANCH   8  10
ENDBRANCH   4   6
BRANCH   5  19
ATOM     19  N   UNL     1       7.364   4.215  17.874  0.00  0.00    +0.000 N 
ATOM     20  H   UNL     1       6.655   3.583  18.243  0.00  0.00    +0.000 HD
ATOM     21  H   UNL     1       8.094   3.670  17.429  0.00  0.00    +0.000 HD
ENDBRANCH   5  19
BRANCH   1  22
ATOM     22  C   UNL     1       5.081   4.211  15.915  0.00  0.00    +0.000 C 
BRANCH  22  26
ATOM     23  C   UNL     1       1.973   3.217  18.785  0.00  0.00    +0.000 A 
ATOM     24  C   UNL     1       2.671   2.210  18.115  0.00  0.00    +0.000 A 
ATOM     25  C   UNL     1       3.675   2.533  17.188  0.00  0.00    +0.000 A 
ATOM     26  C   UNL     1       3.958   3.872  16.875  0.00  0.00    +0.000 A 
ATOM     27  C   UNL     1       3.224   4.867  17.534  0.00  0.00    +0.000 A 
ATOM     28  C   UNL     1       2.260   4.546  18.490  0.00  0.00    +0.000 A 
BRANCH  23  29
ATOM     29  O   UNL     1       1.046   2.816  19.707  0.00  0.00    +0.000 OA
BRANCH  29  31
ATOM     30  C   UNL     1       2.307   2.711  21.743  0.00  0.00    +0.000 C 
ATOM     31  C   UNL     1       1.189   3.415  21.000  0.00  0.00    +0.000 C 
ENDBRANCH  29  31
ENDBRANCH  23  29
ENDBRANCH  22  26
ENDBRANCH   1  22
TORSDOF 9
ENDMDL
MODEL 3
REMARK VINA RESULT:      -7.4      6.083      8.699
REMARK  Name = 
REMARK  11 active torsions:
REMARK  status: ('A' for Active; 'I' for Inactive)
REMARK    1  A    between atoms: C_1  and  C_2
REMARK    2  A    between atoms: C_2  and  O_3
REMARK    3  A    between atoms: O_3  and  C_4
REMARK    4  A    between atoms: C_7  and  C_8
REMARK    5  A    between atoms: C_8  and  N_9
REMARK    6  A    between atoms: C_12  and  C_13
REMARK    7  A    between atoms: N_15  and  C_16
REMARK    8  A    between atoms: C_16  and  C_17
REMARK    9  A    between atoms: C_20  and  O_21
REMARK   10  A    between atoms: O_21  and  C_22
REMARK   11  A    between atoms: C_25  and  N_26
REMARK                            x       y       z     vdW  Elec       q    Type
REMARK                         _______ _______ _______ _____ _____    ______ ____
ROOT
ATOM      1  N   UNL     1       1.167   9.653  19.514  0.00  0.00    +0.000 N 
ATOM      2  N   UNL     1       0.709   9.414  20.763  0.00  0.00    +0.000 NA
ATOM      3  N   UNL     1       1.053   8.175  21.089  0.00  0.00    +0.000 NA
ATOM      4  C   UNL     1       1.723   7.611  20.017  0.00  0.00    +0.000 A 
ATOM      5  C   UNL     1       1.824   8.555  19.008  0.00  0.00    +0.000 A 
ENDROOT
BRANCH   4   6
ATOM      6  C   UNL     1       2.180   6.226  20.021  0.00  0.00    +0.000 C 
ATOM      7  O   UNL     1       1.448   5.268  20.329  0.00  0.00    +0.000 OA
ATOM      8  N   UNL     1       3.505   6.072  19.715  0.00  0.00    +0.000 N 
ATOM      9  H   UNL     1       4.070   6.917  19.740  0.00  0.00    +0.000 HD
BRANCH   8  10
ATOM     10  C   UNL     1       4.190   4.810  19.609  0.00  0.00    +0.000 C 
BRANCH  10  11
ATOM     11  C   UNL     1       5.113   4.809  18.414  0.00  0.00    +0.000 A 
ATOM     12  C   UNL     1       4.609   4.610  17.122  0.00  0.00    +0.000 A 
ATOM     13  C   UNL     1       5.470   4.545  16.022  0.00  0.00    +0.000 A 
ATOM     14  C   UNL     1       6.847   4.701  16.186  0.00  0.00    +0.000 A 
ATOM     15  C   UNL     1       7.363   4.881  17.470  0.00  0.00    +0.000 A 
ATOM     16  C   UNL     1       6.501   4.929  18.577  0.00  0.00    +0.000 A 
BRANCH  14  17
ATOM     17  O   UNL     1       7.577   4.621  15.032  0.00  0.00    +0.000 OA
ATOM     18  C   UNL     1       6.835   4.539  13.821  0.00  0.00    +0.000 C 
ENDBRANCH  14  17
ENDBRANCH  10  11
ENDBRANCH   8  10
ENDBRANCH   4   6
BRANCH   5  19
ATOM     19  N   UNL     1       2.311   8.523  17.739  0.00  0.00    +0.000 N 
ATOM     20  H   UNL     1       3.192   8.030  17.608  0.00  0.00    +0.000 HD
ATOM     21  H   UNL     1       1.692   8.311  16.964  0.00  0.00    +0.000 HD
ENDBRANCH   5  19
BRANCH   1  22
ATOM     22  C   UNL     1       0.755  10.864  18.811  0.00  0.00    +0.000 C 
BRANCH  22  26
ATOM     23  C   UNL     1      -3.518  10.899  18.021  0.00  0.00    +0.000 A 
ATOM     24  C   UNL     1      -2.687   9.967  17.397  0.00  0.00    +0.000 A 
ATOM     25  C   UNL     1      -1.306   9.957  17.653  0.00  0.00    +0.000 A 
ATOM     26  C   UNL     1      -0.727  10.919  18.497  0.00  0.00    +0.000 A 
ATOM     27  C   UNL     1      -1.573  11.866  19.087  0.00  0.00    +0.000 A 
ATOM     28  C   UNL     1      -2.952  11.845  18.870  0.00  0.00    +0.000 A 
BRANCH  23  29
ATOM     29  O   UNL     1      -4.857  10.808  17.754  0.00  0.00    +0.000 OA
BRANCH  29  31
ATOM     30  C   UNL     1      -6.287  12.647  17.188  0.00  0.00    +0.000 C 
ATOM     31  C   UNL     1      -5.652  11.859  18.316  0.00  0.00    +0.000 C 
ENDBRANCH  29  31
ENDBRANCH  23  29
ENDBRANCH  22  26
ENDBRANCH   1  22
TORSDOF 9
ENDMDL
MODEL 4
REMARK VINA RESULT:      -7.2      6.408      9.751
REMARK  Name = 
REMARK  11 active torsions:
REMARK  status: ('A' for Active; 'I' for Inactive)
REMARK    1  A    between atoms: C_1  and  C_2
REMARK    2  A    between atoms: C_2  and  O_3
REMARK    3  A    between atoms: O_3  and  C_4
REMARK    4  A    between atoms: C_7  and  C_8
REMARK    5  A    between atoms: C_8  and  N_9
REMARK    6  A    between atoms: C_12  and  C_13
REMARK    7  A    between atoms: N_15  and  C_16
REMARK    8  A    between atoms: C_16  and  C_17
REMARK    9  A    between atoms: C_20  and  O_21
REMARK   10  A    between atoms: O_21  and  C_22
REMARK   11  A    between atoms: C_25  and  N_26
REMARK                            x       y       z     vdW  Elec       q    Type
REMARK                         _______ _______ _______ _____ _____    ______ ____
ROOT
ATOM      1  N   UNL     1       2.600   7.384  18.794  0.00  0.00    +0.000 N 
ATOM      2  N   UNL     1       2.592   7.945  17.564  0.00  0.00    +0.000 NA
ATOM      3  N   UNL     1       1.902   9.075  17.640  0.00  0.00    +0.000 NA
ATOM      4  C   UNL     1       1.445   9.222  18.939  0.00  0.00    +0.000 A 
ATOM      5  C   UNL     1       1.905   8.157  19.696  0.00  0.00    +0.000 A 
ENDROOT
BRANCH   4   6
ATOM      6  C   UNL     1       0.591  10.333  19.347  0.00  0.00    +0.000 C 
ATOM      7  O   UNL     1       0.240  10.526  20.525  0.00  0.00    +0.000 OA
ATOM      8  N   UNL     1       0.154  11.113  18.310  0.00  0.00    +0.000 N 
ATOM      9  H   UNL     1       0.273  10.725  17.378  0.00  0.00    +0.000 HD
BRANCH   8  10
ATOM     10  C   UNL     1      -0.662  12.292  18.447  0.00  0.00    +0.000 C 
BRANCH  10  11
ATOM     11  C   UNL     1      -2.126  11.933  18.369  0.00  0.00    +0.000 A 
ATOM     12  C   UNL     1      -2.640  11.266  17.248  0.00  0.00    +0.000 A 
ATOM     13  C   UNL     1      -4.007  10.990  17.147  0.00  0.00    +0.000 A 
ATOM     14  C   UNL     1      -4.884  11.352  18.169  0.00  0.00    +0.000 A 
ATOM     15  C   UNL     1      -4.388  12.033  19.281  0.00  0.00    +0.000 A 
ATOM     16  C   UNL     1      -3.018  12.326  19.377  0.00  0.00    +0.000 A 
BRANCH  14  17
ATOM     17  O   UNL     1      -6.192  11.021  17.949  0.00  0.00    +0.000 OA
ATOM     18  C   UNL     1      -6.803  10.178  18.919  0.00  0.00    +0.000 C 
ENDBRANCH  14  17
ENDBRANCH  10  11
ENDBRANCH   8  10
ENDBRANCH   4   6
BRANCH   5  19
ATOM     19  N   UNL     1       1.707   7.768  20.983  0.00  0.00    +0.000 N 
ATOM     20  H   UNL     1       0.754   7.841  21.334  0.00  0.00    +0.000 HD
ATOM     21  H   UNL     1       2.121   6.906  21.321  0.00  0.00    +0.000 HD
ENDBRANCH   5  19
BRANCH   1  22
ATOM     22  C   UNL     1       3.106   6.026  18.968  0.00  0.00    +0.000 C 
BRANCH  22  26
ATOM     23  C   UNL     1       6.212   4.811  16.184  0.00  0.00    +0.000 A 
ATOM     24  C   UNL     1       6.365   5.961  16.962  0.00  0.00    +0.000 A 
ATOM     25  C   UNL     1       5.360   6.352  17.862  0.00  0.00    +0.000 A 
ATOM     26  C   UNL     1       4.160   5.628  17.954  0.00  0.00    +0.000 A 
ATOM     27  C   UNL     1       4.013   4.497  17.141  0.00  0.00    +0.000 A 
ATOM     28  C   UNL     1       5.032   4.082  16.283  0.00  0.00    +0.000 A 
BRANCH  23  29
ATOM     29  O   UNL     1       7.260   4.475  15.370  0.00  0.00    +0.000 OA
BRANCH  29  31
ATOM     30  C   UNL     1       6.415   3.837  13.219  0.00  0.00    +0.000 C 
ATOM     31  C   UNL     1       7.128   4.914  14.013  0.00  0.00    +0.000 C 
ENDBRANCH  29  31
ENDBRANCH  23  29
ENDBRANCH  22  26
ENDBRANCH   1  22
TORSDOF 9
ENDMDL
MODEL 5
REMARK VINA RESULT:      -7.1      5.818      9.154
REMARK  Name = 
REMARK  11 active torsions:
REMARK  status: ('A' for Active; 'I' for Inactive)
REMARK    1  A    between atoms: C_1  and  C_2
REMARK    2  A    between atoms: C_2  and  O_3
REMARK    3  A    between atoms: O_3  and  C_4
REMARK    4  A    between atoms: C_7  and  C_8
REMARK    5  A    between atoms: C_8  and  N_9
REMARK    6  A    between atoms: C_12  and  C_13
REMARK    7  A    between atoms: N_15  and  C_16
REMARK    8  A    between atoms: C_16  and  C_17
REMARK    9  A    between atoms: C_20  and  O_21
REMARK   10  A    between atoms: O_21  and  C_22
REMARK   11  A    between atoms: C_25  and  N_26
REMARK                            x       y       z     vdW  Elec       q    Type
REMARK                         _______ _______ _______ _____ _____    ______ ____
ROOT
ATOM      1  N   UNL     1       3.259   6.137  19.091  0.00  0.00    +0.000 N 
ATOM      2  N   UNL     1       3.371   7.043  18.094  0.00  0.00    +0.000 NA
ATOM      3  N   UNL     1       2.613   8.084  18.408  0.00  0.00    +0.000 NA
ATOM      4  C   UNL     1       1.991   7.824  19.617  0.00  0.00    +0.000 A 
ATOM      5  C   UNL     1       2.414   6.589  20.079  0.00  0.00    +0.000 A 
ENDROOT
BRANCH   4   6
ATOM      6  C   UNL     1       1.030   8.744  20.217  0.00  0.00    +0.000 C 
ATOM      7  O   UNL     1       0.396   8.486  21.256  0.00  0.00    +0.000 OA
ATOM      8  N   UNL     1       0.837   9.896  19.503  0.00  0.00    +0.000 N 
ATOM      9  H   UNL     1       1.192   9.896  18.550  0.00  0.00    +0.000 HD
BRANCH   8  10
ATOM     10  C   UNL     1      -0.023  10.981  19.898  0.00  0.00    +0.000 C 
BRANCH  10  11
ATOM     11  C   UNL     1      -1.253  11.027  19.024  0.00  0.00    +0.000 A 
ATOM     12  C   UNL     1      -2.331  11.861  19.352  0.00  0.00    +0.000 A 
ATOM     13  C   UNL     1      -3.496  11.856  18.579  0.00  0.00    +0.000 A 
ATOM     14  C   UNL     1      -3.600  11.039  17.452  0.00  0.00    +0.000 A 
ATOM     15  C   UNL     1      -2.541  10.192  17.127  0.00  0.00    +0.000 A 
ATOM     16  C   UNL     1      -1.377  10.183  17.912  0.00  0.00    +0.000 A 
BRANCH  14  17
ATOM     17  O   UNL     1      -4.788  11.133  16.781  0.00  0.00    +0.000 OA
ATOM     18  C   UNL     1      -5.615  12.242  17.113  0.00  0.00    +0.000 C 
ENDBRANCH  14  17
ENDBRANCH  10  11
ENDBRANCH   8  10
ENDBRANCH   4   6
BRANCH   5  19
ATOM     19  N   UNL     1       2.083   5.826  21.154  0.00  0.00    +0.000 N 
ATOM     20  H   UNL     1       2.254   6.238  22.069  0.00  0.00    +0.000 HD
ATOM     21  H   UNL     1       1.196   5.334  21.172  0.00  0.00    +0.000 HD
ENDBRANCH   5  19
BRANCH   1  22
ATOM     22  C   UNL     1       3.818   4.799  18.921  0.00  0.00    +0.000 C 
BRANCH  22  26
ATOM     23  C   UNL     1       6.848   4.702  15.809  0.00  0.00    +0.000 A 
ATOM     24  C   UNL     1       5.507   4.464  15.503  0.00  0.00    +0.000 A 
ATOM     25  C   UNL     1       4.529   4.496  16.509  0.00  0.00    +0.000 A 
ATOM     26  C   UNL     1       4.887   4.711  17.851  0.00  0.00    +0.000 A 
ATOM     27  C   UNL     1       6.243   4.915  18.141  0.00  0.00    +0.000 A 
ATOM     28  C   UNL     1       7.207   4.931  17.133  0.00  0.00    +0.000 A 
BRANCH  23  29
ATOM     29  O   UNL     1       7.729   4.701  14.761  0.00  0.00    +0.000 OA
BRANCH  29  31
ATOM     30  C   UNL     1       7.900   5.428  12.483  0.00  0.00    +0.000 C 
ATOM     31  C   UNL     1       7.123   4.579  13.469  0.00  0.00    +0.000 C 
ENDBRANCH  29  31
ENDBRANCH  23  29
ENDBRANCH  22  26
ENDBRANCH   1  22
TORSDOF 9
ENDMDL
MODEL 6
REMARK VINA RESULT:      -7.1      1.214      1.644
REMARK  Name = 
REMARK  11 active torsions:
REMARK  status: ('A' for Active; 'I' for Inactive)
REMARK    1  A    between atoms: C_1  and  C_2
REMARK    2  A    between atoms: C_2  and  O_3
REMARK    3  A    between atoms: O_3  and  C_4
REMARK    4  A    between atoms: C_7  and  C_8
REMARK    5  A    between atoms: C_8  and  N_9
REMARK    6  A    between atoms: C_12  and  C_13
REMARK    7  A    between atoms: N_15  and  C_16
REMARK    8  A    between atoms: C_16  and  C_17
REMARK    9  A    between atoms: C_20  and  O_21
REMARK   10  A    between atoms: O_21  and  C_22
REMARK   11  A    between atoms: C_25  and  N_26
REMARK                            x       y       z     vdW  Elec       q    Type
REMARK                         _______ _______ _______ _____ _____    ______ ____
ROOT
ATOM      1  N   UNL     1       5.919   5.458  16.230  0.00  0.00    +0.000 N 
ATOM      2  N   UNL     1       5.568   6.725  15.912  0.00  0.00    +0.000 NA
ATOM      3  N   UNL     1       6.328   7.545  16.624  0.00  0.00    +0.000 NA
ATOM      4  C   UNL     1       7.162   6.784  17.425  0.00  0.00    +0.000 A 
ATOM      5  C   UNL     1       6.927   5.443  17.166  0.00  0.00    +0.000 A 
ENDROOT
BRANCH   4   6
ATOM      6  C   UNL     1       8.083   7.381  18.386  0.00  0.00    +0.000 C 
ATOM      7  O   UNL     1       8.575   6.752  19.341  0.00  0.00    +0.000 OA
ATOM      8  N   UNL     1       8.314   8.715  18.186  0.00  0.00    +0.000 N 
ATOM      9  H   UNL     1       7.672   9.190  17.557  0.00  0.00    +0.000 HD
BRANCH   8  10
ATOM     10  C   UNL     1       9.212   9.527  18.966  0.00  0.00    +0.000 C 
BRANCH  10  11
ATOM     11  C   UNL     1       8.910  10.992  18.765  0.00  0.00    +0.000 A 
ATOM     12  C   UNL     1       8.314  11.443  17.579  0.00  0.00    +0.000 A 
ATOM     13  C   UNL     1       8.092  12.807  17.366  0.00  0.00    +0.000 A 
ATOM     14  C   UNL     1       8.438  13.745  18.340  0.00  0.00    +0.000 A 
ATOM     15  C   UNL     1       9.048  13.310  19.516  0.00  0.00    +0.000 A 
ATOM     16  C   UNL     1       9.288  11.943  19.724  0.00  0.00    +0.000 A 
BRANCH  14  17
ATOM     17  O   UNL     1       8.164  15.044  18.010  0.00  0.00    +0.000 OA
ATOM     18  C   UNL     1       9.267  15.832  17.578  0.00  0.00    +0.000 C 
ENDBRANCH  14  17
ENDBRANCH  10  11
ENDBRANCH   8  10
ENDBRANCH   4   6
BRANCH   5  19
ATOM     19  N   UNL     1       7.402   4.288  17.701  0.00  0.00    +0.000 N 
ATOM     20  H   UNL     1       7.737   3.590  17.039  0.00  0.00    +0.000 HD
ATOM     21  H   UNL     1       8.029   4.318  18.498  0.00  0.00    +0.000 HD
ENDBRANCH   5  19
BRANCH   1  22
ATOM     22  C   UNL     1       5.107   4.341  15.757  0.00  0.00    +0.000 C 
BRANCH  22  26
ATOM     23  C   UNL     1       2.397   2.634  18.694  0.00  0.00    +0.000 A 
ATOM     24  C   UNL     1       2.443   4.014  18.486  0.00  0.00    +0.000 A 
ATOM     25  C   UNL     1       3.319   4.564  17.537  0.00  0.00    +0.000 A 
ATOM     26  C   UNL     1       4.205   3.744  16.820  0.00  0.00    +0.000 A 
ATOM     27  C   UNL     1       4.166   2.365  17.066  0.00  0.00    +0.000 A 
ATOM     28  C   UNL     1       3.261   1.815  17.975  0.00  0.00    +0.000 A 
BRANCH  23  29
ATOM     29  O   UNL     1       1.480   2.177  19.602  0.00  0.00    +0.000 OA
BRANCH  29  31
ATOM     30  C   UNL     1       1.362   2.836  21.903  0.00  0.00    +0.000 C 
ATOM     31  C   UNL     1       0.960   3.179  20.483  0.00  0.00    +0.000 C 
ENDBRANCH  29  31
ENDBRANCH  23  29
ENDBRANCH  22  26
ENDBRANCH   1  22
TORSDOF 9
ENDMDL
MODEL 7
REMARK VINA RESULT:      -6.9      5.410      7.730
REMARK  Name = 
REMARK  11 active torsions:
REMARK  status: ('A' for Active; 'I' for Inactive)
REMARK    1  A    between atoms: C_1  and  C_2
REMARK    2  A    between atoms: C_2  and  O_3
REMARK    3  A    between atoms: O_3  and  C_4
REMARK    4  A    between atoms: C_7  and  C_8
REMARK    5  A    between atoms: C_8  and  N_9
REMARK    6  A    between atoms: C_12  and  C_13
REMARK    7  A    between atoms: N_15  and  C_16
REMARK    8  A    between atoms: C_16  and  C_17
REMARK    9  A    between atoms: C_20  and  O_21
REMARK   10  A    between atoms: O_21  and  C_22
REMARK   11  A    between atoms: C_25  and  N_26
REMARK                            x       y       z     vdW  Elec       q    Type
REMARK                         _______ _______ _______ _____ _____    ______ ____
ROOT
ATOM      1  N   UNL     1       5.433   4.901  18.204  0.00  0.00    +0.000 N 
ATOM      2  N   UNL     1       5.361   3.834  19.031  0.00  0.00    +0.000 NA
ATOM      3  N   UNL     1       4.237   3.937  19.727  0.00  0.00    +0.000 NA
ATOM      4  C   UNL     1       3.596   5.105  19.351  0.00  0.00    +0.000 A 
ATOM      5  C   UNL     1       4.339   5.722  18.358  0.00  0.00    +0.000 A 
ENDROOT
BRANCH   4   6
ATOM      6  C   UNL     1       2.358   5.555  19.980  0.00  0.00    +0.000 C 
ATOM      7  O   UNL     1       1.341   4.844  20.068  0.00  0.00    +0.000 OA
ATOM      8  N   UNL     1       2.390   6.853  20.413  0.00  0.00    +0.000 N 
ATOM      9  H   UNL     1       3.157   7.422  20.063  0.00  0.00    +0.000 HD
BRANCH   8  10
ATOM     10  C   UNL     1       1.319   7.523  21.103  0.00  0.00    +0.000 C 
BRANCH  10  11
ATOM     11  C   UNL     1       0.894   8.759  20.347  0.00  0.00    +0.000 A 
ATOM     12  C   UNL     1      -0.143   9.570  20.829  0.00  0.00    +0.000 A 
ATOM     13  C   UNL     1      -0.579  10.679  20.098  0.00  0.00    +0.000 A 
ATOM     14  C   UNL     1       0.025  11.015  18.885  0.00  0.00    +0.000 A 
ATOM     15  C   UNL     1       1.046  10.205  18.387  0.00  0.00    +0.000 A 
ATOM     16  C   UNL     1       1.473   9.081  19.112  0.00  0.00    +0.000 A 
BRANCH  14  17
ATOM     17  O   UNL     1      -0.491  12.124  18.273  0.00  0.00    +0.000 OA
ATOM     18  C   UNL     1       0.170  13.356  18.537  0.00  0.00    +0.000 C 
ENDBRANCH  14  17
ENDBRANCH  10  11
ENDBRANCH   8  10
ENDBRANCH   4   6
BRANCH   5  19
ATOM     19  N   UNL     1       4.216   6.899  17.690  0.00  0.00    +0.000 N 
ATOM     20  H   UNL     1       4.780   7.674  18.037  0.00  0.00    +0.000 HD
ATOM     21  H   UNL     1       4.225   6.910  16.676  0.00  0.00    +0.000 HD
ENDBRANCH   5  19
BRANCH   1  22
ATOM     22  C   UNL     1       6.664   5.165  17.466  0.00  0.00    +0.000 C 
BRANCH  22  26
ATOM     23  C   UNL     1       6.399   4.048  13.275  0.00  0.00    +0.000 A 
ATOM     24  C   UNL     1       5.503   3.524  14.209  0.00  0.00    +0.000 A 
ATOM     25  C   UNL     1       5.590   3.886  15.562  0.00  0.00    +0.000 A 
ATOM     26  C   UNL     1       6.613   4.736  16.013  0.00  0.00    +0.000 A 
ATOM     27  C   UNL     1       7.522   5.225  15.065  0.00  0.00    +0.000 A 
ATOM     28  C   UNL     1       7.405   4.903  13.713  0.00  0.00    +0.000 A 
BRANCH  23  29
ATOM     29  O   UNL     1       6.214   3.682  11.969  0.00  0.00    +0.000 OA
BRANCH  29  31
ATOM     30  C   UNL     1       6.429   1.434  11.164  0.00  0.00    +0.000 C 
ATOM     31  C   UNL     1       5.498   2.455  11.788  0.00  0.00    +0.000 C 
ENDBRANCH  29  31
ENDBRANCH  23  29
ENDBRANCH  22  26
ENDBRANCH   1  22
TORSDOF 9
ENDMDL
MODEL 8
REMARK VINA RESULT:      -6.9      5.381      7.854
REMARK  Name = 
REMARK  11 active torsions:
REMARK  status: ('A' for Active; 'I' for Inactive)
REMARK    1  A    between atoms: C_1  and  C_2
REMARK    2  A    between atoms: C_2  and  O_3
REMARK    3  A    between atoms: O_3  and  C_4
REMARK    4  A    between atoms: C_7  and  C_8
REMARK    5  A    between atoms: C_8  and  N_9
REMARK    6  A    between atoms: C_12  and  C_13
REMARK    7  A    between atoms: N_15  and  C_16
REMARK    8  A    between atoms: C_16  and  C_17
REMARK    9  A    between atoms: C_20  and  O_21
REMARK   10  A    between atoms: O_21  and  C_22
REMARK   11  A    between atoms: C_25  and  N_26
REMARK                            x       y       z     vdW  Elec       q    Type
REMARK                         _______ _______ _______ _____ _____    ______ ____
ROOT
ATOM      1  N   UNL     1       5.885   5.875  17.501  0.00  0.00    +0.000 N 
ATOM      2  N   UNL     1       5.215   6.931  16.986  0.00  0.00    +0.000 NA
ATOM      3  N   UNL     1       4.093   7.073  17.680  0.00  0.00    +0.000 NA
ATOM      4  C   UNL     1       4.041   6.076  18.638  0.00  0.00    +0.000 A 
ATOM      5  C   UNL     1       5.195   5.313  18.551  0.00  0.00    +0.000 A 
ENDROOT
BRANCH   4   6
ATOM      6  C   UNL     1       2.898   5.905  19.529  0.00  0.00    +0.000 C 
ATOM      7  O   UNL     1       2.374   4.801  19.761  0.00  0.00    +0.000 OA
ATOM      8  N   UNL     1       2.410   7.076  20.043  0.00  0.00    +0.000 N 
ATOM      9  H   UNL     1       2.730   7.930  19.593  0.00  0.00    +0.000 HD
BRANCH   8  10
ATOM     10  C   UNL     1       1.319   7.180  20.978  0.00  0.00    +0.000 C 
BRANCH  10  11
ATOM     11  C   UNL     1       0.783   8.590  21.010  0.00  0.00    +0.000 A 
ATOM     12  C   UNL     1       0.100   9.069  22.137  0.00  0.00    +0.000 A 
ATOM     13  C   UNL     1      -0.452  10.354  22.144  0.00  0.00    +0.000 A 
ATOM     14  C   UNL     1      -0.315  11.194  21.038  0.00  0.00    +0.000 A 
ATOM     15  C   UNL     1       0.346  10.722  19.904  0.00  0.00    +0.000 A 
ATOM     16  C   UNL     1       0.887   9.426  19.889  0.00  0.00    +0.000 A 
BRANCH  14  17
ATOM     17  O   UNL     1      -0.896  12.424  21.174  0.00  0.00    +0.000 OA
ATOM     18  C   UNL     1      -0.657  13.103  22.402  0.00  0.00    +0.000 C 
ENDBRANCH  14  17
ENDBRANCH  10  11
ENDBRANCH   8  10
ENDBRANCH   4   6
BRANCH   5  19
ATOM     19  N   UNL     1       5.628   4.193  19.186  0.00  0.00    +0.000 N 
ATOM     20  H   UNL     1       5.398   4.119  20.176  0.00  0.00    +0.000 HD
ATOM     21  H   UNL     1       5.511   3.285  18.749  0.00  0.00    +0.000 HD
ENDBRANCH   5  19
BRANCH   1  22
ATOM     22  C   UNL     1       7.056   5.351  16.805  0.00  0.00    +0.000 C 
BRANCH  22  26
ATOM     23  C   UNL     1       6.053   3.798  12.873  0.00  0.00    +0.000 A 
ATOM     24  C   UNL     1       5.373   3.352  14.008  0.00  0.00    +0.000 A 
ATOM     25  C   UNL     1       5.698   3.854  15.278  0.00  0.00    +0.000 A 
ATOM     26  C   UNL     1       6.750   4.772  15.438  0.00  0.00    +0.000 A 
ATOM     27  C   UNL     1       7.441   5.182  14.290  0.00  0.00    +0.000 A 
ATOM     28  C   UNL     1       7.085   4.719  13.023  0.00  0.00    +0.000 A 
BRANCH  23  29
ATOM     29  O   UNL     1       5.640   3.294  11.669  0.00  0.00    +0.000 OA
BRANCH  29  31
ATOM     30  C   UNL     1       3.721   3.779  10.317  0.00  0.00    +0.000 C 
ATOM     31  C   UNL     1       4.228   3.079  11.562  0.00  0.00    +0.000 C 
ENDBRANCH  29  31
ENDBRANCH  23  29
ENDBRANCH  22  26
ENDBRANCH   1  22
TORSDOF 9
ENDMDL
MODEL 9
REMARK VINA RESULT:      -6.9      5.400      7.952
REMARK  Name = 
REMARK  11 active torsions:
REMARK  status: ('A' for Active; 'I' for Inactive)
REMARK    1  A    between atoms: C_1  and  C_2
REMARK    2  A    between atoms: C_2  and  O_3
REMARK    3  A    between atoms: O_3  and  C_4
REMARK    4  A    between atoms: C_7  and  C_8
REMARK    5  A    between atoms: C_8  and  N_9
REMARK    6  A    between atoms: C_12  and  C_13
REMARK    7  A    between atoms: N_15  and  C_16
REMARK    8  A    between atoms: C_16  and  C_17
REMARK    9  A    between atoms: C_20  and  O_21
REMARK   10  A    between atoms: O_21  and  C_22
REMARK   11  A    between atoms: C_25  and  N_26
REMARK                            x       y       z     vdW  Elec       q    Type
REMARK                         _______ _______ _______ _____ _____    ______ ____
ROOT
ATOM      1  N   UNL     1       5.909   5.794  17.472  0.00  0.00    +0.000 N 
ATOM      2  N   UNL     1       5.280   6.933  17.108  0.00  0.00    +0.000 NA
ATOM      3  N   UNL     1       4.204   7.062  17.872  0.00  0.00    +0.000 NA
ATOM      4  C   UNL     1       4.138   5.972  18.723  0.00  0.00    +0.000 A 
ATOM      5  C   UNL     1       5.238   5.161  18.494  0.00  0.00    +0.000 A 
ENDROOT
BRANCH   4   6
ATOM      6  C   UNL     1       3.032   5.770  19.652  0.00  0.00    +0.000 C 
ATOM      7  O   UNL     1       2.659   4.646  20.034  0.00  0.00    +0.000 OA
ATOM      8  N   UNL     1       2.396   6.924  20.024  0.00  0.00    +0.000 N 
ATOM      9  H   UNL     1       2.599   7.747  19.463  0.00  0.00    +0.000 HD
BRANCH   8  10
ATOM     10  C   UNL     1       1.306   7.004  20.962  0.00  0.00    +0.000 C 
BRANCH  10  11
ATOM     11  C   UNL     1       0.867   8.437  21.141  0.00  0.00    +0.000 A 
ATOM     12  C   UNL     1       0.306   8.866  22.353  0.00  0.00    +0.000 A 
ATOM     13  C   UNL     1      -0.159  10.176  22.498  0.00  0.00    +0.000 A 
ATOM     14  C   UNL     1      -0.052  11.091  21.449  0.00  0.00    +0.000 A 
ATOM     15  C   UNL     1       0.487  10.670  20.234  0.00  0.00    +0.000 A 
ATOM     16  C   UNL     1       0.938   9.350  20.080  0.00  0.00    +0.000 A 
BRANCH  14  17
ATOM     17  O   UNL     1      -0.539  12.339  21.723  0.00  0.00    +0.000 OA
ATOM     18  C   UNL     1      -1.259  12.483  22.942  0.00  0.00    +0.000 C 
ENDBRANCH  14  17
ENDBRANCH  10  11
ENDBRANCH   8  10
ENDBRANCH   4   6
BRANCH   5  19
ATOM     19  N   UNL     1       5.634   3.957  18.985  0.00  0.00    +0.000 N 
ATOM     20  H   UNL     1       5.312   3.726  19.923  0.00  0.00    +0.000 HD
ATOM     21  H   UNL     1       5.580   3.130  18.402  0.00  0.00    +0.000 HD
ENDBRANCH   5  19
BRANCH   1  22
ATOM     22  C   UNL     1       7.011   5.283  16.662  0.00  0.00    +0.000 C 
BRANCH  22  26
ATOM     23  C   UNL     1       5.908   3.771  12.741  0.00  0.00    +0.000 A 
ATOM     24  C   UNL     1       7.092   4.490  12.919  0.00  0.00    +0.000 A 
ATOM     25  C   UNL     1       7.447   4.977  14.186  0.00  0.00    +0.000 A 
ATOM     26  C   UNL     1       6.592   4.802  15.287  0.00  0.00    +0.000 A 
ATOM     27  C   UNL     1       5.394   4.107  15.081  0.00  0.00    +0.000 A 
ATOM     28  C   UNL     1       5.065   3.580  13.831  0.00  0.00    +0.000 A 
BRANCH  23  29
ATOM     29  O   UNL     1       5.661   3.289  11.484  0.00  0.00    +0.000 OA
BRANCH  29  31
ATOM     30  C   UNL     1       6.999   1.340  11.087  0.00  0.00    +0.000 C 
ATOM     31  C   UNL     1       5.608   1.861  11.390  0.00  0.00    +0.000 C 
ENDBRANCH  29  31
ENDBRANCH  23  29
ENDBRANCH  22  26
ENDBRANCH   1  22
TORSDOF 9
ENDMDL
