MODEL 1
REMARK VINA RESULT:     -10.2      0.000      0.000
REMARK  Name = 
REMARK  6 active torsions:
REMARK  status: ('A' for Active; 'I' for Inactive)
REMARK    1  A    between atoms: C_1  and  C_2
REMARK    2  A    between atoms: C_2  and  O_3
REMARK    3  A    between atoms: O_3  and  C_4
REMARK    4  A    between atoms: C_11  and  N_12
REMARK    5  A    between atoms: N_16  and  C_17
REMARK    6  A    between atoms: C_17  and  C_18
REMARK                            x       y       z     vdW  Elec       q    Type
REMARK                         _______ _______ _______ _____ _____    ______ ____
ROOT
ATOM      1  C   UNL     1       5.314   3.376  12.232  0.00  0.00    +0.000 A 
ATOM      2  C   UNL     1       6.652   3.672  12.195  0.00  0.00    +0.000 A 
ATOM      3  C   UNL     1       7.355   4.206  13.327  0.00  0.00    +0.000 A 
ATOM      4  C   UNL     1       6.752   4.452  14.541  0.00  0.00    +0.000 A 
ATOM      5  C   UNL     1       5.418   4.172  14.512  0.00  0.00    +0.000 A 
ATOM      6  C   UNL     1       4.735   3.663  13.419  0.00  0.00    +0.000 A 
ATOM      7  O   UNL     1       4.698   4.334  15.622  0.00  0.00    +0.000 OA
ATOM      8  C   UNL     1       5.350   4.731  16.731  0.00  0.00    +0.000 C 
ATOM      9  C   UNL     1       6.223   5.759  16.524  0.00  0.00    +0.000 C 
ATOM     10  C   UNL     1       6.741   6.634  17.588  0.00  0.00    +0.000 C 
ATOM     11  O   UNL     1       7.954   6.886  17.840  0.00  0.00    +0.000 OA
ATOM     12  N   UNL     1       5.804   6.277  18.440  0.00  0.00    +0.000 N 
ATOM     13  C   UNL     1       6.952   5.265  18.838  0.00  0.00    +0.000 C 
ATOM     14  O   UNL     1       7.270   5.487  20.071  0.00  0.00    +0.000 OA
ATOM     15  C   UNL     1       7.828   4.490  17.274  0.00  0.00    +0.000 C 
ATOM     16  C   UNL     1       7.318   5.181  15.781  0.00  0.00    +0.000 C 
ENDROOT
BRANCH   8  17
ATOM     17  N   UNL     1       4.972   4.107  17.954  0.00  0.00    +0.000 N 
ATOM     18  H   UNL     1       5.452   3.245  18.276  0.00  0.00    +0.000 HD
ATOM     19  H   UNL     1       4.133   3.554  17.737  0.00  0.00    +0.000 HD
ENDBRANCH   8  17
BRANCH   1  20
ATOM     20  O   UNL     1       4.539   2.883  11.221  0.00  0.00    +0.000 OA
BRANCH  20  22
ATOM     21  C   UNL     1       3.104   4.042   9.670  0.00  0.00    +0.000 C 
ATOM     22  C   UNL     1       3.266   3.523  11.090  0.00  0.00    +0.000 C 
ENDBRANCH  20  22
ENDBRANCH   1  20
BRANCH  12  23
ATOM     23  C   UNL     1       3.952   6.267  18.086  0.00  0.00    +0.000 C 
BRANCH  23  24
ATOM     24  C   UNL     1       2.326   7.373  18.722  0.00  0.00    +0.000 A 
ATOM     25  C   UNL     1       2.516   7.939  17.479  0.00  0.00    +0.000 A 
ATOM     26  C   UNL     1       2.589   9.235  17.967  0.00  0.00    +0.000 A 
ATOM     27  C   UNL     1       1.283   9.526  17.877  0.00  0.00    +0.000 A 
ATOM     28  C   UNL     1       0.513   9.351  18.944  0.00  0.00    +0.000 A 
ATOM     29  C   UNL     1      -0.673  10.460  18.695  0.00  0.00    +0.000 A 
ATOM     30  C   UNL     1      -1.296  11.387  19.501  0.00  0.00    +0.000 A 
ATOM     31  C   UNL     1      -0.803  11.095  20.685  0.00  0.00    +0.000 A 
ATOM     32  C   UNL     1       0.266   9.721  20.808  0.00  0.00    +0.000 A 
ATOM     33  C   UNL     1       1.292   8.560  19.795  0.00  0.00    +0.000 A 
ENDBRANCH  23  24
ENDBRANCH  12  23
TORSDOF 5
ENDMDL
MODEL 2
REMARK VINA RESULT:      -9.9      5.471      9.186
REMARK  Name = 
REMARK  6 active torsions:
REMARK  status: ('A' for Active; 'I' for Inactive)
REMARK    1  A    between atoms: C_1  and  C_2
REMARK    2  A    between atoms: C_2  and  O_3
REMARK    3  A    between atoms: O_3  and  C_4
REMARK    4  A    between atoms: C_11  and  N_12
REMARK    5  A    between atoms: N_16  and  C_17
REMARK    6  A    between atoms: C_17  and  C_18
REMARK                            x       y       z     vdW  Elec       q    Type
REMARK                         _______ _______ _______ _____ _____    ______ ____
ROOT
ATOM      1  C   UNL     1      -3.863  10.425  15.711  0.00  0.00    +0.000 A 
ATOM      2  C   UNL     1      -4.531  11.214  16.611  0.00  0.00    +0.000 A 
ATOM      3  C   UNL     1      -3.920  11.692  17.819  0.00  0.00    +0.000 A 
ATOM      4  C   UNL     1      -2.616  11.411  18.168  0.00  0.00    +0.000 A 
ATOM      5  C   UNL     1      -2.011  10.597  17.256  0.00  0.00    +0.000 A 
ATOM      6  C   UNL     1      -2.600  10.128  16.092  0.00  0.00    +0.000 A 
ATOM      7  O   UNL     1      -0.736  10.255  17.439  0.00  0.00    +0.000 OA
ATOM      8  C   UNL     1      -0.103  10.775  18.507  0.00  0.00    +0.000 C 
ATOM      9  C   UNL     1      -0.825  10.721  19.663  0.00  0.00    +0.000 C 
ATOM     10  C   UNL     1      -0.245  10.832  21.010  0.00  0.00    +0.000 C 
ATOM     11  O   UNL     1      -0.595  11.632  21.924  0.00  0.00    +0.000 OA
ATOM     12  N   UNL     1       0.976  10.588  20.585  0.00  0.00    +0.000 N 
ATOM     13  C   UNL     1       0.975  12.169  20.553  0.00  0.00    +0.000 C 
ATOM     14  O   UNL     1       1.891  12.585  21.364  0.00  0.00    +0.000 OA
ATOM     15  C   UNL     1      -0.679  12.891  19.806  0.00  0.00    +0.000 C 
ATOM     16  C   UNL     1      -1.879  11.694  19.496  0.00  0.00    +0.000 C 
ENDROOT
BRANCH   8  17
ATOM     17  N   UNL     1       1.241  11.206  18.308  0.00  0.00    +0.000 N 
ATOM     18  H   UNL     1       2.030  10.680  18.729  0.00  0.00    +0.000 HD
ATOM     19  H   UNL     1       1.392  11.967  18.982  0.00  0.00    +0.000 HD
ENDBRANCH   8  17
BRANCH   1  20
ATOM     20  O   UNL     1      -4.341   9.900  14.545  0.00  0.00    +0.000 OA
BRANCH  20  22
ATOM     21  C   UNL     1      -4.184   9.770  12.143  0.00  0.00    +0.000 C 
ATOM     22  C   UNL     1      -3.428   9.981  13.445  0.00  0.00    +0.000 C 
ENDBRANCH  20  22
ENDBRANCH   1  20
BRANCH  12  23
ATOM     23  C   UNL     1       1.482   9.139  19.489  0.00  0.00    +0.000 C 
BRANCH  23  24
ATOM     24  C   UNL     1       1.996   7.163  19.806  0.00  0.00    +0.000 A 
ATOM     25  C   UNL     1       2.707   7.402  18.649  0.00  0.00    +0.000 A 
ATOM     26  C   UNL     1       2.158   6.327  17.967  0.00  0.00    +0.000 A 
ATOM     27  C   UNL     1       3.076   5.414  18.318  0.00  0.00    +0.000 A 
ATOM     28  C   UNL     1       2.841   4.643  19.372  0.00  0.00    +0.000 A 
ATOM     29  C   UNL     1       3.700   3.292  19.007  0.00  0.00    +0.000 A 
ATOM     30  C   UNL     1       3.432   1.943  19.078  0.00  0.00    +0.000 A 
ATOM     31  C   UNL     1       2.270   1.928  19.694  0.00  0.00    +0.000 A 
ATOM     32  C   UNL     1       1.611   3.451  20.232  0.00  0.00    +0.000 A 
ATOM     33  C   UNL     1       1.784   5.283  20.028  0.00  0.00    +0.000 A 
ENDBRANCH  23  24
ENDBRANCH  12  23
TORSDOF 5
ENDMDL
MODEL 3
REMARK VINA RESULT:      -9.5      4.446      9.075
REMARK  Name = 
REMARK  6 active torsions:
REMARK  status: ('A' for Active; 'I' for Inactive)
REMARK    1  A    between atoms: C_1  and  C_2
REMARK    2  A    between atoms: C_2  and  O_3
REMARK    3  A    between atoms: O_3  and  C_4
REMARK    4  A    between atoms: C_11  and  N_12
REMARK    5  A    between atoms: N_16  and  C_17
REMARK    6  A    between atoms: C_17  and  C_18
REMARK                            x       y       z     vdW  Elec       q    Type
REMARK                         _______ _______ _______ _____ _____    ______ ____
ROOT
ATOM      1  C   UNL     1      -3.826  10.286  15.455  0.00  0.00    +0.000 A 
ATOM      2  C   UNL     1      -4.394  11.210  16.294  0.00  0.00    +0.000 A 
ATOM      3  C   UNL     1      -3.745  11.666  17.491  0.00  0.00    +0.000 A 
ATOM      4  C   UNL     1      -2.499  11.228  17.887  0.00  0.00    +0.000 A 
ATOM      5  C   UNL     1      -1.997  10.288  17.036  0.00  0.00    +0.000 A 
ATOM      6  C   UNL     1      -2.623   9.840  15.884  0.00  0.00    +0.000 A 
ATOM      7  O   UNL     1      -0.785   9.785  17.270  0.00  0.00    +0.000 OA
ATOM      8  C   UNL     1      -0.105  10.272  18.325  0.00  0.00    +0.000 C 
ATOM      9  C   UNL     1      -0.849  10.383  19.463  0.00  0.00    +0.000 C 
ATOM     10  C   UNL     1      -0.284  10.489  20.817  0.00  0.00    +0.000 C 
ATOM     11  O   UNL     1      -0.535  11.380  21.677  0.00  0.00    +0.000 OA
ATOM     12  N   UNL     1       0.900  10.055  20.437  0.00  0.00    +0.000 N 
ATOM     13  C   UNL     1       1.118  11.617  20.321  0.00  0.00    +0.000 C 
ATOM     14  O   UNL     1       2.069  11.948  21.132  0.00  0.00    +0.000 OA
ATOM     15  C   UNL     1      -0.405  12.517  19.494  0.00  0.00    +0.000 C 
ATOM     16  C   UNL     1      -1.754  11.482  19.217  0.00  0.00    +0.000 C 
ENDROOT
BRANCH   8  17
ATOM     17  N   UNL     1       1.289  10.502  18.138  0.00  0.00    +0.000 N 
ATOM     18  H   UNL     1       1.627  11.053  17.326  0.00  0.00    +0.000 HD
ATOM     19  H   UNL     1       1.657   9.645  17.705  0.00  0.00    +0.000 HD
ENDBRANCH   8  17
BRANCH   1  20
ATOM     20  O   UNL     1      -4.350   9.767  14.306  0.00  0.00    +0.000 OA
BRANCH  20  22
ATOM     21  C   UNL     1      -4.355   9.784  11.896  0.00  0.00    +0.000 C 
ATOM     22  C   UNL     1      -3.514   9.921  13.155  0.00  0.00    +0.000 C 
ENDBRANCH  20  22
ENDBRANCH   1  20
BRANCH  12  23
ATOM     23  C   UNL     1       1.219   8.492  19.433  0.00  0.00    +0.000 C 
BRANCH  23  24
ATOM     24  C   UNL     1       2.759   7.794  18.245  0.00  0.00    +0.000 A 
ATOM     25  C   UNL     1       2.020   6.636  18.364  0.00  0.00    +0.000 A 
ATOM     26  C   UNL     1       3.087   5.880  18.824  0.00  0.00    +0.000 A 
ATOM     27  C   UNL     1       3.523   5.454  17.630  0.00  0.00    +0.000 A 
ATOM     28  C   UNL     1       4.489   6.131  17.022  0.00  0.00    +0.000 A 
ATOM     29  C   UNL     1       5.206   4.966  16.114  0.00  0.00    +0.000 A 
ATOM     30  C   UNL     1       6.517   4.618  15.871  0.00  0.00    +0.000 A 
ATOM     31  C   UNL     1       7.172   5.593  16.463  0.00  0.00    +0.000 A 
ATOM     32  C   UNL     1       6.243   6.887  17.175  0.00  0.00    +0.000 A 
ATOM     33  C   UNL     1       4.533   7.347  17.713  0.00  0.00    +0.000 A 
ENDBRANCH  23  24
ENDBRANCH  12  23
TORSDOF 5
ENDMDL
MODEL 4
REMARK VINA RESULT:      -9.1      0.600      1.146
REMARK  Name = 
REMARK  6 active torsions:
REMARK  status: ('A' for Active; 'I' for Inactive)
REMARK    1  A    between atoms: C_1  and  C_2
REMARK    2  A    between atoms: C_2  and  O_3
REMARK    3  A    between atoms: O_3  and  C_4
REMARK    4  A    between atoms: C_11  and  N_12
REMARK    5  A    between atoms: N_16  and  C_17
REMARK    6  A    between atoms: C_17  and  C_18
REMARK                            x       y       z     vdW  Elec       q    Type
REMARK                         _______ _______ _______ _____ _____    ______ ____
ROOT
ATOM      1  C   UNL     1       5.371   3.377  12.030  0.00  0.00    +0.000 A 
ATOM      2  C   UNL     1       6.729   3.560  12.086  0.00  0.00    +0.000 A 
ATOM      3  C   UNL     1       7.390   4.070  13.253  0.00  0.00    +0.000 A 
ATOM      4  C   UNL     1       6.723   4.404  14.413  0.00  0.00    +0.000 A 
ATOM      5  C   UNL     1       5.375   4.234  14.290  0.00  0.00    +0.000 A 
ATOM      6  C   UNL     1       4.733   3.749  13.162  0.00  0.00    +0.000 A 
ATOM      7  O   UNL     1       4.593   4.491  15.338  0.00  0.00    +0.000 OA
ATOM      8  C   UNL     1       5.194   4.867  16.482  0.00  0.00    +0.000 C 
ATOM      9  C   UNL     1       6.163   5.812  16.316  0.00  0.00    +0.000 C 
ATOM     10  C   UNL     1       6.676   6.675  17.393  0.00  0.00    +0.000 C 
ATOM     11  O   UNL     1       7.883   6.833  17.729  0.00  0.00    +0.000 OA
ATOM     12  N   UNL     1       5.652   6.424  18.181  0.00  0.00    +0.000 N 
ATOM     13  C   UNL     1       6.677   5.333  18.690  0.00  0.00    +0.000 C 
ATOM     14  O   UNL     1       6.923   5.567  19.937  0.00  0.00    +0.000 OA
ATOM     15  C   UNL     1       7.597   4.440  17.217  0.00  0.00    +0.000 C 
ATOM     16  C   UNL     1       7.257   5.123  15.672  0.00  0.00    +0.000 C 
ENDROOT
BRANCH   8  17
ATOM     17  N   UNL     1       4.676   4.315  17.689  0.00  0.00    +0.000 N 
ATOM     18  H   UNL     1       4.427   4.932  18.486  0.00  0.00    +0.000 HD
ATOM     19  H   UNL     1       5.493   3.974  18.213  0.00  0.00    +0.000 HD
ENDBRANCH   8  17
BRANCH   1  20
ATOM     20  O   UNL     1       4.633   2.918  10.977  0.00  0.00    +0.000 OA
BRANCH  20  22
ATOM     21  C   UNL     1       3.021   4.101   9.631  0.00  0.00    +0.000 C 
ATOM     22  C   UNL     1       3.284   3.395  10.952  0.00  0.00    +0.000 C 
ENDBRANCH  20  22
ENDBRANCH   1  20
BRANCH  12  23
ATOM     23  C   UNL     1       3.836   6.556  17.689  0.00  0.00    +0.000 C 
BRANCH  23  24
ATOM     24  C   UNL     1       2.404   8.045  17.734  0.00  0.00    +0.000 A 
ATOM     25  C   UNL     1       2.806   8.075  19.052  0.00  0.00    +0.000 A 
ATOM     26  C   UNL     1       1.524   7.917  19.554  0.00  0.00    +0.000 A 
ATOM     27  C   UNL     1       1.212   9.219  19.641  0.00  0.00    +0.000 A 
ATOM     28  C   UNL     1       0.562   9.790  18.635  0.00  0.00    +0.000 A 
ATOM     29  C   UNL     1      -0.248  11.000  19.394  0.00  0.00    +0.000 A 
ATOM     30  C   UNL     1      -1.541  11.472  19.326  0.00  0.00    +0.000 A 
ATOM     31  C   UNL     1      -2.032  10.779  18.322  0.00  0.00    +0.000 A 
ATOM     32  C   UNL     1      -0.954   9.706  17.466  0.00  0.00    +0.000 A 
ATOM     33  C   UNL     1       0.695   8.875  17.586  0.00  0.00    +0.000 A 
ENDBRANCH  23  24
ENDBRANCH  12  23
TORSDOF 5
ENDMDL
MODEL 5
REMARK VINA RESULT:      -9.0      4.115      7.052
REMARK  Name = 
REMARK  6 active torsions:
REMARK  status: ('A' for Active; 'I' for Inactive)
REMARK    1  A    between atoms: C_1  and  C_2
REMARK    2  A    between atoms: C_2  and  O_3
REMARK    3  A    between atoms: O_3  and  C_4
REMARK    4  A    between atoms: C_11  and  N_12
REMARK    5  A    between atoms: N_16  and  C_17
REMARK    6  A    between atoms: C_17  and  C_18
REMARK                            x       y       z     vdW  Elec       q    Type
REMARK                         _______ _______ _______ _____ _____    ______ ____
ROOT
ATOM      1  C   UNL     1       3.085   2.475  20.092  0.00  0.00    +0.000 A 
ATOM      2  C   UNL     1       2.389   2.326  18.920  0.00  0.00    +0.000 A 
ATOM      3  C   UNL     1       2.869   2.838  17.668  0.00  0.00    +0.000 A 
ATOM      4  C   UNL     1       4.067   3.507  17.536  0.00  0.00    +0.000 A 
ATOM      5  C   UNL     1       4.700   3.656  18.735  0.00  0.00    +0.000 A 
ATOM      6  C   UNL     1       4.236   3.169  19.947  0.00  0.00    +0.000 A 
ATOM      7  O   UNL     1       5.887   4.262  18.769  0.00  0.00    +0.000 OA
ATOM      8  C   UNL     1       6.414   4.657  17.596  0.00  0.00    +0.000 C 
ATOM      9  C   UNL     1       5.530   5.296  16.776  0.00  0.00    +0.000 C 
ATOM     10  C   UNL     1       5.918   6.167  15.655  0.00  0.00    +0.000 C 
ATOM     11  O   UNL     1       5.534   6.075  14.455  0.00  0.00    +0.000 OA
ATOM     12  N   UNL     1       7.151   6.305  16.093  0.00  0.00    +0.000 N 
ATOM     13  C   UNL     1       7.337   5.092  15.096  0.00  0.00    +0.000 C 
ATOM     14  O   UNL     1       8.168   5.456  14.175  0.00  0.00    +0.000 OA
ATOM     15  C   UNL     1       5.904   3.776  15.260  0.00  0.00    +0.000 C 
ATOM     16  C   UNL     1       4.631   4.264  16.313  0.00  0.00    +0.000 C 
ENDROOT
BRANCH   8  17
ATOM     17  N   UNL     1       7.813   4.451  17.420  0.00  0.00    +0.000 N 
ATOM     18  H   UNL     1       8.181   3.509  17.187  0.00  0.00    +0.000 HD
ATOM     19  H   UNL     1       8.203   4.365  18.368  0.00  0.00    +0.000 HD
ENDBRANCH   8  17
BRANCH   1  20
ATOM     20  O   UNL     1       2.724   2.049  21.338  0.00  0.00    +0.000 OA
BRANCH  20  22
ATOM     21  C   UNL     1       1.323   4.006  21.205  0.00  0.00    +0.000 C 
ATOM     22  C   UNL     1       1.515   2.634  21.832  0.00  0.00    +0.000 C 
ENDBRANCH  20  22
ENDBRANCH   1  20
BRANCH  12  23
ATOM     23  C   UNL     1       7.640   6.799  17.846  0.00  0.00    +0.000 C 
BRANCH  23  24
ATOM     24  C   UNL     1       8.345   8.519  18.748  0.00  0.00    +0.000 A 
ATOM     25  C   UNL     1       7.586   9.082  17.744  0.00  0.00    +0.000 A 
ATOM     26  C   UNL     1       8.624   9.859  17.254  0.00  0.00    +0.000 A 
ATOM     27  C   UNL     1       8.397  10.945  18.006  0.00  0.00    +0.000 A 
ATOM     28  C   UNL     1       9.061  11.084  19.146  0.00  0.00    +0.000 A 
ATOM     29  C   UNL     1       9.106  12.717  19.320  0.00  0.00    +0.000 A 
ATOM     30  C   UNL     1      10.093  13.612  19.668  0.00  0.00    +0.000 A 
ATOM     31  C   UNL     1      11.079  12.812  20.010  0.00  0.00    +0.000 A 
ATOM     32  C   UNL     1      10.777  11.093  19.999  0.00  0.00    +0.000 A 
ATOM     33  C   UNL     1       9.592   9.812  19.384  0.00  0.00    +0.000 A 
ENDBRANCH  23  24
ENDBRANCH  12  23
TORSDOF 5
ENDMDL
MODEL 6
REMARK VINA RESULT:      -9.0      2.606      4.072
REMARK  Name = 
REMARK  6 active torsions:
REMARK  status: ('A' for Active; 'I' for Inactive)
REMARK    1  A    between atoms: C_1  and  C_2
REMARK    2  A    between atoms: C_2  and  O_3
REMARK    3  A    between atoms: O_3  and  C_4
REMARK    4  A    between atoms: C_11  and  N_12
REMARK    5  A    between atoms: N_16  and  C_17
REMARK    6  A    between atoms: C_17  and  C_18
REMARK                            x       y       z     vdW  Elec       q    Type
REMARK                         _______ _______ _______ _____ _____    ______ ____
ROOT
ATOM      1  C   UNL     1       6.449   5.186  14.823  0.00  0.00    +0.000 A 
ATOM      2  C   UNL     1       6.636   3.888  15.222  0.00  0.00    +0.000 A 
ATOM      3  C   UNL     1       5.860   3.284  16.268  0.00  0.00    +0.000 A 
ATOM      4  C   UNL     1       4.861   3.949  16.947  0.00  0.00    +0.000 A 
ATOM      5  C   UNL     1       4.742   5.243  16.534  0.00  0.00    +0.000 A 
ATOM      6  C   UNL     1       5.493   5.832  15.529  0.00  0.00    +0.000 A 
ATOM      7  O   UNL     1       3.799   6.012  17.079  0.00  0.00    +0.000 OA
ATOM      8  C   UNL     1       2.984   5.442  17.987  0.00  0.00    +0.000 C 
ATOM      9  C   UNL     1       3.632   4.680  18.914  0.00  0.00    +0.000 C 
ATOM     10  C   UNL     1       3.063   4.294  20.215  0.00  0.00    +0.000 C 
ATOM     11  O   UNL     1       2.967   3.125  20.685  0.00  0.00    +0.000 OA
ATOM     12  N   UNL     1       2.123   5.214  20.160  0.00  0.00    +0.000 N 
ATOM     13  C   UNL     1       1.347   3.977  19.555  0.00  0.00    +0.000 C 
ATOM     14  O   UNL     1       0.338   3.724  20.323  0.00  0.00    +0.000 OA
ATOM     15  C   UNL     1       2.435   2.971  18.284  0.00  0.00    +0.000 C 
ATOM     16  C   UNL     1       4.071   3.505  18.198  0.00  0.00    +0.000 C 
ENDROOT
BRANCH   8  17
ATOM     17  N   UNL     1       1.604   5.790  17.916  0.00  0.00    +0.000 N 
ATOM     18  H   UNL     1       0.909   5.110  17.552  0.00  0.00    +0.000 HD
ATOM     19  H   UNL     1       1.502   6.349  17.059  0.00  0.00    +0.000 HD
ENDBRANCH   8  17
BRANCH   1  20
ATOM     20  O   UNL     1       7.131   5.871  13.858  0.00  0.00    +0.000 OA
BRANCH  20  22
ATOM     21  C   UNL     1       7.244   4.629  11.796  0.00  0.00    +0.000 C 
ATOM     22  C   UNL     1       7.987   5.054  13.052  0.00  0.00    +0.000 C 
ENDBRANCH  20  22
ENDBRANCH   1  20
BRANCH  12  23
ATOM     23  C   UNL     1       2.404   7.042  19.791  0.00  0.00    +0.000 C 
BRANCH  23  24
ATOM     24  C   UNL     1       1.385   8.796  20.185  0.00  0.00    +0.000 A 
ATOM     25  C   UNL     1       1.338   8.219  21.437  0.00  0.00    +0.000 A 
ATOM     26  C   UNL     1      -0.039   8.321  21.545  0.00  0.00    +0.000 A 
ATOM     27  C   UNL     1      -0.077   9.530  22.125  0.00  0.00    +0.000 A 
ATOM     28  C   UNL     1      -0.232  10.602  21.359  0.00  0.00    +0.000 A 
ATOM     29  C   UNL     1      -0.965  11.654  22.385  0.00  0.00    +0.000 A 
ATOM     30  C   UNL     1      -2.034  12.513  22.266  0.00  0.00    +0.000 A 
ATOM     31  C   UNL     1      -2.312  12.428  20.984  0.00  0.00    +0.000 A 
ATOM     32  C   UNL     1      -1.272  11.443  19.987  0.00  0.00    +0.000 A 
ATOM     33  C   UNL     1       0.034  10.134  20.067  0.00  0.00    +0.000 A 
ENDBRANCH  23  24
ENDBRANCH  12  23
TORSDOF 5
ENDMDL
MODEL 7
REMARK VINA RESULT:      -8.8      3.464      5.179
REMARK  Name = 
REMARK  6 active torsions:
REMARK  status: ('A' for Active; 'I' for Inactive)
REMARK    1  A    between atoms: C_1  and  C_2
REMARK    2  A    between atoms: C_2  and  O_3
REMARK    3  A    between atoms: O_3  and  C_4
REMARK    4  A    between atoms: C_11  and  N_12
REMARK    5  A    between atoms: N_16  and  C_17
REMARK    6  A    between atoms: C_17  and  C_18
REMARK                            x       y       z     vdW  Elec       q    Type
REMARK                         _______ _______ _______ _____ _____    ______ ____
ROOT
ATOM      1  C   UNL     1       7.265   6.467  17.043  0.00  0.00    +0.000 A 
ATOM      2  C   UNL     1       7.438   5.145  16.724  0.00  0.00    +0.000 A 
ATOM      3  C   UNL     1       6.451   4.146  17.020  0.00  0.00    +0.000 A 
ATOM      4  C   UNL     1       5.250   4.430  17.634  0.00  0.00    +0.000 A 
ATOM      5  C   UNL     1       5.146   5.750  17.959  0.00  0.00    +0.000 A 
ATOM      6  C   UNL     1       6.100   6.717  17.681  0.00  0.00    +0.000 A 
ATOM      7  O   UNL     1       4.028   6.188  18.538  0.00  0.00    +0.000 OA
ATOM      8  C   UNL     1       3.039   5.294  18.731  0.00  0.00    +0.000 C 
ATOM      9  C   UNL     1       3.459   4.104  19.248  0.00  0.00    +0.000 C 
ATOM     10  C   UNL     1       2.579   3.136  19.921  0.00  0.00    +0.000 C 
ATOM     11  O   UNL     1       2.451   1.909  19.648  0.00  0.00    +0.000 OA
ATOM     12  N   UNL     1       1.621   4.020  20.102  0.00  0.00    +0.000 N 
ATOM     13  C   UNL     1       1.152   3.364  18.742  0.00  0.00    +0.000 C 
ATOM     14  O   UNL     1      -0.009   2.829  18.936  0.00  0.00    +0.000 OA
ATOM     15  C   UNL     1       2.634   3.101  17.498  0.00  0.00    +0.000 C 
ATOM     16  C   UNL     1       4.178   3.458  18.175  0.00  0.00    +0.000 C 
ENDROOT
BRANCH   8  17
ATOM     17  N   UNL     1       1.712   5.742  18.470  0.00  0.00    +0.000 N 
ATOM     18  H   UNL     1       1.505   6.314  17.629  0.00  0.00    +0.000 HD
ATOM     19  H   UNL     1       1.576   6.571  19.063  0.00  0.00    +0.000 HD
ENDBRANCH   8  17
BRANCH   1  20
ATOM     20  O   UNL     1       8.134   7.499  16.829  0.00  0.00    +0.000 OA
BRANCH  20  22
ATOM     21  C   UNL     1       8.776   9.127  18.486  0.00  0.00    +0.000 C 
ATOM     22  C   UNL     1       7.744   8.733  17.441  0.00  0.00    +0.000 C 
ENDBRANCH  20  22
ENDBRANCH   1  20
BRANCH  12  23
ATOM     23  C   UNL     1       1.844   5.732  20.858  0.00  0.00    +0.000 C 
BRANCH  23  24
ATOM     24  C   UNL     1       0.612   7.351  21.226  0.00  0.00    +0.000 A 
ATOM     25  C   UNL     1       1.503   7.936  20.352  0.00  0.00    +0.000 A 
ATOM     26  C   UNL     1       1.813   8.982  21.207  0.00  0.00    +0.000 A 
ATOM     27  C   UNL     1       0.870   9.836  20.784  0.00  0.00    +0.000 A 
ATOM     28  C   UNL     1      -0.289   9.880  21.429  0.00  0.00    +0.000 A 
ATOM     29  C   UNL     1      -0.776  11.424  21.154  0.00  0.00    +0.000 A 
ATOM     30  C   UNL     1      -1.310  12.412  21.951  0.00  0.00    +0.000 A 
ATOM     31  C   UNL     1      -1.511  11.772  23.082  0.00  0.00    +0.000 A 
ATOM     32  C   UNL     1      -1.162  10.063  23.125  0.00  0.00    +0.000 A 
ATOM     33  C   UNL     1      -0.287   8.716  22.205  0.00  0.00    +0.000 A 
ENDBRANCH  23  24
ENDBRANCH  12  23
TORSDOF 5
ENDMDL
MODEL 8
REMARK VINA RESULT:      -8.5      3.325      5.171
REMARK  Name = 
REMARK  6 active torsions:
REMARK  status: ('A' for Active; 'I' for Inactive)
REMARK    1  A    between atoms: C_1  and  C_2
REMARK    2  A    between atoms: C_2  and  O_3
REMARK    3  A    between atoms: O_3  and  C_4
REMARK    4  A    between atoms: C_11  and  N_12
REMARK    5  A    between atoms: N_16  and  C_17
REMARK    6  A    between atoms: C_17  and  C_18
REMARK                            x       y       z     vdW  Elec       q    Type
REMARK                         _______ _______ _______ _____ _____    ______ ____
ROOT
ATOM      1  C   UNL     1       7.330   6.664  17.091  0.00  0.00    +0.000 A 
ATOM      2  C   UNL     1       7.539   5.360  16.722  0.00  0.00    +0.000 A 
ATOM      3  C   UNL     1       6.561   4.332  16.939  0.00  0.00    +0.000 A 
ATOM      4  C   UNL     1       5.333   4.569  17.519  0.00  0.00    +0.000 A 
ATOM      5  C   UNL     1       5.193   5.872  17.896  0.00  0.00    +0.000 A 
ATOM      6  C   UNL     1       6.138   6.866  17.695  0.00  0.00    +0.000 A 
ATOM      7  O   UNL     1       4.046   6.265  18.450  0.00  0.00    +0.000 OA
ATOM      8  C   UNL     1       3.068   5.347  18.568  0.00  0.00    +0.000 C 
ATOM      9  C   UNL     1       3.491   4.144  19.050  0.00  0.00    +0.000 C 
ATOM     10  C   UNL     1       2.606   3.132  19.648  0.00  0.00    +0.000 C 
ATOM     11  O   UNL     1       2.511   1.916  19.319  0.00  0.00    +0.000 OA
ATOM     12  N   UNL     1       1.625   3.991  19.830  0.00  0.00    +0.000 N 
ATOM     13  C   UNL     1       1.218   3.386  18.427  0.00  0.00    +0.000 C 
ATOM     14  O   UNL     1       0.062   2.823  18.555  0.00  0.00    +0.000 OA
ATOM     15  C   UNL     1       2.749   3.202  17.230  0.00  0.00    +0.000 C 
ATOM     16  C   UNL     1       4.261   3.556  17.978  0.00  0.00    +0.000 C 
ENDROOT
BRANCH   8  17
ATOM     17  N   UNL     1       1.743   5.783  18.277  0.00  0.00    +0.000 N 
ATOM     18  H   UNL     1       1.146   5.247  17.618  0.00  0.00    +0.000 HD
ATOM     19  H   UNL     1       1.843   6.528  17.576  0.00  0.00    +0.000 HD
ENDBRANCH   8  17
BRANCH   1  20
ATOM     20  O   UNL     1       8.187   7.719  16.953  0.00  0.00    +0.000 OA
BRANCH  20  22
ATOM     21  C   UNL     1       8.808   9.370  18.596  0.00  0.00    +0.000 C 
ATOM     22  C   UNL     1       7.751   8.919  17.600  0.00  0.00    +0.000 C 
ENDBRANCH  20  22
ENDBRANCH   1  20
BRANCH  12  23
ATOM     23  C   UNL     1       1.787   5.673  20.666  0.00  0.00    +0.000 C 
BRANCH  23  24
ATOM     24  C   UNL     1       1.484   7.636  20.095  0.00  0.00    +0.000 A 
ATOM     25  C   UNL     1       1.400   7.781  21.463  0.00  0.00    +0.000 A 
ATOM     26  C   UNL     1       0.164   8.406  21.425  0.00  0.00    +0.000 A 
ATOM     27  C   UNL     1       0.612   9.667  21.340  0.00  0.00    +0.000 A 
ATOM     28  C   UNL     1       0.738  10.223  20.142  0.00  0.00    +0.000 A 
ATOM     29  C   UNL     1       0.540  11.817  20.480  0.00  0.00    +0.000 A 
ATOM     30  C   UNL     1      -0.180  12.835  19.894  0.00  0.00    +0.000 A 
ATOM     31  C   UNL     1      -0.627  12.258  18.800  0.00  0.00    +0.000 A 
ATOM     32  C   UNL     1      -0.117  10.621  18.473  0.00  0.00    +0.000 A 
ATOM     33  C   UNL     1       0.665   9.139  19.259  0.00  0.00    +0.000 A 
ENDBRANCH  23  24
ENDBRANCH  12  23
TORSDOF 5
ENDMDL
MODEL 9
REMARK VINA RESULT:      -8.4      5.231     10.434
REMARK  Name = 
REMARK  6 active torsions:
REMARK  status: ('A' for Active; 'I' for Inactive)
REMARK    1  A    between atoms: C_1  and  C_2
REMARK    2  A    between atoms: C_2  and  O_3
REMARK    3  A    between atoms: O_3  and  C_4
REMARK    4  A    between atoms: C_11  and  N_12
REMARK    5  A    between atoms: N_16  and  C_17
REMARK    6  A    between atoms: C_17  and  C_18
REMARK                            x       y       z     vdW  Elec       q    Type
REMARK                         _______ _______ _______ _____ _____    ______ ____
ROOT
ATOM      1  C   UNL     1      -5.053  11.787  18.545  0.00  0.00    +0.000 A 
ATOM      2  C   UNL     1      -5.084  12.353  19.793  0.00  0.00    +0.000 A 
ATOM      3  C   UNL     1      -3.891  12.732  20.496  0.00  0.00    +0.000 A 
ATOM      4  C   UNL     1      -2.625  12.573  19.975  0.00  0.00    +0.000 A 
ATOM      5  C   UNL     1      -2.652  11.976  18.749  0.00  0.00    +0.000 A 
ATOM      6  C   UNL     1      -3.801  11.602  18.070  0.00  0.00    +0.000 A 
ATOM      7  O   UNL     1      -1.504  11.776  18.101  0.00  0.00    +0.000 OA
ATOM      8  C   UNL     1      -0.377  12.220  18.688  0.00  0.00    +0.000 C 
ATOM      9  C   UNL     1      -0.283  11.914  20.014  0.00  0.00    +0.000 C 
ATOM     10  C   UNL     1       0.974  11.911  20.778  0.00  0.00    +0.000 C 
ATOM     11  O   UNL     1       1.209  12.525  21.857  0.00  0.00    +0.000 OA
ATOM     12  N   UNL     1       1.719  11.884  19.693  0.00  0.00    +0.000 N 
ATOM     13  C   UNL     1       1.665  13.441  19.964  0.00  0.00    +0.000 C 
ATOM     14  O   UNL     1       2.874  13.854  20.164  0.00  0.00    +0.000 OA
ATOM     15  C   UNL     1      -0.127  14.044  20.449  0.00  0.00    +0.000 C 
ATOM     16  C   UNL     1      -1.256  12.760  20.666  0.00  0.00    +0.000 C 
ENDROOT
BRANCH   8  17
ATOM     17  N   UNL     1       0.585  12.841  17.840  0.00  0.00    +0.000 N 
ATOM     18  H   UNL     1       0.474  13.833  17.557  0.00  0.00    +0.000 HD
ATOM     19  H   UNL     1       0.346  12.545  16.884  0.00  0.00    +0.000 HD
ENDBRANCH   8  17
BRANCH   1  20
ATOM     20  O   UNL     1      -6.113  11.372  17.789  0.00  0.00    +0.000 OA
BRANCH  20  22
ATOM     21  C   UNL     1      -6.958  13.437  16.878  0.00  0.00    +0.000 C 
ATOM     22  C   UNL     1      -7.232  12.264  17.806  0.00  0.00    +0.000 C 
ENDBRANCH  20  22
ENDBRANCH   1  20
BRANCH  12  23
ATOM     23  C   UNL     1       1.517  10.678  18.259  0.00  0.00    +0.000 C 
BRANCH  23  24
ATOM     24  C   UNL     1       2.305   8.831  17.766  0.00  0.00    +0.000 A 
ATOM     25  C   UNL     1       1.364   8.438  18.695  0.00  0.00    +0.000 A 
ATOM     26  C   UNL     1       2.274   7.739  19.472  0.00  0.00    +0.000 A 
ATOM     27  C   UNL     1       2.140   6.550  18.866  0.00  0.00    +0.000 A 
ATOM     28  C   UNL     1       2.986   6.229  17.895  0.00  0.00    +0.000 A 
ATOM     29  C   UNL     1       3.001   4.589  17.982  0.00  0.00    +0.000 A 
ATOM     30  C   UNL     1       4.000   3.642  17.953  0.00  0.00    +0.000 A 
ATOM     31  C   UNL     1       5.058   4.370  17.671  0.00  0.00    +0.000 A 
ATOM     32  C   UNL     1       4.821   6.072  17.368  0.00  0.00    +0.000 A 
ATOM     33  C   UNL     1       3.595   7.444  17.563  0.00  0.00    +0.000 A 
ENDBRANCH  23  24
ENDBRANCH  12  23
TORSDOF 5
ENDMDL
