MODEL 1
REMARK VINA RESULT:      -7.9      0.000      0.000
REMARK  Name = 
REMARK  10 active torsions:
REMARK  status: ('A' for Active; 'I' for Inactive)
REMARK    1  A    between atoms: C_1  and  O_2
REMARK    2  A    between atoms: O_2  and  C_3
REMARK    3  A    between atoms: C_5  and  O_6
REMARK    4  A    between atoms: O_6  and  C_7
REMARK    5  A    between atoms: C_8  and  N_9
REMARK    6  A    between atoms: C_10  and  C_12
REMARK    7  A    between atoms: C_12  and  N_13
REMARK    8  A    between atoms: N_17  and  C_18
REMARK    9  A    between atoms: C_18  and  C_19
REMARK   10  A    between atoms: C_24  and  C_25
REMARK                            x       y       z     vdW  Elec       q    Type
REMARK                         _______ _______ _______ _____ _____    ______ ____
ROOT
ATOM      1  C   UNL     1       7.678   7.223  18.243  0.00  0.00    +0.000 C 
ENDROOT
BRANCH   1   2
ATOM      2  N   UNL     1       6.951   6.710  17.062  0.00  0.00    +0.000 NA
ATOM      3  C   UNL     1       7.603   5.657  16.273  0.00  0.00    +0.000 C 
ATOM      4  C   UNL     1       7.285   4.305  16.852  0.00  0.00    +0.000 C 
ATOM      5  C   UNL     1       5.798   4.015  16.837  0.00  0.00    +0.000 C 
ATOM      6  N   UNL     1       4.926   5.099  17.330  0.00  0.00    +0.000 NA
ATOM      7  S   UNL     1       5.292   6.707  17.020  0.00  0.00    +0.000 S 
ATOM      8  O   UNL     1       4.776   7.513  18.093  0.00  0.00    +0.000 OA
ATOM      9  O   UNL     1       4.955   6.995  15.649  0.00  0.00    +0.000 OA
BRANCH   6  10
ATOM     10  C   UNL     1       3.463   4.762  17.209  0.00  0.00    +0.000 C 
BRANCH  10  11
ATOM     11  C   UNL     1       2.742   4.298  18.473  0.00  0.00    +0.000 A 
ATOM     12  C   UNL     1       2.213   5.284  19.341  0.00  0.00    +0.000 A 
ATOM     13  C   UNL     1       1.503   4.952  20.490  0.00  0.00    +0.000 A 
ATOM     14  C   UNL     1       1.305   3.614  20.816  0.00  0.00    +0.000 A 
ATOM     15  C   UNL     1       1.835   2.620  20.001  0.00  0.00    +0.000 A 
ATOM     16  C   UNL     1       2.568   2.940  18.839  0.00  0.00    +0.000 A 
ATOM     17  C   UNL     1       3.121   1.788  18.041  0.00  0.00    +0.000 C 
ENDBRANCH  10  11
ENDBRANCH   6  10
ENDBRANCH   1   2
BRANCH   1  19
ATOM     18  N   UNL     1       8.976   9.161  18.948  0.00  0.00    +0.000 N 
ATOM     19  C   UNL     1       8.060   8.691  18.016  0.00  0.00    +0.000 C 
ATOM     20  O   UNL     1       7.548   9.360  17.122  0.00  0.00    +0.000 OA
ATOM     21  H   UNL     1       9.102   8.570  19.762  0.00  0.00    +0.000 HD
BRANCH  18  25
ATOM     22  C   UNL     1      10.533  13.084  19.275  0.00  0.00    +0.000 A 
ATOM     23  C   UNL     1       9.903  12.478  20.362  0.00  0.00    +0.000 A 
ATOM     24  C   UNL     1       9.380  11.184  20.270  0.00  0.00    +0.000 A 
ATOM     25  C   UNL     1       9.409  10.500  19.045  0.00  0.00    +0.000 A 
ATOM     26  C   UNL     1       9.984  11.130  17.932  0.00  0.00    +0.000 A 
ATOM     27  C   UNL     1      10.563  12.401  18.053  0.00  0.00    +0.000 A 
ATOM     28 CL   UNL     1      11.390  13.060  16.683  0.00  0.00    +0.000 Cl
BRANCH  22  30
ATOM     29  C   UNL     1      10.231  15.400  19.637  0.00  0.00    +0.000 C 
ATOM     30  O   UNL     1      11.121  14.321  19.354  0.00  0.00    +0.000 OA
ENDBRANCH  22  30
BRANCH  24  31
ATOM     31  O   UNL     1       8.947  10.709  21.480  0.00  0.00    +0.000 OA
ATOM     32  C   UNL     1       8.339  11.640  22.356  0.00  0.00    +0.000 C 
ENDBRANCH  24  31
ENDBRANCH  18  25
ENDBRANCH   1  19
TORSDOF 7
ENDMDL
MODEL 2
REMARK VINA RESULT:      -7.8      5.224      7.881
REMARK  Name = 
REMARK  10 active torsions:
REMARK  status: ('A' for Active; 'I' for Inactive)
REMARK    1  A    between atoms: C_1  and  O_2
REMARK    2  A    between atoms: O_2  and  C_3
REMARK    3  A    between atoms: C_5  and  O_6
REMARK    4  A    between atoms: O_6  and  C_7
REMARK    5  A    between atoms: C_8  and  N_9
REMARK    6  A    between atoms: C_10  and  C_12
REMARK    7  A    between atoms: C_12  and  N_13
REMARK    8  A    between atoms: N_17  and  C_18
REMARK    9  A    between atoms: C_18  and  C_19
REMARK   10  A    between atoms: C_24  and  C_25
REMARK                            x       y       z     vdW  Elec       q    Type
REMARK                         _______ _______ _______ _____ _____    ______ ____
ROOT
ATOM      1  C   UNL     1       2.050   3.118  21.057  0.00  0.00    +0.000 C 
ENDROOT
BRANCH   1   2
ATOM      2  N   UNL     1       2.431   2.403  19.819  0.00  0.00    +0.000 NA
ATOM      3  C   UNL     1       1.420   2.301  18.760  0.00  0.00    +0.000 C 
ATOM      4  C   UNL     1       1.469   3.519  17.877  0.00  0.00    +0.000 C 
ATOM      5  C   UNL     1       2.813   3.672  17.195  0.00  0.00    +0.000 C 
ATOM      6  N   UNL     1       3.997   3.510  18.061  0.00  0.00    +0.000 NA
ATOM      7  S   UNL     1       4.009   2.381  19.302  0.00  0.00    +0.000 S 
ATOM      8  O   UNL     1       4.871   2.856  20.351  0.00  0.00    +0.000 OA
ATOM      9  O   UNL     1       4.192   1.073  18.726  0.00  0.00    +0.000 OA
BRANCH   6  10
ATOM     10  C   UNL     1       5.290   3.600  17.293  0.00  0.00    +0.000 C 
BRANCH  10  11
ATOM     11  C   UNL     1       6.150   4.845  17.506  0.00  0.00    +0.000 A 
ATOM     12  C   UNL     1       6.883   4.952  18.713  0.00  0.00    +0.000 A 
ATOM     13  C   UNL     1       7.725   6.029  18.971  0.00  0.00    +0.000 A 
ATOM     14  C   UNL     1       7.856   7.044  18.029  0.00  0.00    +0.000 A 
ATOM     15  C   UNL     1       7.129   6.984  16.845  0.00  0.00    +0.000 A 
ATOM     16  C   UNL     1       6.260   5.905  16.574  0.00  0.00    +0.000 A 
ATOM     17  C   UNL     1       5.500   5.951  15.274  0.00  0.00    +0.000 C 
ENDBRANCH  10  11
ENDBRANCH   6  10
ENDBRANCH   1   2
BRANCH   1  19
ATOM     18  N   UNL     1       2.251   5.520  20.702  0.00  0.00    +0.000 N 
ATOM     19  C   UNL     1       1.371   4.444  20.699  0.00  0.00    +0.000 C 
ATOM     20  O   UNL     1       0.164   4.515  20.487  0.00  0.00    +0.000 OA
ATOM     21  H   UNL     1       3.147   5.340  21.142  0.00  0.00    +0.000 HD
BRANCH  18  25
ATOM     22  C   UNL     1       0.873   9.473  20.079  0.00  0.00    +0.000 A 
ATOM     23  C   UNL     1       1.677   8.845  19.129  0.00  0.00    +0.000 A 
ATOM     24  C   UNL     1       2.144   7.540  19.320  0.00  0.00    +0.000 A 
ATOM     25  C   UNL     1       1.874   6.867  20.523  0.00  0.00    +0.000 A 
ATOM     26  C   UNL     1       1.121   7.520  21.508  0.00  0.00    +0.000 A 
ATOM     27  C   UNL     1       0.603   8.802  21.278  0.00  0.00    +0.000 A 
ATOM     28 CL   UNL     1      -0.444   9.491  22.471  0.00  0.00    +0.000 Cl
BRANCH  22  30
ATOM     29  C   UNL     1      -0.854  10.761  19.107  0.00  0.00    +0.000 C 
ATOM     30  O   UNL     1       0.338  10.723  19.889  0.00  0.00    +0.000 OA
ENDBRANCH  22  30
BRANCH  24  31
ATOM     31  O   UNL     1       2.779   7.045  18.213  0.00  0.00    +0.000 OA
ATOM     32  C   UNL     1       3.425   7.981  17.370  0.00  0.00    +0.000 C 
ENDBRANCH  24  31
ENDBRANCH  18  25
ENDBRANCH   1  19
TORSDOF 7
ENDMDL
MODEL 3
REMARK VINA RESULT:      -7.8      0.431      1.287
REMARK  Name = 
REMARK  10 active torsions:
REMARK  status: ('A' for Active; 'I' for Inactive)
REMARK    1  A    between atoms: C_1  and  O_2
REMARK    2  A    between atoms: O_2  and  C_3
REMARK    3  A    between atoms: C_5  and  O_6
REMARK    4  A    between atoms: O_6  and  C_7
REMARK    5  A    between atoms: C_8  and  N_9
REMARK    6  A    between atoms: C_10  and  C_12
REMARK    7  A    between atoms: C_12  and  N_13
REMARK    8  A    between atoms: N_17  and  C_18
REMARK    9  A    between atoms: C_18  and  C_19
REMARK   10  A    between atoms: C_24  and  C_25
REMARK                            x       y       z     vdW  Elec       q    Type
REMARK                         _______ _______ _______ _____ _____    ______ ____
ROOT
ATOM      1  C   UNL     1       7.663   7.170  18.265  0.00  0.00    +0.000 C 
ENDROOT
BRANCH   1   2
ATOM      2  N   UNL     1       6.917   6.654  17.096  0.00  0.00    +0.000 NA
ATOM      3  C   UNL     1       7.476   5.489  16.399  0.00  0.00    +0.000 C 
ATOM      4  C   UNL     1       7.004   4.218  17.054  0.00  0.00    +0.000 C 
ATOM      5  C   UNL     1       5.497   4.081  17.009  0.00  0.00    +0.000 C 
ATOM      6  N   UNL     1       4.729   5.280  17.401  0.00  0.00    +0.000 NA
ATOM      7  S   UNL     1       5.268   6.817  17.000  0.00  0.00    +0.000 S 
ATOM      8  O   UNL     1       4.811   7.743  18.001  0.00  0.00    +0.000 OA
ATOM      9  O   UNL     1       4.999   7.044  15.602  0.00  0.00    +0.000 OA
BRANCH   6  10
ATOM     10  C   UNL     1       3.243   5.086  17.254  0.00  0.00    +0.000 C 
BRANCH  10  11
ATOM     11  C   UNL     1       2.504   4.408  18.407  0.00  0.00    +0.000 A 
ATOM     12  C   UNL     1       2.191   3.033  18.282  0.00  0.00    +0.000 A 
ATOM     13  C   UNL     1       1.560   2.325  19.300  0.00  0.00    +0.000 A 
ATOM     14  C   UNL     1       1.212   2.976  20.480  0.00  0.00    +0.000 A 
ATOM     15  C   UNL     1       1.481   4.332  20.624  0.00  0.00    +0.000 A 
ATOM     16  C   UNL     1       2.108   5.068  19.596  0.00  0.00    +0.000 A 
ATOM     17  C   UNL     1       2.329   6.537  19.844  0.00  0.00    +0.000 C 
ENDBRANCH  10  11
ENDBRANCH   6  10
ENDBRANCH   1   2
BRANCH   1  19
ATOM     18  N   UNL     1       8.937   9.120  18.976  0.00  0.00    +0.000 N 
ATOM     19  C   UNL     1       8.050   8.633  18.024  0.00  0.00    +0.000 C 
ATOM     20  O   UNL     1       7.566   9.286  17.104  0.00  0.00    +0.000 OA
ATOM     21  H   UNL     1       9.039   8.543  19.804  0.00  0.00    +0.000 HD
BRANCH  18  25
ATOM     22  C   UNL     1      10.483  13.049  19.279  0.00  0.00    +0.000 A 
ATOM     23  C   UNL     1       9.834  12.457  20.362  0.00  0.00    +0.000 A 
ATOM     24  C   UNL     1       9.314  11.161  20.278  0.00  0.00    +0.000 A 
ATOM     25  C   UNL     1       9.367  10.461  19.062  0.00  0.00    +0.000 A 
ATOM     26  C   UNL     1       9.962  11.077  17.953  0.00  0.00    +0.000 A 
ATOM     27  C   UNL     1      10.538  12.351  18.068  0.00  0.00    +0.000 A 
ATOM     28 CL   UNL     1      11.389  12.992  16.704  0.00  0.00    +0.000 Cl
BRANCH  22  30
ATOM     29  C   UNL     1      10.207  15.385  19.050  0.00  0.00    +0.000 C 
ATOM     30  O   UNL     1      11.069  14.289  19.352  0.00  0.00    +0.000 OA
ENDBRANCH  22  30
BRANCH  24  31
ATOM     31  O   UNL     1       8.859  10.701  21.485  0.00  0.00    +0.000 OA
ATOM     32  C   UNL     1       8.355  11.665  22.391  0.00  0.00    +0.000 C 
ENDBRANCH  24  31
ENDBRANCH  18  25
ENDBRANCH   1  19
TORSDOF 7
ENDMDL
MODEL 4
REMARK VINA RESULT:      -7.3      6.419      9.607
REMARK  Name = 
REMARK  10 active torsions:
REMARK  status: ('A' for Active; 'I' for Inactive)
REMARK    1  A    between atoms: C_1  and  O_2
REMARK    2  A    between atoms: O_2  and  C_3
REMARK    3  A    between atoms: C_5  and  O_6
REMARK    4  A    between atoms: O_6  and  C_7
REMARK    5  A    between atoms: C_8  and  N_9
REMARK    6  A    between atoms: C_10  and  C_12
REMARK    7  A    between atoms: C_12  and  N_13
REMARK    8  A    between atoms: N_17  and  C_18
REMARK    9  A    between atoms: C_18  and  C_19
REMARK   10  A    between atoms: C_24  and  C_25
REMARK                            x       y       z     vdW  Elec       q    Type
REMARK                         _______ _______ _______ _____ _____    ______ ____
ROOT
ATOM      1  C   UNL     1       1.201   9.082  19.374  0.00  0.00    +0.000 C 
ENDROOT
BRANCH   1   2
ATOM      2  N   UNL     1       0.653  10.276  18.693  0.00  0.00    +0.000 NA
ATOM      3  C   UNL     1      -0.374  10.057  17.667  0.00  0.00    +0.000 C 
ATOM      4  C   UNL     1      -1.737   9.997  18.302  0.00  0.00    +0.000 C 
ATOM      5  C   UNL     1      -2.089  11.286  19.015  0.00  0.00    +0.000 C 
ATOM      6  N   UNL     1      -1.041  11.845  19.892  0.00  0.00    +0.000 NA
ATOM      7  S   UNL     1       0.580  11.740  19.472  0.00  0.00    +0.000 S 
ATOM      8  O   UNL     1       1.367  11.692  20.674  0.00  0.00    +0.000 OA
ATOM      9  O   UNL     1       0.849  12.718  18.448  0.00  0.00    +0.000 OA
BRANCH   6  10
ATOM     10  C   UNL     1      -1.440  13.163  20.500  0.00  0.00    +0.000 C 
BRANCH  10  11
ATOM     11  C   UNL     1      -2.490  13.138  21.609  0.00  0.00    +0.000 A 
ATOM     12  C   UNL     1      -3.624  13.975  21.474  0.00  0.00    +0.000 A 
ATOM     13  C   UNL     1      -4.651  13.984  22.412  0.00  0.00    +0.000 A 
ATOM     14  C   UNL     1      -4.573  13.157  23.528  0.00  0.00    +0.000 A 
ATOM     15  C   UNL     1      -3.460  12.342  23.706  0.00  0.00    +0.000 A 
ATOM     16  C   UNL     1      -2.404  12.332  22.770  0.00  0.00    +0.000 A 
ATOM     17  C   UNL     1      -1.233  11.433  23.071  0.00  0.00    +0.000 C 
ENDBRANCH  10  11
ENDBRANCH   6  10
ENDBRANCH   1   2
BRANCH   1  19
ATOM     18  N   UNL     1       2.468   7.056  18.898  0.00  0.00    +0.000 N 
ATOM     19  C   UNL     1       2.094   8.300  18.404  0.00  0.00    +0.000 C 
ATOM     20  O   UNL     1       2.460   8.779  17.334  0.00  0.00    +0.000 OA
ATOM     21  H   UNL     1       2.298   6.919  19.888  0.00  0.00    +0.000 HD
BRANCH  18  25
ATOM     22  C   UNL     1       5.158   4.574  16.772  0.00  0.00    +0.000 A 
ATOM     23  C   UNL     1       3.844   4.165  17.000  0.00  0.00    +0.000 A 
ATOM     24  C   UNL     1       2.943   4.971  17.703  0.00  0.00    +0.000 A 
ATOM     25  C   UNL     1       3.376   6.181  18.267  0.00  0.00    +0.000 A 
ATOM     26  C   UNL     1       4.714   6.566  18.096  0.00  0.00    +0.000 A 
ATOM     27  C   UNL     1       5.590   5.781  17.334  0.00  0.00    +0.000 A 
ATOM     28 CL   UNL     1       7.183   6.386  17.034  0.00  0.00    +0.000 Cl
BRANCH  22  30
ATOM     29  C   UNL     1       6.007   4.092  14.620  0.00  0.00    +0.000 C 
ATOM     30  O   UNL     1       6.045   3.841  16.024  0.00  0.00    +0.000 OA
ENDBRANCH  22  30
BRANCH  24  31
ATOM     31  O   UNL     1       1.669   4.470  17.684  0.00  0.00    +0.000 OA
ATOM     32  C   UNL     1       1.405   3.354  18.513  0.00  0.00    +0.000 C 
ENDBRANCH  24  31
ENDBRANCH  18  25
ENDBRANCH   1  19
TORSDOF 7
ENDMDL
MODEL 5
REMARK VINA RESULT:      -7.2      6.694     10.912
REMARK  Name = 
REMARK  10 active torsions:
REMARK  status: ('A' for Active; 'I' for Inactive)
REMARK    1  A    between atoms: C_1  and  O_2
REMARK    2  A    between atoms: O_2  and  C_3
REMARK    3  A    between atoms: C_5  and  O_6
REMARK    4  A    between atoms: O_6  and  C_7
REMARK    5  A    between atoms: C_8  and  N_9
REMARK    6  A    between atoms: C_10  and  C_12
REMARK    7  A    between atoms: C_12  and  N_13
REMARK    8  A    between atoms: N_17  and  C_18
REMARK    9  A    between atoms: C_18  and  C_19
REMARK   10  A    between atoms: C_24  and  C_25
REMARK                            x       y       z     vdW  Elec       q    Type
REMARK                         _______ _______ _______ _____ _____    ______ ____
ROOT
ATOM      1  C   UNL     1       1.103   9.754  21.397  0.00  0.00    +0.000 C 
ENDROOT
BRANCH   1   2
ATOM      2  N   UNL     1      -0.072  10.515  20.920  0.00  0.00    +0.000 NA
ATOM      3  C   UNL     1      -0.969  11.079  21.936  0.00  0.00    +0.000 C 
ATOM      4  C   UNL     1      -0.474  12.433  22.370  0.00  0.00    +0.000 C 
ATOM      5  C   UNL     1      -0.430  13.418  21.220  0.00  0.00    +0.000 C 
ATOM      6  N   UNL     1       0.186  12.924  19.972  0.00  0.00    +0.000 NA
ATOM      7  S   UNL     1      -0.026  11.336  19.477  0.00  0.00    +0.000 S 
ATOM      8  O   UNL     1       1.130  10.929  18.723  0.00  0.00    +0.000 OA
ATOM      9  O   UNL     1      -1.352  11.201  18.932  0.00  0.00    +0.000 OA
BRANCH   6  10
ATOM     10  C   UNL     1       0.119  13.935  18.858  0.00  0.00    +0.000 C 
BRANCH  10  11
ATOM     11  C   UNL     1       1.376  14.757  18.577  0.00  0.00    +0.000 A 
ATOM     12  C   UNL     1       2.607  14.071  18.444  0.00  0.00    +0.000 A 
ATOM     13  C   UNL     1       3.793  14.734  18.145  0.00  0.00    +0.000 A 
ATOM     14  C   UNL     1       3.788  16.115  17.976  0.00  0.00    +0.000 A 
ATOM     15  C   UNL     1       2.601  16.823  18.128  0.00  0.00    +0.000 A 
ATOM     16  C   UNL     1       1.392  16.167  18.445  0.00  0.00    +0.000 A 
ATOM     17  C   UNL     1       0.170  17.032  18.613  0.00  0.00    +0.000 C 
ENDBRANCH  10  11
ENDBRANCH   6  10
ENDBRANCH   1   2
BRANCH   1  19
ATOM     18  N   UNL     1       2.007   7.649  20.566  0.00  0.00    +0.000 N 
ATOM     19  C   UNL     1       0.892   8.260  21.128  0.00  0.00    +0.000 C 
ATOM     20  O   UNL     1      -0.181   7.708  21.353  0.00  0.00    +0.000 OA
ATOM     21  H   UNL     1       2.711   8.286  20.210  0.00  0.00    +0.000 HD
BRANCH  18  25
ATOM     22  C   UNL     1       2.384   3.620  19.324  0.00  0.00    +0.000 A 
ATOM     23  C   UNL     1       2.649   4.664  18.437  0.00  0.00    +0.000 A 
ATOM     24  C   UNL     1       2.526   6.001  18.830  0.00  0.00    +0.000 A 
ATOM     25  C   UNL     1       2.050   6.315  20.113  0.00  0.00    +0.000 A 
ATOM     26  C   UNL     1       1.720   5.269  20.986  0.00  0.00    +0.000 A 
ATOM     27  C   UNL     1       1.909   3.933  20.603  0.00  0.00    +0.000 A 
ATOM     28 CL   UNL     1       1.628   2.695  21.778  0.00  0.00    +0.000 Cl
BRANCH  22  30
ATOM     29  C   UNL     1       3.365   2.070  17.834  0.00  0.00    +0.000 C 
ATOM     30  O   UNL     1       2.565   2.301  18.993  0.00  0.00    +0.000 OA
ENDBRANCH  22  30
BRANCH  24  31
ATOM     31  O   UNL     1       2.981   6.870  17.874  0.00  0.00    +0.000 OA
ATOM     32  C   UNL     1       4.280   6.638  17.361  0.00  0.00    +0.000 C 
ENDBRANCH  24  31
ENDBRANCH  18  25
ENDBRANCH   1  19
TORSDOF 7
ENDMDL
MODEL 6
REMARK VINA RESULT:      -7.2      7.080     10.655
REMARK  Name = 
REMARK  10 active torsions:
REMARK  status: ('A' for Active; 'I' for Inactive)
REMARK    1  A    between atoms: C_1  and  O_2
REMARK    2  A    between atoms: O_2  and  C_3
REMARK    3  A    between atoms: C_5  and  O_6
REMARK    4  A    between atoms: O_6  and  C_7
REMARK    5  A    between atoms: C_8  and  N_9
REMARK    6  A    between atoms: C_10  and  C_12
REMARK    7  A    between atoms: C_12  and  N_13
REMARK    8  A    between atoms: N_17  and  C_18
REMARK    9  A    between atoms: C_18  and  C_19
REMARK   10  A    between atoms: C_24  and  C_25
REMARK                            x       y       z     vdW  Elec       q    Type
REMARK                         _______ _______ _______ _____ _____    ______ ____
ROOT
ATOM      1  C   UNL     1       1.821   8.971  20.863  0.00  0.00    +0.000 C 
ENDROOT
BRANCH   1   2
ATOM      2  N   UNL     1       0.415   9.428  20.900  0.00  0.00    +0.000 NA
ATOM      3  C   UNL     1      -0.488   8.756  21.843  0.00  0.00    +0.000 C 
ATOM      4  C   UNL     1      -0.410   9.416  23.194  0.00  0.00    +0.000 C 
ATOM      5  C   UNL     1      -0.826  10.872  23.140  0.00  0.00    +0.000 C 
ATOM      6  N   UNL     1      -0.237  11.670  22.047  0.00  0.00    +0.000 NA
ATOM      7  S   UNL     1       0.021  10.998  20.531  0.00  0.00    +0.000 S 
ATOM      8  O   UNL     1       1.147  11.652  19.921  0.00  0.00    +0.000 OA
ATOM      9  O   UNL     1      -1.246  10.911  19.850  0.00  0.00    +0.000 OA
BRANCH   6  10
ATOM     10  C   UNL     1      -0.760  13.082  22.017  0.00  0.00    +0.000 C 
BRANCH  10  11
ATOM     11  C   UNL     1      -2.163  13.325  22.572  0.00  0.00    +0.000 A 
ATOM     12  C   UNL     1      -3.258  12.728  21.901  0.00  0.00    +0.000 A 
ATOM     13  C   UNL     1      -4.564  12.859  22.361  0.00  0.00    +0.000 A 
ATOM     14  C   UNL     1      -4.821  13.603  23.509  0.00  0.00    +0.000 A 
ATOM     15  C   UNL     1      -3.771  14.225  24.176  0.00  0.00    +0.000 A 
ATOM     16  C   UNL     1      -2.442  14.113  23.715  0.00  0.00    +0.000 A 
ATOM     17  C   UNL     1      -1.384  14.848  24.496  0.00  0.00    +0.000 C 
ENDBRANCH  10  11
ENDBRANCH   6  10
ENDBRANCH   1   2
BRANCH   1  19
ATOM     18  N   UNL     1       2.210   6.616  20.378  0.00  0.00    +0.000 N 
ATOM     19  C   UNL     1       1.977   7.864  19.814  0.00  0.00    +0.000 C 
ATOM     20  O   UNL     1       1.942   8.105  18.611  0.00  0.00    +0.000 OA
ATOM     21  H   UNL     1       2.462   6.628  21.360  0.00  0.00    +0.000 HD
BRANCH  18  25
ATOM     22  C   UNL     1       3.112   2.971  18.423  0.00  0.00    +0.000 A 
ATOM     23  C   UNL     1       4.102   3.931  18.624  0.00  0.00    +0.000 A 
ATOM     24  C   UNL     1       3.821   5.143  19.266  0.00  0.00    +0.000 A 
ATOM     25  C   UNL     1       2.504   5.446  19.646  0.00  0.00    +0.000 A 
ATOM     26  C   UNL     1       1.493   4.511  19.387  0.00  0.00    +0.000 A 
ATOM     27  C   UNL     1       1.799   3.273  18.803  0.00  0.00    +0.000 A 
ATOM     28 CL   UNL     1       0.533   2.104  18.648  0.00  0.00    +0.000 Cl
BRANCH  22  30
ATOM     29  C   UNL     1       4.071   0.830  18.706  0.00  0.00    +0.000 C 
ATOM     30  O   UNL     1       3.370   1.744  17.864  0.00  0.00    +0.000 OA
ENDBRANCH  22  30
BRANCH  24  31
ATOM     31  O   UNL     1       4.950   5.879  19.510  0.00  0.00    +0.000 OA
ATOM     32  C   UNL     1       6.185   5.312  19.114  0.00  0.00    +0.000 C 
ENDBRANCH  24  31
ENDBRANCH  18  25
ENDBRANCH   1  19
TORSDOF 7
ENDMDL
MODEL 7
REMARK VINA RESULT:      -7.1      6.985      9.989
REMARK  Name = 
REMARK  10 active torsions:
REMARK  status: ('A' for Active; 'I' for Inactive)
REMARK    1  A    between atoms: C_1  and  O_2
REMARK    2  A    between atoms: O_2  and  C_3
REMARK    3  A    between atoms: C_5  and  O_6
REMARK    4  A    between atoms: O_6  and  C_7
REMARK    5  A    between atoms: C_8  and  N_9
REMARK    6  A    between atoms: C_10  and  C_12
REMARK    7  A    between atoms: C_12  and  N_13
REMARK    8  A    between atoms: N_17  and  C_18
REMARK    9  A    between atoms: C_18  and  C_19
REMARK   10  A    between atoms: C_24  and  C_25
REMARK                            x       y       z     vdW  Elec       q    Type
REMARK                         _______ _______ _______ _____ _____    ______ ____
ROOT
ATOM      1  C   UNL     1       1.424   9.930  18.075  0.00  0.00    +0.000 C 
ENDROOT
BRANCH   1   2
ATOM      2  N   UNL     1       1.182  10.844  19.213  0.00  0.00    +0.000 NA
ATOM      3  C   UNL     1       1.908  12.120  19.220  0.00  0.00    +0.000 C 
ATOM      4  C   UNL     1       1.143  13.155  18.438  0.00  0.00    +0.000 C 
ATOM      5  C   UNL     1      -0.226  13.418  19.030  0.00  0.00    +0.000 C 
ATOM      6  N   UNL     1      -1.018  12.222  19.379  0.00  0.00    +0.000 NA
ATOM      7  S   UNL     1      -0.279  10.851  20.001  0.00  0.00    +0.000 S 
ATOM      8  O   UNL     1      -1.046   9.697  19.615  0.00  0.00    +0.000 OA
ATOM      9  O   UNL     1       0.047  11.096  21.383  0.00  0.00    +0.000 OA
BRANCH   6  10
ATOM     10  C   UNL     1      -2.330  12.570  20.032  0.00  0.00    +0.000 C 
BRANCH  10  11
ATOM     11  C   UNL     1      -3.609  12.172  19.298  0.00  0.00    +0.000 A 
ATOM     12  C   UNL     1      -3.489  11.617  18.001  0.00  0.00    +0.000 A 
ATOM     13  C   UNL     1      -4.597  11.186  17.278  0.00  0.00    +0.000 A 
ATOM     14  C   UNL     1      -5.869  11.304  17.829  0.00  0.00    +0.000 A 
ATOM     15  C   UNL     1      -6.024  11.870  19.090  0.00  0.00    +0.000 A 
ATOM     16  C   UNL     1      -4.913  12.324  19.830  0.00  0.00    +0.000 A 
ATOM     17  C   UNL     1      -5.194  12.945  21.173  0.00  0.00    +0.000 C 
ENDBRANCH  10  11
ENDBRANCH   6  10
ENDBRANCH   1   2
BRANCH   1  19
ATOM     18  N   UNL     1       2.385   7.746  17.578  0.00  0.00    +0.000 N 
ATOM     19  C   UNL     1       1.956   8.589  18.596  0.00  0.00    +0.000 C 
ATOM     20  O   UNL     1       1.939   8.308  19.791  0.00  0.00    +0.000 OA
ATOM     21  H   UNL     1       2.097   8.019  16.645  0.00  0.00    +0.000 HD
BRANCH  18  25
ATOM     22  C   UNL     1       3.655   3.794  18.406  0.00  0.00    +0.000 A 
ATOM     23  C   UNL     1       4.576   4.770  18.027  0.00  0.00    +0.000 A 
ATOM     24  C   UNL     1       4.173   6.081  17.747  0.00  0.00    +0.000 A 
ATOM     25  C   UNL     1       2.809   6.414  17.763  0.00  0.00    +0.000 A 
ATOM     26  C   UNL     1       1.874   5.419  18.079  0.00  0.00    +0.000 A 
ATOM     27  C   UNL     1       2.295   4.127  18.422  0.00  0.00    +0.000 A 
ATOM     28 CL   UNL     1       1.104   2.988  18.949  0.00  0.00    +0.000 Cl
BRANCH  22  30
ATOM     29  C   UNL     1       4.391   2.352  20.127  0.00  0.00    +0.000 C 
ATOM     30  O   UNL     1       4.026   2.521  18.758  0.00  0.00    +0.000 OA
ENDBRANCH  22  30
BRANCH  24  31
ATOM     31  O   UNL     1       5.235   6.923  17.552  0.00  0.00    +0.000 OA
ATOM     32  C   UNL     1       6.502   6.324  17.353  0.00  0.00    +0.000 C 
ENDBRANCH  24  31
ENDBRANCH  18  25
ENDBRANCH   1  19
TORSDOF 7
ENDMDL
MODEL 8
REMARK VINA RESULT:      -7.1      6.592      9.834
REMARK  Name = 
REMARK  10 active torsions:
REMARK  status: ('A' for Active; 'I' for Inactive)
REMARK    1  A    between atoms: C_1  and  O_2
REMARK    2  A    between atoms: O_2  and  C_3
REMARK    3  A    between atoms: C_5  and  O_6
REMARK    4  A    between atoms: O_6  and  C_7
REMARK    5  A    between atoms: C_8  and  N_9
REMARK    6  A    between atoms: C_10  and  C_12
REMARK    7  A    between atoms: C_12  and  N_13
REMARK    8  A    between atoms: N_17  and  C_18
REMARK    9  A    between atoms: C_18  and  C_19
REMARK   10  A    between atoms: C_24  and  C_25
REMARK                            x       y       z     vdW  Elec       q    Type
REMARK                         _______ _______ _______ _____ _____    ______ ____
ROOT
ATOM      1  C   UNL     1       1.199   8.905  19.742  0.00  0.00    +0.000 C 
ENDROOT
BRANCH   1   2
ATOM      2  N   UNL     1       0.847  10.248  19.232  0.00  0.00    +0.000 NA
ATOM      3  C   UNL     1      -0.127  10.321  18.136  0.00  0.00    +0.000 C 
ATOM      4  C   UNL     1      -1.527  10.344  18.689  0.00  0.00    +0.000 C 
ATOM      5  C   UNL     1      -1.768  11.547  19.577  0.00  0.00    +0.000 C 
ATOM      6  N   UNL     1      -0.721  11.826  20.581  0.00  0.00    +0.000 NA
ATOM      7  S   UNL     1       0.900  11.576  20.228  0.00  0.00    +0.000 S 
ATOM      8  O   UNL     1       1.592  11.245  21.444  0.00  0.00    +0.000 OA
ATOM      9  O   UNL     1       1.353  12.653  19.385  0.00  0.00    +0.000 OA
BRANCH   6  10
ATOM     10  C   UNL     1      -0.998  13.079  21.369  0.00  0.00    +0.000 C 
BRANCH  10  11
ATOM     11  C   UNL     1      -2.301  13.136  22.165  0.00  0.00    +0.000 A 
ATOM     12  C   UNL     1      -2.507  12.170  23.179  0.00  0.00    +0.000 A 
ATOM     13  C   UNL     1      -3.643  12.174  23.982  0.00  0.00    +0.000 A 
ATOM     14  C   UNL     1      -4.620  13.146  23.790  0.00  0.00    +0.000 A 
ATOM     15  C   UNL     1      -4.462  14.093  22.784  0.00  0.00    +0.000 A 
ATOM     16  C   UNL     1      -3.322  14.095  21.953  0.00  0.00    +0.000 A 
ATOM     17  C   UNL     1      -3.262  15.148  20.877  0.00  0.00    +0.000 C 
ENDBRANCH  10  11
ENDBRANCH   6  10
ENDBRANCH   1   2
BRANCH   1  19
ATOM     18  N   UNL     1       2.433   6.898  19.121  0.00  0.00    +0.000 N 
ATOM     19  C   UNL     1       2.093   8.186  18.726  0.00  0.00    +0.000 C 
ATOM     20  O   UNL     1       2.488   8.742  17.705  0.00  0.00    +0.000 OA
ATOM     21  H   UNL     1       2.242   6.683  20.094  0.00  0.00    +0.000 HD
BRANCH  18  25
ATOM     22  C   UNL     1       5.105   4.537  16.840  0.00  0.00    +0.000 A 
ATOM     23  C   UNL     1       3.785   4.129  17.031  0.00  0.00    +0.000 A 
ATOM     24  C   UNL     1       2.890   4.896  17.785  0.00  0.00    +0.000 A 
ATOM     25  C   UNL     1       3.334   6.058  18.435  0.00  0.00    +0.000 A 
ATOM     26  C   UNL     1       4.677   6.437  18.299  0.00  0.00    +0.000 A 
ATOM     27  C   UNL     1       5.548   5.696  17.488  0.00  0.00    +0.000 A 
ATOM     28 CL   UNL     1       7.151   6.300  17.239  0.00  0.00    +0.000 Cl
BRANCH  22  30
ATOM     29  C   UNL     1       5.881   4.111  14.648  0.00  0.00    +0.000 C 
ATOM     30  O   UNL     1       5.987   3.847  16.046  0.00  0.00    +0.000 OA
ENDBRANCH  22  30
BRANCH  24  31
ATOM     31  O   UNL     1       1.609   4.413  17.724  0.00  0.00    +0.000 OA
ATOM     32  C   UNL     1       1.344   3.205  18.412  0.00  0.00    +0.000 C 
ENDBRANCH  24  31
ENDBRANCH  18  25
ENDBRANCH   1  19
TORSDOF 7
ENDMDL
MODEL 9
REMARK VINA RESULT:      -7.1      6.301      9.787
REMARK  Name = 
REMARK  10 active torsions:
REMARK  status: ('A' for Active; 'I' for Inactive)
REMARK    1  A    between atoms: C_1  and  O_2
REMARK    2  A    between atoms: O_2  and  C_3
REMARK    3  A    between atoms: C_5  and  O_6
REMARK    4  A    between atoms: O_6  and  C_7
REMARK    5  A    between atoms: C_8  and  N_9
REMARK    6  A    between atoms: C_10  and  C_12
REMARK    7  A    between atoms: C_12  and  N_13
REMARK    8  A    between atoms: N_17  and  C_18
REMARK    9  A    between atoms: C_18  and  C_19
REMARK   10  A    between atoms: C_24  and  C_25
REMARK                            x       y       z     vdW  Elec       q    Type
REMARK                         _______ _______ _______ _____ _____    ______ ____
ROOT
ATOM      1  C   UNL     1       1.890   8.291  20.821  0.00  0.00    +0.000 C 
ENDROOT
BRANCH   1   2
ATOM      2  N   UNL     1       0.512   8.797  20.637  0.00  0.00    +0.000 NA
ATOM      3  C   UNL     1      -0.516   8.311  21.566  0.00  0.00    +0.000 C 
ATOM      4  C   UNL     1      -0.542   9.168  22.803  0.00  0.00    +0.000 C 
ATOM      5  C   UNL     1      -0.875  10.611  22.488  0.00  0.00    +0.000 C 
ATOM      6  N   UNL     1      -0.138  11.211  21.358  0.00  0.00    +0.000 NA
ATOM      7  S   UNL     1       0.238  10.304  19.997  0.00  0.00    +0.000 S 
ATOM      8  O   UNL     1       1.453  10.816  19.421  0.00  0.00    +0.000 OA
ATOM      9  O   UNL     1      -0.955  10.159  19.203  0.00  0.00    +0.000 OA
BRANCH   6  10
ATOM     10  C   UNL     1      -0.582  12.619  21.061  0.00  0.00    +0.000 C 
BRANCH  10  11
ATOM     11  C   UNL     1      -2.021  12.992  21.413  0.00  0.00    +0.000 A 
ATOM     12  C   UNL     1      -3.041  12.659  20.489  0.00  0.00    +0.000 A 
ATOM     13  C   UNL     1      -4.383  12.920  20.746  0.00  0.00    +0.000 A 
ATOM     14  C   UNL     1      -4.750  13.535  21.939  0.00  0.00    +0.000 A 
ATOM     15  C   UNL     1      -3.770  13.900  22.856  0.00  0.00    +0.000 A 
ATOM     16  C   UNL     1      -2.404  13.654  22.604  0.00  0.00    +0.000 A 
ATOM     17  C   UNL     1      -1.423  14.113  23.652  0.00  0.00    +0.000 C 
ENDBRANCH  10  11
ENDBRANCH   6  10
ENDBRANCH   1   2
BRANCH   1  19
ATOM     18  N   UNL     1       3.105   6.395  19.891  0.00  0.00    +0.000 N 
ATOM     19  C   UNL     1       2.317   7.497  19.582  0.00  0.00    +0.000 C 
ATOM     20  O   UNL     1       2.017   7.859  18.447  0.00  0.00    +0.000 OA
ATOM     21  H   UNL     1       3.471   6.381  20.837  0.00  0.00    +0.000 HD
BRANCH  18  25
ATOM     22  C   UNL     1       4.964   4.100  16.859  0.00  0.00    +0.000 A 
ATOM     23  C   UNL     1       3.606   3.942  17.136  0.00  0.00    +0.000 A 
ATOM     24  C   UNL     1       2.977   4.689  18.137  0.00  0.00    +0.000 A 
ATOM     25  C   UNL     1       3.729   5.561  18.941  0.00  0.00    +0.000 A 
ATOM     26  C   UNL     1       5.107   5.675  18.708  0.00  0.00    +0.000 A 
ATOM     27  C   UNL     1       5.714   4.969  17.660  0.00  0.00    +0.000 A 
ATOM     28 CL   UNL     1       7.386   5.269  17.329  0.00  0.00    +0.000 Cl
BRANCH  22  30
ATOM     29  C   UNL     1       5.668   4.151  14.603  0.00  0.00    +0.000 C 
ATOM     30  O   UNL     1       5.595   3.437  15.836  0.00  0.00    +0.000 OA
ENDBRANCH  22  30
BRANCH  24  31
ATOM     31  O   UNL     1       1.619   4.508  18.149  0.00  0.00    +0.000 OA
ATOM     32  C   UNL     1       1.123   3.424  18.912  0.00  0.00    +0.000 C 
ENDBRANCH  24  31
ENDBRANCH  18  25
ENDBRANCH   1  19
TORSDOF 7
ENDMDL
