MODEL 1
REMARK VINA RESULT:      -8.6      0.000      0.000
REMARK  Name = 
REMARK  12 active torsions:
REMARK  status: ('A' for Active; 'I' for Inactive)
REMARK    1  A    between atoms: C_1  and  C_2
REMARK    2  A    between atoms: C_7  and  C_8
REMARK    3  A    between atoms: C_7  and  C_26
REMARK    4  A    between atoms: C_13  and  C_14
REMARK    5  A    between atoms: C_18  and  C_19
REMARK    6  A    between atoms: C_19  and  C_20
REMARK    7  A    between atoms: C_20  and  C_21
REMARK    8  A    between atoms: C_21  and  O_23
REMARK    9  A    between atoms: C_26  and  C_27
REMARK   10  A    between atoms: C_26  and  C_28
REMARK   11  A    between atoms: C_29  and  C_30
REMARK   12  A    between atoms: C_32  and  N_33
REMARK                            x       y       z     vdW  Elec       q    Type
REMARK                         _______ _______ _______ _____ _____    ______ ____
ROOT
ATOM      1  C   UNL     1       2.806   8.029  17.460  0.00  0.00    +0.000 C 
ATOM      2  C   UNL     1       2.448   7.326  18.711  0.00  0.00    +0.000 A 
ATOM      3  N   UNL     1       1.829   8.033  19.728  0.00  0.00    +0.000 N 
ATOM      4  N   UNL     1       1.561   7.305  20.811  0.00  0.00    +0.000 NA
ATOM      5  C   UNL     1       2.038   6.120  20.477  0.00  0.00    +0.000 A 
ATOM      6  C   UNL     1       2.581   6.026  19.189  0.00  0.00    +0.000 A 
ATOM      7  C   UNL     1       3.091   4.677  18.659  0.00  0.00    +0.000 C 
ATOM      8  C   UNL     1       3.112   3.660  19.857  0.00  0.00    +0.000 C 
ATOM      9  C   UNL     1       2.578   3.927  21.079  0.00  0.00    +0.000 C 
ATOM     10  O   UNL     1       1.951   5.125  21.380  0.00  0.00    +0.000 OA
ATOM     11  H   UNL     1       1.568   9.018  19.733  0.00  0.00    +0.000 HD
ENDROOT
BRANCH   7  12
ATOM     12  C   UNL     1       4.557   4.973  18.206  0.00  0.00    +0.000 A 
ATOM     13  C   UNL     1       5.583   5.213  19.138  0.00  0.00    +0.000 A 
ATOM     14  C   UNL     1       6.915   5.281  18.723  0.00  0.00    +0.000 A 
ATOM     15  F   UNL     1       7.870   5.520  19.633  0.00  0.00    +0.000 F 
ATOM     16  C   UNL     1       7.281   5.081  17.396  0.00  0.00    +0.000 A 
ATOM     17  C   UNL     1       6.301   4.885  16.422  0.00  0.00    +0.000 A 
ATOM     18  C   UNL     1       4.955   4.907  16.855  0.00  0.00    +0.000 A 
BRANCH  17  19
ATOM     19  C   UNL     1       6.619   4.665  14.987  0.00  0.00    +0.000 A 
ATOM     20  C   UNL     1       7.679   5.322  14.348  0.00  0.00    +0.000 A 
ATOM     21  C   UNL     1       7.902   5.171  12.975  0.00  0.00    +0.000 A 
ATOM     22  C   UNL     1       7.060   4.369  12.205  0.00  0.00    +0.000 A 
ATOM     23  C   UNL     1       6.006   3.677  12.803  0.00  0.00    +0.000 A 
ATOM     24  C   UNL     1       5.833   3.802  14.192  0.00  0.00    +0.000 A 
BRANCH  23  25
ATOM     25  C   UNL     1       5.083   2.806  11.982  0.00  0.00    +0.000 C 
BRANCH  25  26
ATOM     26  C   UNL     1       5.779   2.206  10.758  0.00  0.00    +0.000 C 
BRANCH  26  27
ATOM     27  C   UNL     1       6.477   0.911  11.091  0.00  0.00    +0.000 C 
ATOM     28  O   UNL     1       5.966  -0.196  11.067  0.00  0.00    +0.000 OA
BRANCH  27  29
ATOM     29  O   UNL     1       7.776   1.100  11.426  0.00  0.00    +0.000 OA
ATOM     30  H   UNL     1       8.071   2.027  11.364  0.00  0.00    +0.000 HD
ENDBRANCH  27  29
ENDBRANCH  26  27
ENDBRANCH  25  26
ENDBRANCH  23  25
ENDBRANCH  17  19
ENDBRANCH   7  12
BRANCH   7  31
ATOM     31  C   UNL     1       2.124   4.159  17.477  0.00  0.00    +0.000 C 
ATOM     32  C   UNL     1       2.638   2.977  16.615  0.00  0.00    +0.000 C 
ATOM     33  C   UNL     1       0.716   3.744  17.940  0.00  0.00    +0.000 C 
ENDBRANCH   7  31
BRANCH   9  34
ATOM     34  N   UNL     1       2.608   3.081  22.170  0.00  0.00    +0.000 N 
ATOM     35  H   UNL     1       1.823   3.134  22.818  0.00  0.00    +0.000 HD
ATOM     36  H   UNL     1       3.519   3.063  22.623  0.00  0.00    +0.000 HD
ENDBRANCH   9  34
BRANCH   8  37
ATOM     37  C   UNL     1       3.790   2.411  19.691  0.00  0.00    +0.000 C 
ATOM     38  N   UNL     1       4.295   1.372  19.596  0.00  0.00    +0.000 NA
ENDBRANCH   8  37
TORSDOF 9
ENDMDL
MODEL 2
REMARK VINA RESULT:      -8.4      1.329      1.583
REMARK  Name = 
REMARK  12 active torsions:
REMARK  status: ('A' for Active; 'I' for Inactive)
REMARK    1  A    between atoms: C_1  and  C_2
REMARK    2  A    between atoms: C_7  and  C_8
REMARK    3  A    between atoms: C_7  and  C_26
REMARK    4  A    between atoms: C_13  and  C_14
REMARK    5  A    between atoms: C_18  and  C_19
REMARK    6  A    between atoms: C_19  and  C_20
REMARK    7  A    between atoms: C_20  and  C_21
REMARK    8  A    between atoms: C_21  and  O_23
REMARK    9  A    between atoms: C_26  and  C_27
REMARK   10  A    between atoms: C_26  and  C_28
REMARK   11  A    between atoms: C_29  and  C_30
REMARK   12  A    between atoms: C_32  and  N_33
REMARK                            x       y       z     vdW  Elec       q    Type
REMARK                         _______ _______ _______ _____ _____    ______ ____
ROOT
ATOM      1  C   UNL     1       2.855   8.009  17.332  0.00  0.00    +0.000 C 
ATOM      2  C   UNL     1       2.501   7.323  18.594  0.00  0.00    +0.000 A 
ATOM      3  N   UNL     1       1.883   8.043  19.603  0.00  0.00    +0.000 N 
ATOM      4  N   UNL     1       1.618   7.329  20.696  0.00  0.00    +0.000 NA
ATOM      5  C   UNL     1       2.096   6.141  20.377  0.00  0.00    +0.000 A 
ATOM      6  C   UNL     1       2.636   6.030  19.090  0.00  0.00    +0.000 A 
ATOM      7  C   UNL     1       3.147   4.674  18.578  0.00  0.00    +0.000 C 
ATOM      8  C   UNL     1       3.172   3.673  19.788  0.00  0.00    +0.000 C 
ATOM      9  C   UNL     1       2.640   3.957  21.008  0.00  0.00    +0.000 C 
ATOM     10  O   UNL     1       2.012   5.157  21.294  0.00  0.00    +0.000 OA
ATOM     11  H   UNL     1       1.620   9.028  19.595  0.00  0.00    +0.000 HD
ENDROOT
BRANCH   7  12
ATOM     12  C   UNL     1       4.611   4.966  18.117  0.00  0.00    +0.000 A 
ATOM     13  C   UNL     1       5.646   5.188  19.044  0.00  0.00    +0.000 A 
ATOM     14  C   UNL     1       6.975   5.253  18.621  0.00  0.00    +0.000 A 
ATOM     15  F   UNL     1       7.938   5.475  19.526  0.00  0.00    +0.000 F 
ATOM     16  C   UNL     1       7.331   5.065  17.288  0.00  0.00    +0.000 A 
ATOM     17  C   UNL     1       6.343   4.886  16.319  0.00  0.00    +0.000 A 
ATOM     18  C   UNL     1       4.999   4.913  16.762  0.00  0.00    +0.000 A 
BRANCH  17  19
ATOM     19  C   UNL     1       6.648   4.681  14.880  0.00  0.00    +0.000 A 
ATOM     20  C   UNL     1       7.790   5.223  14.275  0.00  0.00    +0.000 A 
ATOM     21  C   UNL     1       8.010   5.095  12.899  0.00  0.00    +0.000 A 
ATOM     22  C   UNL     1       7.084   4.434  12.092  0.00  0.00    +0.000 A 
ATOM     23  C   UNL     1       5.945   3.858  12.656  0.00  0.00    +0.000 A 
ATOM     24  C   UNL     1       5.771   3.952  14.047  0.00  0.00    +0.000 A 
BRANCH  23  25
ATOM     25  C   UNL     1       4.930   3.139  11.795  0.00  0.00    +0.000 C 
BRANCH  25  26
ATOM     26  C   UNL     1       3.898   4.093  11.189  0.00  0.00    +0.000 C 
BRANCH  26  27
ATOM     27  C   UNL     1       3.195   3.478  10.006  0.00  0.00    +0.000 C 
ATOM     28  O   UNL     1       3.029   4.014   8.922  0.00  0.00    +0.000 OA
BRANCH  27  29
ATOM     29  O   UNL     1       2.754   2.224  10.266  0.00  0.00    +0.000 OA
ATOM     30  H   UNL     1       2.555   2.059  11.206  0.00  0.00    +0.000 HD
ENDBRANCH  27  29
ENDBRANCH  26  27
ENDBRANCH  25  26
ENDBRANCH  23  25
ENDBRANCH  17  19
ENDBRANCH   7  12
BRANCH   7  31
ATOM     31  C   UNL     1       2.178   4.139  17.404  0.00  0.00    +0.000 C 
ATOM     32  C   UNL     1       2.673   2.917  16.586  0.00  0.00    +0.000 C 
ATOM     33  C   UNL     1       0.757   3.770  17.868  0.00  0.00    +0.000 C 
ENDBRANCH   7  31
BRANCH   9  34
ATOM     34  N   UNL     1       2.673   3.125  22.111  0.00  0.00    +0.000 N 
ATOM     35  H   UNL     1       3.592   2.864  22.465  0.00  0.00    +0.000 HD
ATOM     36  H   UNL     1       2.024   2.346  22.029  0.00  0.00    +0.000 HD
ENDBRANCH   9  34
BRANCH   8  37
ATOM     37  C   UNL     1       3.851   2.423  19.639  0.00  0.00    +0.000 C 
ATOM     38  N   UNL     1       4.445   1.430  19.562  0.00  0.00    +0.000 NA
ENDBRANCH   8  37
TORSDOF 9
ENDMDL
MODEL 3
REMARK VINA RESULT:      -7.0      5.743      8.862
REMARK  Name = 
REMARK  12 active torsions:
REMARK  status: ('A' for Active; 'I' for Inactive)
REMARK    1  A    between atoms: C_1  and  C_2
REMARK    2  A    between atoms: C_7  and  C_8
REMARK    3  A    between atoms: C_7  and  C_26
REMARK    4  A    between atoms: C_13  and  C_14
REMARK    5  A    between atoms: C_18  and  C_19
REMARK    6  A    between atoms: C_19  and  C_20
REMARK    7  A    between atoms: C_20  and  C_21
REMARK    8  A    between atoms: C_21  and  O_23
REMARK    9  A    between atoms: C_26  and  C_27
REMARK   10  A    between atoms: C_26  and  C_28
REMARK   11  A    between atoms: C_29  and  C_30
REMARK   12  A    between atoms: C_32  and  N_33
REMARK                            x       y       z     vdW  Elec       q    Type
REMARK                         _______ _______ _______ _____ _____    ______ ____
ROOT
ATOM      1  C   UNL     1      -0.390  13.859  22.696  0.00  0.00    +0.000 C 
ATOM      2  C   UNL     1      -1.623  13.637  21.910  0.00  0.00    +0.000 A 
ATOM      3  N   UNL     1      -2.815  14.183  22.357  0.00  0.00    +0.000 N 
ATOM      4  N   UNL     1      -3.861  13.913  21.578  0.00  0.00    +0.000 NA
ATOM      5  C   UNL     1      -3.322  13.167  20.632  0.00  0.00    +0.000 A 
ATOM      6  C   UNL     1      -1.941  12.963  20.735  0.00  0.00    +0.000 A 
ATOM      7  C   UNL     1      -1.190  12.181  19.646  0.00  0.00    +0.000 C 
ATOM      8  C   UNL     1      -2.255  11.523  18.696  0.00  0.00    +0.000 C 
ATOM      9  C   UNL     1      -3.586  11.793  18.760  0.00  0.00    +0.000 C 
ATOM     10  O   UNL     1      -4.130  12.688  19.666  0.00  0.00    +0.000 OA
ATOM     11  H   UNL     1      -2.967  14.749  23.191  0.00  0.00    +0.000 HD
ENDROOT
BRANCH   7  12
ATOM     12  C   UNL     1      -0.436  11.060  20.432  0.00  0.00    +0.000 A 
ATOM     13  C   UNL     1      -0.732  10.775  21.777  0.00  0.00    +0.000 A 
ATOM     14  C   UNL     1      -0.189   9.648  22.399  0.00  0.00    +0.000 A 
ATOM     15  F   UNL     1      -0.483   9.407  23.684  0.00  0.00    +0.000 F 
ATOM     16  C   UNL     1       0.627   8.753  21.713  0.00  0.00    +0.000 A 
ATOM     17  C   UNL     1       0.991   9.010  20.391  0.00  0.00    +0.000 A 
ATOM     18  C   UNL     1       0.498  10.204  19.812  0.00  0.00    +0.000 A 
BRANCH  17  19
ATOM     19  C   UNL     1       1.857   8.101  19.599  0.00  0.00    +0.000 A 
ATOM     20  C   UNL     1       2.352   8.453  18.336  0.00  0.00    +0.000 A 
ATOM     21  C   UNL     1       3.089   7.545  17.568  0.00  0.00    +0.000 A 
ATOM     22  C   UNL     1       3.337   6.256  18.040  0.00  0.00    +0.000 A 
ATOM     23  C   UNL     1       2.885   5.869  19.302  0.00  0.00    +0.000 A 
ATOM     24  C   UNL     1       2.192   6.814  20.078  0.00  0.00    +0.000 A 
BRANCH  23  25
ATOM     25  C   UNL     1       3.143   4.475  19.827  0.00  0.00    +0.000 C 
BRANCH  25  26
ATOM     26  C   UNL     1       3.954   3.623  18.849  0.00  0.00    +0.000 C 
BRANCH  26  27
ATOM     27  C   UNL     1       3.195   2.395  18.414  0.00  0.00    +0.000 C 
ATOM     28  O   UNL     1       3.647   1.263  18.362  0.00  0.00    +0.000 OA
BRANCH  27  29
ATOM     29  O   UNL     1       1.913   2.676  18.080  0.00  0.00    +0.000 OA
ATOM     30  H   UNL     1       1.719   2.579  17.130  0.00  0.00    +0.000 HD
ENDBRANCH  27  29
ENDBRANCH  26  27
ENDBRANCH  25  26
ENDBRANCH  23  25
ENDBRANCH  17  19
ENDBRANCH   7  12
BRANCH   7  31
ATOM     31  C   UNL     1      -0.224  13.181  18.829  0.00  0.00    +0.000 C 
ATOM     32  C   UNL     1      -0.617  14.681  18.812  0.00  0.00    +0.000 C 
ATOM     33  C   UNL     1       1.249  13.151  19.275  0.00  0.00    +0.000 C 
ENDBRANCH   7  31
BRANCH   9  34
ATOM     34  N   UNL     1      -4.561  11.211  17.973  0.00  0.00    +0.000 N 
ATOM     35  H   UNL     1      -4.366  11.135  16.976  0.00  0.00    +0.000 HD
ATOM     36  H   UNL     1      -5.493  11.560  18.187  0.00  0.00    +0.000 HD
ENDBRANCH   9  34
BRANCH   8  37
ATOM     37  C   UNL     1      -1.826  10.531  17.760  0.00  0.00    +0.000 C 
ATOM     38  N   UNL     1      -1.512   9.682  17.035  0.00  0.00    +0.000 NA
ENDBRANCH   8  37
TORSDOF 9
ENDMDL
MODEL 4
REMARK VINA RESULT:      -6.8      5.861      9.165
REMARK  Name = 
REMARK  12 active torsions:
REMARK  status: ('A' for Active; 'I' for Inactive)
REMARK    1  A    between atoms: C_1  and  C_2
REMARK    2  A    between atoms: C_7  and  C_8
REMARK    3  A    between atoms: C_7  and  C_26
REMARK    4  A    between atoms: C_13  and  C_14
REMARK    5  A    between atoms: C_18  and  C_19
REMARK    6  A    between atoms: C_19  and  C_20
REMARK    7  A    between atoms: C_20  and  C_21
REMARK    8  A    between atoms: C_21  and  O_23
REMARK    9  A    between atoms: C_26  and  C_27
REMARK   10  A    between atoms: C_26  and  C_28
REMARK   11  A    between atoms: C_29  and  C_30
REMARK   12  A    between atoms: C_32  and  N_33
REMARK                            x       y       z     vdW  Elec       q    Type
REMARK                         _______ _______ _______ _____ _____    ______ ____
ROOT
ATOM      1  C   UNL     1       1.566  13.921  21.865  0.00  0.00    +0.000 C 
ATOM      2  C   UNL     1       0.123  14.049  21.567  0.00  0.00    +0.000 A 
ATOM      3  N   UNL     1      -0.620  15.011  22.232  0.00  0.00    +0.000 N 
ATOM      4  N   UNL     1      -1.908  15.032  21.893  0.00  0.00    +0.000 NA
ATOM      5  C   UNL     1      -1.982  14.051  21.013  0.00  0.00    +0.000 A 
ATOM      6  C   UNL     1      -0.775  13.403  20.724  0.00  0.00    +0.000 A 
ATOM      7  C   UNL     1      -0.724  12.301  19.653  0.00  0.00    +0.000 C 
ATOM      8  C   UNL     1      -2.199  11.948  19.246  0.00  0.00    +0.000 C 
ATOM      9  C   UNL     1      -3.283  12.659  19.659  0.00  0.00    +0.000 C 
ATOM     10  O   UNL     1      -3.185  13.776  20.472  0.00  0.00    +0.000 OA
ATOM     11  H   UNL     1      -0.293  15.679  22.928  0.00  0.00    +0.000 HD
ENDROOT
BRANCH   7  12
ATOM     12  C   UNL     1      -0.084  11.081  20.390  0.00  0.00    +0.000 A 
ATOM     13  C   UNL     1      -0.461  10.729  21.699  0.00  0.00    +0.000 A 
ATOM     14  C   UNL     1      -0.024   9.528  22.263  0.00  0.00    +0.000 A 
ATOM     15  F   UNL     1      -0.393   9.224  23.515  0.00  0.00    +0.000 F 
ATOM     16  C   UNL     1       0.761   8.626  21.552  0.00  0.00    +0.000 A 
ATOM     17  C   UNL     1       1.203   8.944  20.267  0.00  0.00    +0.000 A 
ATOM     18  C   UNL     1       0.819  10.205  19.752  0.00  0.00    +0.000 A 
BRANCH  17  19
ATOM     19  C   UNL     1       2.042   8.031  19.451  0.00  0.00    +0.000 A 
ATOM     20  C   UNL     1       2.482   8.370  18.164  0.00  0.00    +0.000 A 
ATOM     21  C   UNL     1       3.193   7.458  17.378  0.00  0.00    +0.000 A 
ATOM     22  C   UNL     1       3.470   6.176  17.854  0.00  0.00    +0.000 A 
ATOM     23  C   UNL     1       3.073   5.803  19.138  0.00  0.00    +0.000 A 
ATOM     24  C   UNL     1       2.406   6.752  19.931  0.00  0.00    +0.000 A 
BRANCH  23  25
ATOM     25  C   UNL     1       3.362   4.417  19.669  0.00  0.00    +0.000 C 
BRANCH  25  26
ATOM     26  C   UNL     1       2.094   3.576  19.833  0.00  0.00    +0.000 C 
BRANCH  26  27
ATOM     27  C   UNL     1       1.822   3.250  21.280  0.00  0.00    +0.000 C 
ATOM     28  O   UNL     1       2.547   3.535  22.219  0.00  0.00    +0.000 OA
BRANCH  27  29
ATOM     29  O   UNL     1       0.650   2.591  21.446  0.00  0.00    +0.000 OA
ATOM     30  H   UNL     1      -0.132   3.172  21.470  0.00  0.00    +0.000 HD
ENDBRANCH  27  29
ENDBRANCH  26  27
ENDBRANCH  25  26
ENDBRANCH  23  25
ENDBRANCH  17  19
ENDBRANCH   7  12
BRANCH   7  31
ATOM     31  C   UNL     1       0.119  12.822  18.381  0.00  0.00    +0.000 C 
ATOM     32  C   UNL     1      -0.053  14.312  17.985  0.00  0.00    +0.000 C 
ATOM     33  C   UNL     1       1.639  12.602  18.489  0.00  0.00    +0.000 C 
ENDBRANCH   7  31
BRANCH   9  34
ATOM     34  N   UNL     1      -4.598  12.363  19.359  0.00  0.00    +0.000 N 
ATOM     35  H   UNL     1      -4.937  12.643  18.440  0.00  0.00    +0.000 HD
ATOM     36  H   UNL     1      -5.232  12.591  20.121  0.00  0.00    +0.000 HD
ENDBRANCH   9  34
BRANCH   8  37
ATOM     37  C   UNL     1      -2.438  10.776  18.462  0.00  0.00    +0.000 C 
ATOM     38  N   UNL     1      -2.676   9.860  17.792  0.00  0.00    +0.000 NA
ENDBRANCH   8  37
TORSDOF 9
ENDMDL
MODEL 5
REMARK VINA RESULT:      -6.8      6.490      9.793
REMARK  Name = 
REMARK  12 active torsions:
REMARK  status: ('A' for Active; 'I' for Inactive)
REMARK    1  A    between atoms: C_1  and  C_2
REMARK    2  A    between atoms: C_7  and  C_8
REMARK    3  A    between atoms: C_7  and  C_26
REMARK    4  A    between atoms: C_13  and  C_14
REMARK    5  A    between atoms: C_18  and  C_19
REMARK    6  A    between atoms: C_19  and  C_20
REMARK    7  A    between atoms: C_20  and  C_21
REMARK    8  A    between atoms: C_21  and  O_23
REMARK    9  A    between atoms: C_26  and  C_27
REMARK   10  A    between atoms: C_26  and  C_28
REMARK   11  A    between atoms: C_29  and  C_30
REMARK   12  A    between atoms: C_32  and  N_33
REMARK                            x       y       z     vdW  Elec       q    Type
REMARK                         _______ _______ _______ _____ _____    ______ ____
ROOT
ATOM      1  C   UNL     1       3.225  13.776  21.278  0.00  0.00    +0.000 C 
ATOM      2  C   UNL     1       2.063  14.615  21.647  0.00  0.00    +0.000 A 
ATOM      3  N   UNL     1       2.266  15.741  22.427  0.00  0.00    +0.000 N 
ATOM      4  N   UNL     1       1.152  16.416  22.705  0.00  0.00    +0.000 NA
ATOM      5  C   UNL     1       0.227  15.691  22.105  0.00  0.00    +0.000 A 
ATOM      6  C   UNL     1       0.694  14.574  21.401  0.00  0.00    +0.000 A 
ATOM      7  C   UNL     1      -0.280  13.702  20.594  0.00  0.00    +0.000 C 
ATOM      8  C   UNL     1      -1.744  14.149  20.950  0.00  0.00    +0.000 C 
ATOM      9  C   UNL     1      -2.032  15.248  21.698  0.00  0.00    +0.000 C 
ATOM     10  O   UNL     1      -1.056  16.088  22.209  0.00  0.00    +0.000 OA
ATOM     11  H   UNL     1       3.148  16.092  22.797  0.00  0.00    +0.000 HD
ENDROOT
BRANCH   7  12
ATOM     12  C   UNL     1      -0.036  12.256  21.133  0.00  0.00    +0.000 A 
ATOM     13  C   UNL     1      -0.657  11.790  22.305  0.00  0.00    +0.000 A 
ATOM     14  C   UNL     1      -0.581  10.441  22.660  0.00  0.00    +0.000 A 
ATOM     15  F   UNL     1      -1.175  10.029  23.788  0.00  0.00    +0.000 F 
ATOM     16  C   UNL     1       0.073   9.508  21.861  0.00  0.00    +0.000 A 
ATOM     17  C   UNL     1       0.745   9.921  20.711  0.00  0.00    +0.000 A 
ATOM     18  C   UNL     1       0.726  11.306  20.420  0.00  0.00    +0.000 A 
BRANCH  17  19
ATOM     19  C   UNL     1       1.464   8.982  19.811  0.00  0.00    +0.000 A 
ATOM     20  C   UNL     1       1.695   9.272  18.460  0.00  0.00    +0.000 A 
ATOM     21  C   UNL     1       2.291   8.333  17.610  0.00  0.00    +0.000 A 
ATOM     22  C   UNL     1       2.657   7.076  18.089  0.00  0.00    +0.000 A 
ATOM     23  C   UNL     1       2.467   6.752  19.433  0.00  0.00    +0.000 A 
ATOM     24  C   UNL     1       1.916   7.728  20.280  0.00  0.00    +0.000 A 
BRANCH  23  25
ATOM     25  C   UNL     1       2.856   5.392  19.967  0.00  0.00    +0.000 C 
BRANCH  25  26
ATOM     26  C   UNL     1       2.889   4.322  18.874  0.00  0.00    +0.000 C 
BRANCH  26  27
ATOM     27  C   UNL     1       3.963   3.294  19.130  0.00  0.00    +0.000 C 
ATOM     28  O   UNL     1       3.805   2.085  19.112  0.00  0.00    +0.000 OA
BRANCH  27  29
ATOM     29  O   UNL     1       5.166   3.862  19.385  0.00  0.00    +0.000 OA
ATOM     30  H   UNL     1       5.914   3.238  19.353  0.00  0.00    +0.000 HD
ENDBRANCH  27  29
ENDBRANCH  26  27
ENDBRANCH  25  26
ENDBRANCH  23  25
ENDBRANCH  17  19
ENDBRANCH   7  12
BRANCH   7  31
ATOM     31  C   UNL     1       0.012  13.880  19.018  0.00  0.00    +0.000 C 
ATOM     32  C   UNL     1      -0.787  12.972  18.047  0.00  0.00    +0.000 C 
ATOM     33  C   UNL     1      -0.184  15.313  18.491  0.00  0.00    +0.000 C 
ENDBRANCH   7  31
BRANCH   9  34
ATOM     34  N   UNL     1      -3.298  15.657  22.068  0.00  0.00    +0.000 N 
ATOM     35  H   UNL     1      -3.711  16.423  21.538  0.00  0.00    +0.000 HD
ATOM     36  H   UNL     1      -3.397  15.752  23.077  0.00  0.00    +0.000 HD
ENDBRANCH   9  34
BRANCH   8  37
ATOM     37  C   UNL     1      -2.838  13.327  20.536  0.00  0.00    +0.000 C 
ATOM     38  N   UNL     1      -3.711  12.676  20.138  0.00  0.00    +0.000 NA
ENDBRANCH   8  37
TORSDOF 9
ENDMDL
MODEL 6
REMARK VINA RESULT:      -6.7     10.870     13.297
REMARK  Name = 
REMARK  12 active torsions:
REMARK  status: ('A' for Active; 'I' for Inactive)
REMARK    1  A    between atoms: C_1  and  C_2
REMARK    2  A    between atoms: C_7  and  C_8
REMARK    3  A    between atoms: C_7  and  C_26
REMARK    4  A    between atoms: C_13  and  C_14
REMARK    5  A    between atoms: C_18  and  C_19
REMARK    6  A    between atoms: C_19  and  C_20
REMARK    7  A    between atoms: C_20  and  C_21
REMARK    8  A    between atoms: C_21  and  O_23
REMARK    9  A    between atoms: C_26  and  C_27
REMARK   10  A    between atoms: C_26  and  C_28
REMARK   11  A    between atoms: C_29  and  C_30
REMARK   12  A    between atoms: C_32  and  N_33
REMARK                            x       y       z     vdW  Elec       q    Type
REMARK                         _______ _______ _______ _____ _____    ______ ____
ROOT
ATOM      1  C   UNL     1      -1.518  11.222  23.264  0.00  0.00    +0.000 C 
ATOM      2  C   UNL     1      -2.623  12.202  23.335  0.00  0.00    +0.000 A 
ATOM      3  N   UNL     1      -3.848  11.803  23.841  0.00  0.00    +0.000 N 
ATOM      4  N   UNL     1      -4.771  12.763  23.850  0.00  0.00    +0.000 NA
ATOM      5  C   UNL     1      -4.121  13.782  23.320  0.00  0.00    +0.000 A 
ATOM      6  C   UNL     1      -2.781  13.543  22.995  0.00  0.00    +0.000 A 
ATOM      7  C   UNL     1      -1.901  14.678  22.449  0.00  0.00    +0.000 C 
ATOM      8  C   UNL     1      -2.830  15.903  22.126  0.00  0.00    +0.000 C 
ATOM      9  C   UNL     1      -4.145  15.959  22.471  0.00  0.00    +0.000 C 
ATOM     10  O   UNL     1      -4.788  14.941  23.155  0.00  0.00    +0.000 OA
ATOM     11  H   UNL     1      -4.106  10.882  24.195  0.00  0.00    +0.000 HD
ENDROOT
BRANCH   7  12
ATOM     12  C   UNL     1      -1.319  14.105  21.117  0.00  0.00    +0.000 A 
ATOM     13  C   UNL     1       0.056  14.163  20.826  0.00  0.00    +0.000 A 
ATOM     14  C   UNL     1       0.578  13.475  19.729  0.00  0.00    +0.000 A 
ATOM     15  F   UNL     1       1.891  13.558  19.471  0.00  0.00    +0.000 F 
ATOM     16  C   UNL     1      -0.222  12.684  18.910  0.00  0.00    +0.000 A 
ATOM     17  C   UNL     1      -1.600  12.626  19.124  0.00  0.00    +0.000 A 
ATOM     18  C   UNL     1      -2.115  13.401  20.189  0.00  0.00    +0.000 A 
BRANCH  17  19
ATOM     19  C   UNL     1      -2.514  11.803  18.291  0.00  0.00    +0.000 A 
ATOM     20  C   UNL     1      -2.070  11.109  17.157  0.00  0.00    +0.000 A 
ATOM     21  C   UNL     1      -2.966  10.417  16.335  0.00  0.00    +0.000 A 
ATOM     22  C   UNL     1      -4.331  10.415  16.619  0.00  0.00    +0.000 A 
ATOM     23  C   UNL     1      -4.815  11.073  17.750  0.00  0.00    +0.000 A 
ATOM     24  C   UNL     1      -3.892  11.717  18.591  0.00  0.00    +0.000 A 
BRANCH  23  25
ATOM     25  C   UNL     1      -6.293  11.082  18.071  0.00  0.00    +0.000 C 
BRANCH  25  26
ATOM     26  C   UNL     1      -6.564  11.193  19.573  0.00  0.00    +0.000 C 
BRANCH  26  27
ATOM     27  C   UNL     1      -7.279   9.975  20.103  0.00  0.00    +0.000 C 
ATOM     28  O   UNL     1      -7.541   9.762  21.276  0.00  0.00    +0.000 OA
BRANCH  27  29
ATOM     29  O   UNL     1      -7.621   9.112  19.118  0.00  0.00    +0.000 OA
ATOM     30  H   UNL     1      -7.970   9.542  18.316  0.00  0.00    +0.000 HD
ENDBRANCH  27  29
ENDBRANCH  26  27
ENDBRANCH  25  26
ENDBRANCH  23  25
ENDBRANCH  17  19
ENDBRANCH   7  12
BRANCH   7  31
ATOM     31  C   UNL     1      -0.784  15.072  23.544  0.00  0.00    +0.000 C 
ATOM     32  C   UNL     1       0.041  16.358  23.277  0.00  0.00    +0.000 C 
ATOM     33  C   UNL     1      -1.322  15.224  24.978  0.00  0.00    +0.000 C 
ENDBRANCH   7  31
BRANCH   9  34
ATOM     34  N   UNL     1      -5.008  16.996  22.175  0.00  0.00    +0.000 N 
ATOM     35  H   UNL     1      -4.610  17.810  21.709  0.00  0.00    +0.000 HD
ATOM     36  H   UNL     1      -5.623  17.224  22.952  0.00  0.00    +0.000 HD
ENDBRANCH   9  34
BRANCH   8  37
ATOM     37  C   UNL     1      -2.300  16.991  21.365  0.00  0.00    +0.000 C 
ATOM     38  N   UNL     1      -1.813  17.866  20.780  0.00  0.00    +0.000 NA
ENDBRANCH   8  37
TORSDOF 9
ENDMDL
MODEL 7
REMARK VINA RESULT:      -6.7      6.143      9.143
REMARK  Name = 
REMARK  12 active torsions:
REMARK  status: ('A' for Active; 'I' for Inactive)
REMARK    1  A    between atoms: C_1  and  C_2
REMARK    2  A    between atoms: C_7  and  C_8
REMARK    3  A    between atoms: C_7  and  C_26
REMARK    4  A    between atoms: C_13  and  C_14
REMARK    5  A    between atoms: C_18  and  C_19
REMARK    6  A    between atoms: C_19  and  C_20
REMARK    7  A    between atoms: C_20  and  C_21
REMARK    8  A    between atoms: C_21  and  O_23
REMARK    9  A    between atoms: C_26  and  C_27
REMARK   10  A    between atoms: C_26  and  C_28
REMARK   11  A    between atoms: C_29  and  C_30
REMARK   12  A    between atoms: C_32  and  N_33
REMARK                            x       y       z     vdW  Elec       q    Type
REMARK                         _______ _______ _______ _____ _____    ______ ____
ROOT
ATOM      1  C   UNL     1       2.289  11.580  17.973  0.00  0.00    +0.000 C 
ATOM      2  C   UNL     1       1.597  12.800  18.443  0.00  0.00    +0.000 A 
ATOM      3  N   UNL     1       2.206  14.031  18.268  0.00  0.00    +0.000 N 
ATOM      4  N   UNL     1       1.499  15.058  18.736  0.00  0.00    +0.000 NA
ATOM      5  C   UNL     1       0.433  14.461  19.234  0.00  0.00    +0.000 A 
ATOM      6  C   UNL     1       0.388  13.071  19.076  0.00  0.00    +0.000 A 
ATOM      7  C   UNL     1      -0.844  12.277  19.541  0.00  0.00    +0.000 C 
ATOM      8  C   UNL     1      -1.761  13.244  20.373  0.00  0.00    +0.000 C 
ATOM      9  C   UNL     1      -1.549  14.584  20.467  0.00  0.00    +0.000 C 
ATOM     10  O   UNL     1      -0.504  15.228  19.825  0.00  0.00    +0.000 OA
ATOM     11  H   UNL     1       3.108  14.224  17.834  0.00  0.00    +0.000 HD
ENDROOT
BRANCH   7  12
ATOM     12  C   UNL     1      -0.256  11.180  20.487  0.00  0.00    +0.000 A 
ATOM     13  C   UNL     1      -0.593  11.124  21.851  0.00  0.00    +0.000 A 
ATOM     14  C   UNL     1      -0.216  10.028  22.630  0.00  0.00    +0.000 A 
ATOM     15  F   UNL     1      -0.543  10.007  23.930  0.00  0.00    +0.000 F 
ATOM     16  C   UNL     1       0.467   8.943  22.088  0.00  0.00    +0.000 A 
ATOM     17  C   UNL     1       0.867   8.965  20.752  0.00  0.00    +0.000 A 
ATOM     18  C   UNL     1       0.549  10.125  20.007  0.00  0.00    +0.000 A 
BRANCH  17  19
ATOM     19  C   UNL     1       1.599   7.844  20.108  0.00  0.00    +0.000 A 
ATOM     20  C   UNL     1       2.243   7.986  18.871  0.00  0.00    +0.000 A 
ATOM     21  C   UNL     1       2.846   6.893  18.240  0.00  0.00    +0.000 A 
ATOM     22  C   UNL     1       2.807   5.627  18.823  0.00  0.00    +0.000 A 
ATOM     23  C   UNL     1       2.197   5.444  20.065  0.00  0.00    +0.000 A 
ATOM     24  C   UNL     1       1.643   6.565  20.706  0.00  0.00    +0.000 A 
BRANCH  23  25
ATOM     25  C   UNL     1       2.143   4.078  20.711  0.00  0.00    +0.000 C 
BRANCH  25  26
ATOM     26  C   UNL     1       0.960   3.243  20.215  0.00  0.00    +0.000 C 
BRANCH  26  27
ATOM     27  C   UNL     1       1.361   2.308  19.102  0.00  0.00    +0.000 C 
ATOM     28  O   UNL     1       2.504   1.973  18.836  0.00  0.00    +0.000 OA
BRANCH  27  29
ATOM     29  O   UNL     1       0.294   1.854  18.404  0.00  0.00    +0.000 OA
ATOM     30  H   UNL     1      -0.486   2.437  18.444  0.00  0.00    +0.000 HD
ENDBRANCH  27  29
ENDBRANCH  26  27
ENDBRANCH  25  26
ENDBRANCH  23  25
ENDBRANCH  17  19
ENDBRANCH   7  12
BRANCH   7  31
ATOM     31  C   UNL     1      -1.628  11.695  18.258  0.00  0.00    +0.000 C 
ATOM     32  C   UNL     1      -1.267  10.256  17.806  0.00  0.00    +0.000 C 
ATOM     33  C   UNL     1      -3.162  11.707  18.389  0.00  0.00    +0.000 C 
ENDBRANCH   7  31
BRANCH   9  34
ATOM     34  N   UNL     1      -2.305  15.465  21.216  0.00  0.00    +0.000 N 
ATOM     35  H   UNL     1      -2.138  16.459  21.068  0.00  0.00    +0.000 HD
ATOM     36  H   UNL     1      -2.358  15.196  22.196  0.00  0.00    +0.000 HD
ENDBRANCH   9  34
BRANCH   8  37
ATOM     37  C   UNL     1      -2.836  12.690  21.137  0.00  0.00    +0.000 C 
ATOM     38  N   UNL     1      -3.689  12.181  21.735  0.00  0.00    +0.000 NA
ENDBRANCH   8  37
TORSDOF 9
ENDMDL
MODEL 8
REMARK VINA RESULT:      -6.7      5.640      8.613
REMARK  Name = 
REMARK  12 active torsions:
REMARK  status: ('A' for Active; 'I' for Inactive)
REMARK    1  A    between atoms: C_1  and  C_2
REMARK    2  A    between atoms: C_7  and  C_8
REMARK    3  A    between atoms: C_7  and  C_26
REMARK    4  A    between atoms: C_13  and  C_14
REMARK    5  A    between atoms: C_18  and  C_19
REMARK    6  A    between atoms: C_19  and  C_20
REMARK    7  A    between atoms: C_20  and  C_21
REMARK    8  A    between atoms: C_21  and  O_23
REMARK    9  A    between atoms: C_26  and  C_27
REMARK   10  A    between atoms: C_26  and  C_28
REMARK   11  A    between atoms: C_29  and  C_30
REMARK   12  A    between atoms: C_32  and  N_33
REMARK                            x       y       z     vdW  Elec       q    Type
REMARK                         _______ _______ _______ _____ _____    ______ ____
ROOT
ATOM      1  C   UNL     1      -0.441  13.727  22.678  0.00  0.00    +0.000 C 
ATOM      2  C   UNL     1      -1.576  13.468  21.766  0.00  0.00    +0.000 A 
ATOM      3  N   UNL     1      -2.809  14.032  22.048  0.00  0.00    +0.000 N 
ATOM      4  N   UNL     1      -3.760  13.726  21.167  0.00  0.00    +0.000 NA
ATOM      5  C   UNL     1      -3.119  12.939  20.324  0.00  0.00    +0.000 A 
ATOM      6  C   UNL     1      -1.759  12.741  20.594  0.00  0.00    +0.000 A 
ATOM      7  C   UNL     1      -0.891  11.911  19.635  0.00  0.00    +0.000 C 
ATOM      8  C   UNL     1      -1.841  11.210  18.600  0.00  0.00    +0.000 C 
ATOM      9  C   UNL     1      -3.170  11.481  18.497  0.00  0.00    +0.000 C 
ATOM     10  O   UNL     1      -3.811  12.415  19.294  0.00  0.00    +0.000 OA
ATOM     11  H   UNL     1      -3.054  14.635  22.832  0.00  0.00    +0.000 HD
ENDROOT
BRANCH   7  12
ATOM     12  C   UNL     1      -0.236  10.829  20.553  0.00  0.00    +0.000 A 
ATOM     13  C   UNL     1      -0.515  10.761  21.930  0.00  0.00    +0.000 A 
ATOM     14  C   UNL     1      -0.078   9.675  22.690  0.00  0.00    +0.000 A 
ATOM     15  F   UNL     1      -0.351   9.643  24.001  0.00  0.00    +0.000 F 
ATOM     16  C   UNL     1       0.612   8.609  22.117  0.00  0.00    +0.000 A 
ATOM     17  C   UNL     1       0.955   8.644  20.766  0.00  0.00    +0.000 A 
ATOM     18  C   UNL     1       0.576   9.797  20.038  0.00  0.00    +0.000 A 
BRANCH  17  19
ATOM     19  C   UNL     1       1.690   7.544  20.089  0.00  0.00    +0.000 A 
ATOM     20  C   UNL     1       1.716   6.239  20.599  0.00  0.00    +0.000 A 
ATOM     21  C   UNL     1       2.490   5.242  19.996  0.00  0.00    +0.000 A 
ATOM     22  C   UNL     1       3.268   5.529  18.875  0.00  0.00    +0.000 A 
ATOM     23  C   UNL     1       3.254   6.809  18.319  0.00  0.00    +0.000 A 
ATOM     24  C   UNL     1       2.429   7.782  18.909  0.00  0.00    +0.000 A 
BRANCH  23  25
ATOM     25  C   UNL     1       4.094   7.138  17.105  0.00  0.00    +0.000 C 
BRANCH  25  26
ATOM     26  C   UNL     1       5.570   6.782  17.301  0.00  0.00    +0.000 C 
BRANCH  26  27
ATOM     27  C   UNL     1       6.070   5.859  16.219  0.00  0.00    +0.000 C 
ATOM     28  O   UNL     1       7.168   5.917  15.690  0.00  0.00    +0.000 OA
BRANCH  27  29
ATOM     29  O   UNL     1       5.155   4.920  15.882  0.00  0.00    +0.000 OA
ATOM     30  H   UNL     1       5.529   4.030  15.746  0.00  0.00    +0.000 HD
ENDBRANCH  27  29
ENDBRANCH  26  27
ENDBRANCH  25  26
ENDBRANCH  23  25
ENDBRANCH  17  19
ENDBRANCH   7  12
BRANCH   7  31
ATOM     31  C   UNL     1       0.167  12.875  18.890  0.00  0.00    +0.000 C 
ATOM     32  C   UNL     1      -0.303  14.316  18.565  0.00  0.00    +0.000 C 
ATOM     33  C   UNL     1       1.508  13.040  19.628  0.00  0.00    +0.000 C 
ENDBRANCH   7  31
BRANCH   9  34
ATOM     34  N   UNL     1      -4.051  10.863  17.631  0.00  0.00    +0.000 N 
ATOM     35  H   UNL     1      -4.509  10.016  17.963  0.00  0.00    +0.000 HD
ATOM     36  H   UNL     1      -3.679  10.788  16.687  0.00  0.00    +0.000 HD
ENDBRANCH   9  34
BRANCH   8  37
ATOM     37  C   UNL     1      -1.312  10.177  17.764  0.00  0.00    +0.000 C 
ATOM     38  N   UNL     1      -0.922   9.297  17.117  0.00  0.00    +0.000 NA
ENDBRANCH   8  37
TORSDOF 9
ENDMDL
MODEL 9
REMARK VINA RESULT:      -6.6      5.906      9.287
REMARK  Name = 
REMARK  12 active torsions:
REMARK  status: ('A' for Active; 'I' for Inactive)
REMARK    1  A    between atoms: C_1  and  C_2
REMARK    2  A    between atoms: C_7  and  C_8
REMARK    3  A    between atoms: C_7  and  C_26
REMARK    4  A    between atoms: C_13  and  C_14
REMARK    5  A    between atoms: C_18  and  C_19
REMARK    6  A    between atoms: C_19  and  C_20
REMARK    7  A    between atoms: C_20  and  C_21
REMARK    8  A    between atoms: C_21  and  O_23
REMARK    9  A    between atoms: C_26  and  C_27
REMARK   10  A    between atoms: C_26  and  C_28
REMARK   11  A    between atoms: C_29  and  C_30
REMARK   12  A    between atoms: C_32  and  N_33
REMARK                            x       y       z     vdW  Elec       q    Type
REMARK                         _______ _______ _______ _____ _____    ______ ____
ROOT
ATOM      1  C   UNL     1      -0.927  13.780  23.282  0.00  0.00    +0.000 C 
ATOM      2  C   UNL     1      -2.095  13.528  22.409  0.00  0.00    +0.000 A 
ATOM      3  N   UNL     1      -3.349  13.944  22.822  0.00  0.00    +0.000 N 
ATOM      4  N   UNL     1      -4.326  13.658  21.964  0.00  0.00    +0.000 NA
ATOM      5  C   UNL     1      -3.678  13.032  21.000  0.00  0.00    +0.000 A 
ATOM      6  C   UNL     1      -2.292  12.926  21.170  0.00  0.00    +0.000 A 
ATOM      7  C   UNL     1      -1.423  12.291  20.073  0.00  0.00    +0.000 C 
ATOM      8  C   UNL     1      -2.378  11.632  19.014  0.00  0.00    +0.000 C 
ATOM      9  C   UNL     1      -3.728  11.794  19.018  0.00  0.00    +0.000 C 
ATOM     10  O   UNL     1      -4.391  12.571  19.953  0.00  0.00    +0.000 OA
ATOM     11  H   UNL     1      -3.591  14.429  23.685  0.00  0.00    +0.000 HD
ENDROOT
BRANCH   7  12
ATOM     12  C   UNL     1      -0.625  11.173  20.818  0.00  0.00    +0.000 A 
ATOM     13  C   UNL     1      -0.844  10.891  22.178  0.00  0.00    +0.000 A 
ATOM     14  C   UNL     1      -0.266   9.766  22.771  0.00  0.00    +0.000 A 
ATOM     15  F   UNL     1      -0.486   9.529  24.072  0.00  0.00    +0.000 F 
ATOM     16  C   UNL     1       0.509   8.869  22.042  0.00  0.00    +0.000 A 
ATOM     17  C   UNL     1       0.797   9.123  20.701  0.00  0.00    +0.000 A 
ATOM     18  C   UNL     1       0.272  10.315  20.148  0.00  0.00    +0.000 A 
BRANCH  17  19
ATOM     19  C   UNL     1       1.617   8.211  19.863  0.00  0.00    +0.000 A 
ATOM     20  C   UNL     1       2.103   8.589  18.604  0.00  0.00    +0.000 A 
ATOM     21  C   UNL     1       2.794   7.682  17.793  0.00  0.00    +0.000 A 
ATOM     22  C   UNL     1       3.004   6.370  18.216  0.00  0.00    +0.000 A 
ATOM     23  C   UNL     1       2.558   5.957  19.472  0.00  0.00    +0.000 A 
ATOM     24  C   UNL     1       1.913   6.898  20.292  0.00  0.00    +0.000 A 
BRANCH  23  25
ATOM     25  C   UNL     1       2.775   4.537  19.945  0.00  0.00    +0.000 C 
BRANCH  25  26
ATOM     26  C   UNL     1       2.323   3.501  18.912  0.00  0.00    +0.000 C 
BRANCH  26  27
ATOM     27  C   UNL     1       0.973   2.923  19.254  0.00  0.00    +0.000 C 
ATOM     28  O   UNL     1       0.271   2.268  18.501  0.00  0.00    +0.000 OA
BRANCH  27  29
ATOM     29  O   UNL     1       0.602   3.203  20.526  0.00  0.00    +0.000 OA
ATOM     30  H   UNL     1      -0.256   3.659  20.599  0.00  0.00    +0.000 HD
ENDBRANCH  27  29
ENDBRANCH  26  27
ENDBRANCH  25  26
ENDBRANCH  23  25
ENDBRANCH  17  19
ENDBRANCH   7  12
BRANCH   7  31
ATOM     31  C   UNL     1      -0.497  13.423  19.392  0.00  0.00    +0.000 C 
ATOM     32  C   UNL     1      -0.345  13.374  17.850  0.00  0.00    +0.000 C 
ATOM     33  C   UNL     1      -0.918  14.869  19.714  0.00  0.00    +0.000 C 
ENDBRANCH   7  31
BRANCH   9  34
ATOM     34  N   UNL     1      -4.609  11.204  18.132  0.00  0.00    +0.000 N 
ATOM     35  H   UNL     1      -4.758  11.677  17.243  0.00  0.00    +0.000 HD
ATOM     36  H   UNL     1      -5.466  10.895  18.585  0.00  0.00    +0.000 HD
ENDBRANCH   9  34
BRANCH   8  37
ATOM     37  C   UNL     1      -1.821  10.752  18.034  0.00  0.00    +0.000 C 
ATOM     38  N   UNL     1      -1.315  10.077  17.238  0.00  0.00    +0.000 NA
ENDBRANCH   8  37
TORSDOF 9
ENDMDL
