MODEL 1
REMARK VINA RESULT:      -8.3      0.000      0.000
REMARK  Name = 
REMARK  1 active torsions:
REMARK  status: ('A' for Active; 'I' for Inactive)
REMARK    1  A    between atoms: C_4  and  C_5
REMARK                            x       y       z     vdW  Elec       q    Type
REMARK                         _______ _______ _______ _____ _____    ______ ____
ROOT
ATOM      1  N   UNL     1       7.421   5.183  15.057  0.00  0.00    +0.000 N 
ATOM      2  C   UNL     1       6.934   4.987  16.349  0.00  0.00    +0.000 A 
ATOM      3  C   UNL     1       5.737   4.349  16.541  0.00  0.00    +0.000 A 
ATOM      4  C   UNL     1       5.360   4.149  17.847  0.00  0.00    +0.000 A 
ATOM      5  N   UNL     1       6.105   4.560  18.891  0.00  0.00    +0.000 NA
ATOM      6  C   UNL     1       7.252   5.169  18.596  0.00  0.00    +0.000 A 
ATOM      7  N   UNL     1       8.057   5.553  19.651  0.00  0.00    +0.000 N 
ATOM      8  N   UNL     1       7.712   5.386  17.361  0.00  0.00    +0.000 NA
ATOM      9  H   UNL     1       6.741   5.633  14.456  0.00  0.00    +0.000 HD
ATOM     10  H   UNL     1       8.283   5.719  15.130  0.00  0.00    +0.000 HD
ATOM     11  H   UNL     1       7.852   4.975  20.454  0.00  0.00    +0.000 HD
ATOM     12  H   UNL     1       9.019   5.580  19.341  0.00  0.00    +0.000 HD
ENDROOT
BRANCH   4  13
ATOM     13  C   UNL     1       4.126   3.448  18.174  0.00  0.00    +0.000 A 
ATOM     14  C   UNL     1       3.797   2.198  17.668  0.00  0.00    +0.000 A 
ATOM     15  N   UNL     1       2.593   1.822  18.204  0.00  0.00    +0.000 N 
ATOM     16  C   UNL     1       2.130   2.799  19.036  0.00  0.00    +0.000 A 
ATOM     17  N   UNL     1       0.970   2.727  19.713  0.00  0.00    +0.000 NA
ATOM     18  C   UNL     1       0.732   3.827  20.463  0.00  0.00    +0.000 A 
ATOM     19  C   UNL     1       1.557   4.940  20.556  0.00  0.00    +0.000 A 
ATOM     20  C   UNL     1       2.751   4.959  19.833  0.00  0.00    +0.000 A 
ATOM     21  C   UNL     1       3.057   3.838  19.041  0.00  0.00    +0.000 A 
ATOM     22  H   UNL     1       2.101   0.957  18.031  0.00  0.00    +0.000 HD
ENDBRANCH   4  13
TORSDOF 1
ENDMDL
MODEL 2
REMARK VINA RESULT:      -8.0      1.544      1.656
REMARK  Name = 
REMARK  1 active torsions:
REMARK  status: ('A' for Active; 'I' for Inactive)
REMARK    1  A    between atoms: C_4  and  C_5
REMARK                            x       y       z     vdW  Elec       q    Type
REMARK                         _______ _______ _______ _____ _____    ______ ____
ROOT
ATOM      1  N   UNL     1       7.694   8.156  16.966  0.00  0.00    +0.000 N 
ATOM      2  C   UNL     1       7.244   7.106  17.768  0.00  0.00    +0.000 A 
ATOM      3  C   UNL     1       6.045   6.502  17.498  0.00  0.00    +0.000 A 
ATOM      4  C   UNL     1       5.706   5.442  18.304  0.00  0.00    +0.000 A 
ATOM      5  N   UNL     1       6.489   5.016  19.314  0.00  0.00    +0.000 NA
ATOM      6  C   UNL     1       7.635   5.671  19.491  0.00  0.00    +0.000 A 
ATOM      7  N   UNL     1       8.477   5.218  20.488  0.00  0.00    +0.000 N 
ATOM      8  N   UNL     1       8.059   6.694  18.746  0.00  0.00    +0.000 NA
ATOM      9  H   UNL     1       7.001   8.890  16.873  0.00  0.00    +0.000 HD
ATOM     10  H   UNL     1       8.565   8.498  17.366  0.00  0.00    +0.000 HD
ATOM     11  H   UNL     1       8.289   4.241  20.665  0.00  0.00    +0.000 HD
ATOM     12  H   UNL     1       9.430   5.465  20.255  0.00  0.00    +0.000 HD
ENDROOT
BRANCH   4  13
ATOM     13  C   UNL     1       4.473   4.697  18.087  0.00  0.00    +0.000 A 
ATOM     14  C   UNL     1       4.220   3.949  16.946  0.00  0.00    +0.000 A 
ATOM     15  N   UNL     1       2.992   3.357  17.086  0.00  0.00    +0.000 N 
ATOM     16  C   UNL     1       2.440   3.709  18.283  0.00  0.00    +0.000 A 
ATOM     17  N   UNL     1       1.237   3.289  18.712  0.00  0.00    +0.000 NA
ATOM     18  C   UNL     1       0.912   3.785  19.927  0.00  0.00    +0.000 A 
ATOM     19  C   UNL     1       1.694   4.643  20.690  0.00  0.00    +0.000 A 
ATOM     20  C   UNL     1       2.936   5.044  20.195  0.00  0.00    +0.000 A 
ATOM     21  C   UNL     1       3.333   4.553  18.939  0.00  0.00    +0.000 A 
ATOM     22  H   UNL     1       2.541   2.745  16.422  0.00  0.00    +0.000 HD
ENDBRANCH   4  13
TORSDOF 1
ENDMDL
MODEL 3
REMARK VINA RESULT:      -7.7      0.734      1.970
REMARK  Name = 
REMARK  1 active torsions:
REMARK  status: ('A' for Active; 'I' for Inactive)
REMARK    1  A    between atoms: C_4  and  C_5
REMARK                            x       y       z     vdW  Elec       q    Type
REMARK                         _______ _______ _______ _____ _____    ______ ____
ROOT
ATOM      1  N   UNL     1       8.148   6.135  19.252  0.00  0.00    +0.000 N 
ATOM      2  C   UNL     1       7.320   5.509  18.320  0.00  0.00    +0.000 A 
ATOM      3  C   UNL     1       6.202   4.836  18.739  0.00  0.00    +0.000 A 
ATOM      4  C   UNL     1       5.415   4.297  17.751  0.00  0.00    +0.000 A 
ATOM      5  N   UNL     1       5.714   4.403  16.442  0.00  0.00    +0.000 NA
ATOM      6  C   UNL     1       6.822   5.079  16.141  0.00  0.00    +0.000 A 
ATOM      7  N   UNL     1       7.121   5.244  14.802  0.00  0.00    +0.000 N 
ATOM      8  N   UNL     1       7.635   5.656  17.028  0.00  0.00    +0.000 NA
ATOM      9  H   UNL     1       8.436   5.505  19.992  0.00  0.00    +0.000 HD
ATOM     10  H   UNL     1       8.943   6.523  18.747  0.00  0.00    +0.000 HD
ATOM     11  H   UNL     1       6.271   5.177  14.260  0.00  0.00    +0.000 HD
ATOM     12  H   UNL     1       7.671   6.084  14.687  0.00  0.00    +0.000 HD
ENDROOT
BRANCH   4  13
ATOM     13  C   UNL     1       4.181   3.594  18.074  0.00  0.00    +0.000 A 
ATOM     14  C   UNL     1       3.840   2.359  17.539  0.00  0.00    +0.000 A 
ATOM     15  N   UNL     1       2.640   1.975  18.079  0.00  0.00    +0.000 N 
ATOM     16  C   UNL     1       2.191   2.933  18.940  0.00  0.00    +0.000 A 
ATOM     17  N   UNL     1       1.038   2.848  19.628  0.00  0.00    +0.000 NA
ATOM     18  C   UNL     1       0.814   3.930  20.409  0.00  0.00    +0.000 A 
ATOM     19  C   UNL     1       1.646   5.036  20.521  0.00  0.00    +0.000 A 
ATOM     20  C   UNL     1       2.832   5.068  19.786  0.00  0.00    +0.000 A 
ATOM     21  C   UNL     1       3.124   3.966  18.962  0.00  0.00    +0.000 A 
ATOM     22  H   UNL     1       2.142   1.117  17.888  0.00  0.00    +0.000 HD
ENDBRANCH   4  13
TORSDOF 1
ENDMDL
MODEL 4
REMARK VINA RESULT:      -7.7      2.100      4.099
REMARK  Name = 
REMARK  1 active torsions:
REMARK  status: ('A' for Active; 'I' for Inactive)
REMARK    1  A    between atoms: C_4  and  C_5
REMARK                            x       y       z     vdW  Elec       q    Type
REMARK                         _______ _______ _______ _____ _____    ______ ____
ROOT
ATOM      1  N   UNL     1       5.580   2.937  11.948  0.00  0.00    +0.000 N 
ATOM      2  C   UNL     1       6.229   3.741  12.886  0.00  0.00    +0.000 A 
ATOM      3  C   UNL     1       5.891   3.656  14.211  0.00  0.00    +0.000 A 
ATOM      4  C   UNL     1       6.617   4.442  15.072  0.00  0.00    +0.000 A 
ATOM      5  N   UNL     1       7.600   5.263  14.655  0.00  0.00    +0.000 NA
ATOM      6  C   UNL     1       7.851   5.269  13.347  0.00  0.00    +0.000 A 
ATOM      7  N   UNL     1       8.889   6.065  12.903  0.00  0.00    +0.000 N 
ATOM      8  N   UNL     1       7.216   4.525  12.439  0.00  0.00    +0.000 NA
ATOM      9  H   UNL     1       4.572   3.018  12.006  0.00  0.00    +0.000 HD
ATOM     10  H   UNL     1       5.933   3.192  11.027  0.00  0.00    +0.000 HD
ATOM     11  H   UNL     1       9.543   6.212  13.659  0.00  0.00    +0.000 HD
ATOM     12  H   UNL     1       9.261   5.678  12.046  0.00  0.00    +0.000 HD
ENDROOT
BRANCH   4  13
ATOM     13  C   UNL     1       6.374   4.408  16.508  0.00  0.00    +0.000 A 
ATOM     14  C   UNL     1       7.371   4.576  17.459  0.00  0.00    +0.000 A 
ATOM     15  N   UNL     1       6.793   4.521  18.700  0.00  0.00    +0.000 N 
ATOM     16  C   UNL     1       5.450   4.312  18.578  0.00  0.00    +0.000 A 
ATOM     17  N   UNL     1       4.605   4.210  19.619  0.00  0.00    +0.000 NA
ATOM     18  C   UNL     1       3.325   3.996  19.235  0.00  0.00    +0.000 A 
ATOM     19  C   UNL     1       2.879   3.879  17.925  0.00  0.00    +0.000 A 
ATOM     20  C   UNL     1       3.802   3.997  16.884  0.00  0.00    +0.000 A 
ATOM     21  C   UNL     1       5.147   4.230  17.221  0.00  0.00    +0.000 A 
ATOM     22  H   UNL     1       7.264   4.620  19.588  0.00  0.00    +0.000 HD
ENDBRANCH   4  13
TORSDOF 1
ENDMDL
MODEL 5
REMARK VINA RESULT:      -7.6      1.563      5.790
REMARK  Name = 
REMARK  1 active torsions:
REMARK  status: ('A' for Active; 'I' for Inactive)
REMARK    1  A    between atoms: C_4  and  C_5
REMARK                            x       y       z     vdW  Elec       q    Type
REMARK                         _______ _______ _______ _____ _____    ______ ____
ROOT
ATOM      1  N   UNL     1       2.144   1.654  18.842  0.00  0.00    +0.000 N 
ATOM      2  C   UNL     1       2.763   2.894  19.006  0.00  0.00    +0.000 A 
ATOM      3  C   UNL     1       3.854   3.221  18.244  0.00  0.00    +0.000 A 
ATOM      4  C   UNL     1       4.367   4.482  18.432  0.00  0.00    +0.000 A 
ATOM      5  N   UNL     1       3.847   5.355  19.316  0.00  0.00    +0.000 NA
ATOM      6  C   UNL     1       2.785   4.939  20.005  0.00  0.00    +0.000 A 
ATOM      7  N   UNL     1       2.205   5.837  20.880  0.00  0.00    +0.000 N 
ATOM      8  N   UNL     1       2.204   3.744  19.874  0.00  0.00    +0.000 NA
ATOM      9  H   UNL     1       2.801   0.886  18.913  0.00  0.00    +0.000 HD
ATOM     10  H   UNL     1       1.399   1.588  19.533  0.00  0.00    +0.000 HD
ATOM     11  H   UNL     1       2.419   6.778  20.582  0.00  0.00    +0.000 HD
ATOM     12  H   UNL     1       1.227   5.605  20.992  0.00  0.00    +0.000 HD
ENDROOT
BRANCH   4  13
ATOM     13  C   UNL     1       5.502   4.955  17.652  0.00  0.00    +0.000 A 
ATOM     14  C   UNL     1       6.535   5.714  18.184  0.00  0.00    +0.000 A 
ATOM     15  N   UNL     1       7.446   5.955  17.189  0.00  0.00    +0.000 N 
ATOM     16  C   UNL     1       7.025   5.380  16.025  0.00  0.00    +0.000 A 
ATOM     17  N   UNL     1       7.704   5.441  14.866  0.00  0.00    +0.000 NA
ATOM     18  C   UNL     1       7.073   4.798  13.856  0.00  0.00    +0.000 A 
ATOM     19  C   UNL     1       5.855   4.138  13.950  0.00  0.00    +0.000 A 
ATOM     20  C   UNL     1       5.197   4.105  15.180  0.00  0.00    +0.000 A 
ATOM     21  C   UNL     1       5.809   4.748  16.270  0.00  0.00    +0.000 A 
ATOM     22  H   UNL     1       8.308   6.474  17.276  0.00  0.00    +0.000 HD
ENDBRANCH   4  13
TORSDOF 1
ENDMDL
MODEL 6
REMARK VINA RESULT:      -7.6      1.422      5.906
REMARK  Name = 
REMARK  1 active torsions:
REMARK  status: ('A' for Active; 'I' for Inactive)
REMARK    1  A    between atoms: C_4  and  C_5
REMARK                            x       y       z     vdW  Elec       q    Type
REMARK                         _______ _______ _______ _____ _____    ______ ____
ROOT
ATOM      1  N   UNL     1       2.055   5.524  21.181  0.00  0.00    +0.000 N 
ATOM      2  C   UNL     1       2.629   4.736  20.183  0.00  0.00    +0.000 A 
ATOM      3  C   UNL     1       3.732   5.184  19.505  0.00  0.00    +0.000 A 
ATOM      4  C   UNL     1       4.264   4.321  18.578  0.00  0.00    +0.000 A 
ATOM      5  N   UNL     1       3.739   3.106  18.329  0.00  0.00    +0.000 NA
ATOM      6  C   UNL     1       2.668   2.766  19.043  0.00  0.00    +0.000 A 
ATOM      7  N   UNL     1       2.144   1.503  18.840  0.00  0.00    +0.000 N 
ATOM      8  N   UNL     1       2.096   3.526  19.980  0.00  0.00    +0.000 NA
ATOM      9  H   UNL     1       1.847   6.461  20.856  0.00  0.00    +0.000 HD
ATOM     10  H   UNL     1       1.223   5.041  21.515  0.00  0.00    +0.000 HD
ATOM     11  H   UNL     1       2.868   0.896  18.483  0.00  0.00    +0.000 HD
ATOM     12  H   UNL     1       1.670   1.203  19.681  0.00  0.00    +0.000 HD
ENDROOT
BRANCH   4  13
ATOM     13  C   UNL     1       5.459   4.673  17.823  0.00  0.00    +0.000 A 
ATOM     14  C   UNL     1       6.617   5.168  18.407  0.00  0.00    +0.000 A 
ATOM     15  N   UNL     1       7.548   5.358  17.420  0.00  0.00    +0.000 N 
ATOM     16  C   UNL     1       7.020   5.008  16.211  0.00  0.00    +0.000 A 
ATOM     17  N   UNL     1       7.688   5.082  15.047  0.00  0.00    +0.000 NA
ATOM     18  C   UNL     1       6.943   4.685  13.989  0.00  0.00    +0.000 A 
ATOM     19  C   UNL     1       5.626   4.246  14.043  0.00  0.00    +0.000 A 
ATOM     20  C   UNL     1       4.984   4.187  15.281  0.00  0.00    +0.000 A 
ATOM     21  C   UNL     1       5.712   4.578  16.419  0.00  0.00    +0.000 A 
ATOM     22  H   UNL     1       8.490   5.700  17.540  0.00  0.00    +0.000 HD
ENDBRANCH   4  13
TORSDOF 1
ENDMDL
MODEL 7
REMARK VINA RESULT:      -7.5      1.204      2.083
REMARK  Name = 
REMARK  1 active torsions:
REMARK  status: ('A' for Active; 'I' for Inactive)
REMARK    1  A    between atoms: C_4  and  C_5
REMARK                            x       y       z     vdW  Elec       q    Type
REMARK                         _______ _______ _______ _____ _____    ______ ____
ROOT
ATOM      1  N   UNL     1       7.390   4.772  15.639  0.00  0.00    +0.000 N 
ATOM      2  C   UNL     1       6.970   4.957  16.957  0.00  0.00    +0.000 A 
ATOM      3  C   UNL     1       5.637   4.890  17.267  0.00  0.00    +0.000 A 
ATOM      4  C   UNL     1       5.318   5.029  18.596  0.00  0.00    +0.000 A 
ATOM      5  N   UNL     1       6.246   5.232  19.551  0.00  0.00    +0.000 NA
ATOM      6  C   UNL     1       7.513   5.280  19.143  0.00  0.00    +0.000 A 
ATOM      7  N   UNL     1       8.486   5.436  20.112  0.00  0.00    +0.000 N 
ATOM      8  N   UNL     1       7.921   5.132  17.881  0.00  0.00    +0.000 NA
ATOM      9  H   UNL     1       6.899   5.379  14.992  0.00  0.00    +0.000 HD
ATOM     10  H   UNL     1       8.397   4.918  15.613  0.00  0.00    +0.000 HD
ATOM     11  H   UNL     1       8.133   5.099  20.996  0.00  0.00    +0.000 HD
ATOM     12  H   UNL     1       9.351   5.031  19.781  0.00  0.00    +0.000 HD
ENDROOT
BRANCH   4  13
ATOM     13  C   UNL     1       3.937   4.936  19.051  0.00  0.00    +0.000 A 
ATOM     14  C   UNL     1       3.270   5.969  19.694  0.00  0.00    +0.000 A 
ATOM     15  N   UNL     1       1.988   5.559  19.950  0.00  0.00    +0.000 N 
ATOM     16  C   UNL     1       1.810   4.284  19.498  0.00  0.00    +0.000 A 
ATOM     17  N   UNL     1       0.657   3.600  19.603  0.00  0.00    +0.000 NA
ATOM     18  C   UNL     1       0.739   2.353  19.085  0.00  0.00    +0.000 A 
ATOM     19  C   UNL     1       1.866   1.788  18.503  0.00  0.00    +0.000 A 
ATOM     20  C   UNL     1       3.035   2.546  18.419  0.00  0.00    +0.000 A 
ATOM     21  C   UNL     1       3.008   3.854  18.932  0.00  0.00    +0.000 A 
ATOM     22  H   UNL     1       1.263   6.098  20.400  0.00  0.00    +0.000 HD
ENDBRANCH   4  13
TORSDOF 1
ENDMDL
MODEL 8
REMARK VINA RESULT:      -7.5      1.349      1.624
REMARK  Name = 
REMARK  1 active torsions:
REMARK  status: ('A' for Active; 'I' for Inactive)
REMARK    1  A    between atoms: C_4  and  C_5
REMARK                            x       y       z     vdW  Elec       q    Type
REMARK                         _______ _______ _______ _____ _____    ______ ____
ROOT
ATOM      1  N   UNL     1       7.637   4.488  15.561  0.00  0.00    +0.000 N 
ATOM      2  C   UNL     1       7.070   4.729  16.813  0.00  0.00    +0.000 A 
ATOM      3  C   UNL     1       5.714   4.629  16.982  0.00  0.00    +0.000 A 
ATOM      4  C   UNL     1       5.248   4.830  18.259  0.00  0.00    +0.000 A 
ATOM      5  N   UNL     1       6.059   5.119  19.294  0.00  0.00    +0.000 NA
ATOM      6  C   UNL     1       7.361   5.192  19.023  0.00  0.00    +0.000 A 
ATOM      7  N   UNL     1       8.218   5.437  20.079  0.00  0.00    +0.000 N 
ATOM      8  N   UNL     1       7.909   4.990  17.822  0.00  0.00    +0.000 NA
ATOM      9  H   UNL     1       7.201   5.039  14.831  0.00  0.00    +0.000 HD
ATOM     10  H   UNL     1       8.635   4.669  15.635  0.00  0.00    +0.000 HD
ATOM     11  H   UNL     1       7.781   5.136  20.939  0.00  0.00    +0.000 HD
ATOM     12  H   UNL     1       9.126   5.046  19.867  0.00  0.00    +0.000 HD
ENDROOT
BRANCH   4  13
ATOM     13  C   UNL     1       3.829   4.711  18.568  0.00  0.00    +0.000 A 
ATOM     14  C   UNL     1       2.831   5.357  17.852  0.00  0.00    +0.000 A 
ATOM     15  N   UNL     1       1.621   5.001  18.386  0.00  0.00    +0.000 N 
ATOM     16  C   UNL     1       1.809   4.148  19.434  0.00  0.00    +0.000 A 
ATOM     17  N   UNL     1       0.811   3.621  20.166  0.00  0.00    +0.000 NA
ATOM     18  C   UNL     1       1.258   2.812  21.154  0.00  0.00    +0.000 A 
ATOM     19  C   UNL     1       2.590   2.527  21.431  0.00  0.00    +0.000 A 
ATOM     20  C   UNL     1       3.583   3.101  20.635  0.00  0.00    +0.000 A 
ATOM     21  C   UNL     1       3.178   3.945  19.586  0.00  0.00    +0.000 A 
ATOM     22  H   UNL     1       0.711   5.305  18.069  0.00  0.00    +0.000 HD
ENDBRANCH   4  13
TORSDOF 1
ENDMDL
MODEL 9
REMARK VINA RESULT:      -7.5      1.810      5.728
REMARK  Name = 
REMARK  1 active torsions:
REMARK  status: ('A' for Active; 'I' for Inactive)
REMARK    1  A    between atoms: C_4  and  C_5
REMARK                            x       y       z     vdW  Elec       q    Type
REMARK                         _______ _______ _______ _____ _____    ______ ____
ROOT
ATOM      1  N   UNL     1       1.533   2.526  20.629  0.00  0.00    +0.000 N 
ATOM      2  C   UNL     1       2.245   3.689  20.333  0.00  0.00    +0.000 A 
ATOM      3  C   UNL     1       3.458   3.608  19.702  0.00  0.00    +0.000 A 
ATOM      4  C   UNL     1       4.064   4.803  19.400  0.00  0.00    +0.000 A 
ATOM      5  N   UNL     1       3.519   5.995  19.710  0.00  0.00    +0.000 NA
ATOM      6  C   UNL     1       2.336   5.964  20.322  0.00  0.00    +0.000 A 
ATOM      7  N   UNL     1       1.734   7.175  20.603  0.00  0.00    +0.000 N 
ATOM      8  N   UNL     1       1.661   4.855  20.633  0.00  0.00    +0.000 NA
ATOM      9  H   UNL     1       2.093   1.854  21.139  0.00  0.00    +0.000 HD
ATOM     10  H   UNL     1       0.697   2.799  21.143  0.00  0.00    +0.000 HD
ATOM     11  H   UNL     1       2.081   7.876  19.963  0.00  0.00    +0.000 HD
ATOM     12  H   UNL     1       0.732   7.046  20.639  0.00  0.00    +0.000 HD
ENDROOT
BRANCH   4  13
ATOM     13  C   UNL     1       5.338   4.843  18.695  0.00  0.00    +0.000 A 
ATOM     14  C   UNL     1       6.558   5.049  19.325  0.00  0.00    +0.000 A 
ATOM     15  N   UNL     1       7.545   4.993  18.376  0.00  0.00    +0.000 N 
ATOM     16  C   UNL     1       6.996   4.766  17.148  0.00  0.00    +0.000 A 
ATOM     17  N   UNL     1       7.707   4.660  16.011  0.00  0.00    +0.000 NA
ATOM     18  C   UNL     1       6.930   4.443  14.926  0.00  0.00    +0.000 A 
ATOM     19  C   UNL     1       5.545   4.339  14.926  0.00  0.00    +0.000 A 
ATOM     20  C   UNL     1       4.859   4.454  16.137  0.00  0.00    +0.000 A 
ATOM     21  C   UNL     1       5.615   4.671  17.302  0.00  0.00    +0.000 A 
ATOM     22  H   UNL     1       8.537   5.097  18.534  0.00  0.00    +0.000 HD
ENDBRANCH   4  13
TORSDOF 1
ENDMDL
