MODEL 1
REMARK VINA RESULT:      -8.6      0.000      0.000
REMARK  Name = 
REMARK  8 active torsions:
REMARK  status: ('A' for Active; 'I' for Inactive)
REMARK    1  A    between atoms: C_1  and  C_2
REMARK    2  A    between atoms: C_5  and  N_6
REMARK    3  A    between atoms: N_6  and  S_7
REMARK    4  A    between atoms: S_7  and  C_10
REMARK    5  A    between atoms: C_13  and  C_14
REMARK    6  A    between atoms: C_15  and  C_16
REMARK    7  A    between atoms: N_18  and  C_19
REMARK    8  A    between atoms: C_24  and  N_25
REMARK                            x       y       z     vdW  Elec       q    Type
REMARK                         _______ _______ _______ _____ _____    ______ ____
ROOT
ATOM      1  C   UNL     1       2.450   4.526  18.827  0.00  0.00    +0.000 A 
ATOM      2  C   UNL     1       2.448   5.759  18.168  0.00  0.00    +0.000 A 
ATOM      3  C   UNL     1       2.150   6.926  18.882  0.00  0.00    +0.000 A 
ATOM      4  C   UNL     1       1.829   6.865  20.243  0.00  0.00    +0.000 A 
ATOM      5  C   UNL     1       1.841   5.619  20.889  0.00  0.00    +0.000 A 
ATOM      6  C   UNL     1       2.134   4.451  20.184  0.00  0.00    +0.000 A 
ENDROOT
BRANCH   1   7
ATOM      7  S   UNL     1       2.776   3.029  17.919  0.00  0.00    +0.000 S 
ATOM      8  O   UNL     1       2.366   3.267  16.549  0.00  0.00    +0.000 OA
ATOM      9  O   UNL     1       2.236   1.921  18.677  0.00  0.00    +0.000 OA
BRANCH   7  10
ATOM     10  N   UNL     1       4.447   2.933  17.897  0.00  0.00    +0.000 N 
ATOM     11  H   UNL     1       4.854   2.020  17.717  0.00  0.00    +0.000 HD
BRANCH  10  16
ATOM     12  C   UNL     1       7.679   7.639  17.558  0.00  0.00    +0.000 C 
ATOM     13  C   UNL     1       6.817   6.413  17.637  0.00  0.00    +0.000 A 
ATOM     14  C   UNL     1       6.187   5.896  16.500  0.00  0.00    +0.000 A 
ATOM     15  C   UNL     1       5.402   4.742  16.590  0.00  0.00    +0.000 A 
ATOM     16  C   UNL     1       5.243   4.100  17.818  0.00  0.00    +0.000 A 
ATOM     17  C   UNL     1       5.843   4.621  18.960  0.00  0.00    +0.000 A 
ATOM     18  C   UNL     1       6.635   5.769  18.868  0.00  0.00    +0.000 A 
ENDBRANCH  10  16
ENDBRANCH   7  10
ENDBRANCH   1   7
BRANCH   4  19
ATOM     19  C   UNL     1       1.537   8.066  21.034  0.00  0.00    +0.000 C 
ATOM     20  C   UNL     1       0.330   8.416  21.515  0.00  0.00    +0.000 C 
BRANCH  20  21
ATOM     21  C   UNL     1       0.231   9.692  22.277  0.00  0.00    +0.000 C 
ATOM     22  O   UNL     1       0.629   9.738  23.432  0.00  0.00    +0.000 OA
ATOM     23  N   UNL     1      -0.349  10.725  21.564  0.00  0.00    +0.000 N 
ATOM     24  H   UNL     1      -0.804  10.515  20.692  0.00  0.00    +0.000 HD
BRANCH  23  25
ATOM     25  C   UNL     1      -0.467  12.065  22.027  0.00  0.00    +0.000 A 
ATOM     26  C   UNL     1      -1.413  12.407  23.004  0.00  0.00    +0.000 A 
ATOM     27  C   UNL     1      -1.566  13.716  23.448  0.00  0.00    +0.000 A 
ATOM     28  C   UNL     1      -0.765  14.717  22.922  0.00  0.00    +0.000 A 
ATOM     29  C   UNL     1       0.189  14.399  21.954  0.00  0.00    +0.000 A 
ATOM     30  C   UNL     1       0.390  13.072  21.527  0.00  0.00    +0.000 A 
BRANCH  30  31
ATOM     31  N   UNL     1       1.264  12.862  20.439  0.00  0.00    +0.000 N 
ATOM     32  H   UNL     1       2.129  13.392  20.513  0.00  0.00    +0.000 HD
ATOM     33  H   UNL     1       1.436  11.898  20.194  0.00  0.00    +0.000 HD
ENDBRANCH  30  31
ENDBRANCH  23  25
ENDBRANCH  20  21
ENDBRANCH   4  19
TORSDOF 7
ENDMDL
MODEL 2
REMARK VINA RESULT:      -8.6      5.096      8.177
REMARK  Name = 
REMARK  8 active torsions:
REMARK  status: ('A' for Active; 'I' for Inactive)
REMARK    1  A    between atoms: C_1  and  C_2
REMARK    2  A    between atoms: C_5  and  N_6
REMARK    3  A    between atoms: N_6  and  S_7
REMARK    4  A    between atoms: S_7  and  C_10
REMARK    5  A    between atoms: C_13  and  C_14
REMARK    6  A    between atoms: C_15  and  C_16
REMARK    7  A    between atoms: N_18  and  C_19
REMARK    8  A    between atoms: C_24  and  N_25
REMARK                            x       y       z     vdW  Elec       q    Type
REMARK                         _______ _______ _______ _____ _____    ______ ____
ROOT
ATOM      1  C   UNL     1       6.337   5.837  17.765  0.00  0.00    +0.000 A 
ATOM      2  C   UNL     1       7.387   5.879  18.686  0.00  0.00    +0.000 A 
ATOM      3  C   UNL     1       8.154   7.044  18.811  0.00  0.00    +0.000 A 
ATOM      4  C   UNL     1       7.893   8.157  18.004  0.00  0.00    +0.000 A 
ATOM      5  C   UNL     1       6.831   8.099  17.088  0.00  0.00    +0.000 A 
ATOM      6  C   UNL     1       6.065   6.940  16.954  0.00  0.00    +0.000 A 
ENDROOT
BRANCH   1   7
ATOM      7  S   UNL     1       5.390   4.343  17.558  0.00  0.00    +0.000 S 
ATOM      8  O   UNL     1       5.378   3.668  18.840  0.00  0.00    +0.000 OA
ATOM      9  O   UNL     1       5.867   3.673  16.367  0.00  0.00    +0.000 OA
BRANCH   7  10
ATOM     10  N   UNL     1       3.829   4.894  17.306  0.00  0.00    +0.000 N 
ATOM     11  H   UNL     1       3.311   4.476  16.538  0.00  0.00    +0.000 HD
BRANCH  10  16
ATOM     12  C   UNL     1       1.140   8.009  21.277  0.00  0.00    +0.000 C 
ATOM     13  C   UNL     1       1.834   7.199  20.221  0.00  0.00    +0.000 A 
ATOM     14  C   UNL     1       2.279   7.788  19.032  0.00  0.00    +0.000 A 
ATOM     15  C   UNL     1       2.940   7.020  18.068  0.00  0.00    +0.000 A 
ATOM     16  C   UNL     1       3.159   5.660  18.288  0.00  0.00    +0.000 A 
ATOM     17  C   UNL     1       2.697   5.059  19.455  0.00  0.00    +0.000 A 
ATOM     18  C   UNL     1       2.045   5.829  20.422  0.00  0.00    +0.000 A 
ENDBRANCH  10  16
ENDBRANCH   7  10
ENDBRANCH   1   7
BRANCH   4  19
ATOM     19  C   UNL     1       8.653   9.407  18.122  0.00  0.00    +0.000 C 
ATOM     20  C   UNL     1       9.252   9.860  19.238  0.00  0.00    +0.000 C 
BRANCH  20  21
ATOM     21  C   UNL     1       9.958  11.169  19.164  0.00  0.00    +0.000 C 
ATOM     22  O   UNL     1      10.881  11.402  19.931  0.00  0.00    +0.000 OA
ATOM     23  N   UNL     1       9.449  12.023  18.204  0.00  0.00    +0.000 N 
ATOM     24  H   UNL     1       8.573  11.793  17.766  0.00  0.00    +0.000 HD
BRANCH  23  25
ATOM     25  C   UNL     1      10.007  13.288  17.865  0.00  0.00    +0.000 A 
ATOM     26  C   UNL     1       9.271  14.469  18.041  0.00  0.00    +0.000 A 
ATOM     27  C   UNL     1       9.786  15.712  17.688  0.00  0.00    +0.000 A 
ATOM     28  C   UNL     1      11.060  15.798  17.149  0.00  0.00    +0.000 A 
ATOM     29  C   UNL     1      11.814  14.637  16.970  0.00  0.00    +0.000 A 
ATOM     30  C   UNL     1      11.327  13.376  17.366  0.00  0.00    +0.000 A 
BRANCH  30  31
ATOM     31  N   UNL     1      12.087  12.242  17.010  0.00  0.00    +0.000 N 
ATOM     32  H   UNL     1      11.556  11.555  16.479  0.00  0.00    +0.000 HD
ATOM     33  H   UNL     1      12.983  12.430  16.587  0.00  0.00    +0.000 HD
ENDBRANCH  30  31
ENDBRANCH  23  25
ENDBRANCH  20  21
ENDBRANCH   4  19
TORSDOF 7
ENDMDL
MODEL 3
REMARK VINA RESULT:      -8.3      5.249      8.297
REMARK  Name = 
REMARK  8 active torsions:
REMARK  status: ('A' for Active; 'I' for Inactive)
REMARK    1  A    between atoms: C_1  and  C_2
REMARK    2  A    between atoms: C_5  and  N_6
REMARK    3  A    between atoms: N_6  and  S_7
REMARK    4  A    between atoms: S_7  and  C_10
REMARK    5  A    between atoms: C_13  and  C_14
REMARK    6  A    between atoms: C_15  and  C_16
REMARK    7  A    between atoms: N_18  and  C_19
REMARK    8  A    between atoms: C_24  and  N_25
REMARK                            x       y       z     vdW  Elec       q    Type
REMARK                         _______ _______ _______ _____ _____    ______ ____
ROOT
ATOM      1  C   UNL     1       6.377   5.717  17.680  0.00  0.00    +0.000 A 
ATOM      2  C   UNL     1       6.282   6.865  16.890  0.00  0.00    +0.000 A 
ATOM      3  C   UNL     1       7.101   7.968  17.168  0.00  0.00    +0.000 A 
ATOM      4  C   UNL     1       7.993   7.937  18.246  0.00  0.00    +0.000 A 
ATOM      5  C   UNL     1       8.078   6.773  19.025  0.00  0.00    +0.000 A 
ATOM      6  C   UNL     1       7.264   5.671  18.756  0.00  0.00    +0.000 A 
ENDROOT
BRANCH   1   7
ATOM      7  S   UNL     1       5.305   4.329  17.369  0.00  0.00    +0.000 S 
ATOM      8  O   UNL     1       5.183   3.599  18.615  0.00  0.00    +0.000 OA
ATOM      9  O   UNL     1       5.762   3.673  16.163  0.00  0.00    +0.000 OA
BRANCH   7  10
ATOM     10  N   UNL     1       3.812   5.035  17.094  0.00  0.00    +0.000 N 
ATOM     11  H   UNL     1       3.302   4.728  16.270  0.00  0.00    +0.000 HD
BRANCH  10  16
ATOM     12  C   UNL     1       1.147   8.011  21.186  0.00  0.00    +0.000 C 
ATOM     13  C   UNL     1       1.858   7.221  20.126  0.00  0.00    +0.000 A 
ATOM     14  C   UNL     1       2.048   5.842  20.255  0.00  0.00    +0.000 A 
ATOM     15  C   UNL     1       2.696   5.120  19.248  0.00  0.00    +0.000 A 
ATOM     16  C   UNL     1       3.158   5.775  18.106  0.00  0.00    +0.000 A 
ATOM     17  C   UNL     1       2.998   7.152  17.979  0.00  0.00    +0.000 A 
ATOM     18  C   UNL     1       2.341   7.871  18.982  0.00  0.00    +0.000 A 
ENDBRANCH  10  16
ENDBRANCH   7  10
ENDBRANCH   1   7
BRANCH   4  19
ATOM     19  C   UNL     1       8.887   9.058  18.555  0.00  0.00    +0.000 C 
ATOM     20  C   UNL     1       8.721  10.331  18.150  0.00  0.00    +0.000 C 
BRANCH  20  21
ATOM     21  C   UNL     1       9.756  11.326  18.547  0.00  0.00    +0.000 C 
ATOM     22  O   UNL     1      10.657  10.991  19.303  0.00  0.00    +0.000 OA
ATOM     23  N   UNL     1       9.558  12.583  18.007  0.00  0.00    +0.000 N 
ATOM     24  H   UNL     1       8.683  12.782  17.554  0.00  0.00    +0.000 HD
BRANCH  23  25
ATOM     25  C   UNL     1      10.456  13.677  18.149  0.00  0.00    +0.000 A 
ATOM     26  C   UNL     1      10.427  14.487  19.294  0.00  0.00    +0.000 A 
ATOM     27  C   UNL     1      11.274  15.579  19.440  0.00  0.00    +0.000 A 
ATOM     28  C   UNL     1      12.178  15.886  18.433  0.00  0.00    +0.000 A 
ATOM     29  C   UNL     1      12.229  15.091  17.287  0.00  0.00    +0.000 A 
ATOM     30  C   UNL     1      11.412  13.952  17.144  0.00  0.00    +0.000 A 
BRANCH  30  31
ATOM     31  N   UNL     1      11.419  13.298  15.895  0.00  0.00    +0.000 N 
ATOM     32  H   UNL     1      10.499  12.965  15.612  0.00  0.00    +0.000 HD
ATOM     33  H   UNL     1      11.885  13.786  15.146  0.00  0.00    +0.000 HD
ENDBRANCH  30  31
ENDBRANCH  23  25
ENDBRANCH  20  21
ENDBRANCH   4  19
TORSDOF 7
ENDMDL
MODEL 4
REMARK VINA RESULT:      -8.3      5.899      8.473
REMARK  Name = 
REMARK  8 active torsions:
REMARK  status: ('A' for Active; 'I' for Inactive)
REMARK    1  A    between atoms: C_1  and  C_2
REMARK    2  A    between atoms: C_5  and  N_6
REMARK    3  A    between atoms: N_6  and  S_7
REMARK    4  A    between atoms: S_7  and  C_10
REMARK    5  A    between atoms: C_13  and  C_14
REMARK    6  A    between atoms: C_15  and  C_16
REMARK    7  A    between atoms: N_18  and  C_19
REMARK    8  A    between atoms: C_24  and  N_25
REMARK                            x       y       z     vdW  Elec       q    Type
REMARK                         _______ _______ _______ _____ _____    ______ ____
ROOT
ATOM      1  C   UNL     1       7.207   6.530  17.909  0.00  0.00    +0.000 A 
ATOM      2  C   UNL     1       6.771   7.589  17.108  0.00  0.00    +0.000 A 
ATOM      3  C   UNL     1       7.357   8.854  17.251  0.00  0.00    +0.000 A 
ATOM      4  C   UNL     1       8.356   9.070  18.208  0.00  0.00    +0.000 A 
ATOM      5  C   UNL     1       8.784   7.993  19.000  0.00  0.00    +0.000 A 
ATOM      6  C   UNL     1       8.203   6.732  18.866  0.00  0.00    +0.000 A 
ENDROOT
BRANCH   1   7
ATOM      7  S   UNL     1       6.433   4.932  17.774  0.00  0.00    +0.000 S 
ATOM      8  O   UNL     1       6.280   4.419  19.120  0.00  0.00    +0.000 OA
ATOM      9  O   UNL     1       7.143   4.176  16.764  0.00  0.00    +0.000 OA
BRANCH   7  10
ATOM     10  N   UNL     1       4.889   5.284  17.230  0.00  0.00    +0.000 N 
ATOM     11  H   UNL     1       4.812   5.910  16.433  0.00  0.00    +0.000 HD
BRANCH  10  16
ATOM     12  C   UNL     1       0.399   2.179  18.934  0.00  0.00    +0.000 C 
ATOM     13  C   UNL     1       1.565   3.008  18.481  0.00  0.00    +0.000 A 
ATOM     14  C   UNL     1       1.686   4.352  18.851  0.00  0.00    +0.000 A 
ATOM     15  C   UNL     1       2.790   5.103  18.435  0.00  0.00    +0.000 A 
ATOM     16  C   UNL     1       3.777   4.514  17.645  0.00  0.00    +0.000 A 
ATOM     17  C   UNL     1       3.653   3.186  17.249  0.00  0.00    +0.000 A 
ATOM     18  C   UNL     1       2.555   2.433  17.673  0.00  0.00    +0.000 A 
ENDBRANCH  10  16
ENDBRANCH   7  10
ENDBRANCH   1   7
BRANCH   4  19
ATOM     19  C   UNL     1       9.015  10.371  18.372  0.00  0.00    +0.000 C 
ATOM     20  C   UNL     1       9.433  10.899  19.537  0.00  0.00    +0.000 C 
BRANCH  20  21
ATOM     21  C   UNL     1      10.059  12.249  19.501  0.00  0.00    +0.000 C 
ATOM     22  O   UNL     1      10.847  12.573  20.378  0.00  0.00    +0.000 OA
ATOM     23  N   UNL     1       9.641  13.030  18.440  0.00  0.00    +0.000 N 
ATOM     24  H   UNL     1       8.853  12.725  17.895  0.00  0.00    +0.000 HD
BRANCH  23  25
ATOM     25  C   UNL     1      10.163  14.316  18.124  0.00  0.00    +0.000 A 
ATOM     26  C   UNL     1       9.674  15.467  18.760  0.00  0.00    +0.000 A 
ATOM     27  C   UNL     1      10.148  16.735  18.445  0.00  0.00    +0.000 A 
ATOM     28  C   UNL     1      11.132  16.879  17.478  0.00  0.00    +0.000 A 
ATOM     29  C   UNL     1      11.639  15.748  16.836  0.00  0.00    +0.000 A 
ATOM     30  C   UNL     1      11.205  14.451  17.178  0.00  0.00    +0.000 A 
BRANCH  30  31
ATOM     31  N   UNL     1      11.654  13.381  16.376  0.00  0.00    +0.000 N 
ATOM     32  H   UNL     1      11.927  13.669  15.440  0.00  0.00    +0.000 HD
ATOM     33  H   UNL     1      12.344  12.777  16.797  0.00  0.00    +0.000 HD
ENDBRANCH  30  31
ENDBRANCH  23  25
ENDBRANCH  20  21
ENDBRANCH   4  19
TORSDOF 7
ENDMDL
MODEL 5
REMARK VINA RESULT:      -8.2      5.966      8.338
REMARK  Name = 
REMARK  8 active torsions:
REMARK  status: ('A' for Active; 'I' for Inactive)
REMARK    1  A    between atoms: C_1  and  C_2
REMARK    2  A    between atoms: C_5  and  N_6
REMARK    3  A    between atoms: N_6  and  S_7
REMARK    4  A    between atoms: S_7  and  C_10
REMARK    5  A    between atoms: C_13  and  C_14
REMARK    6  A    between atoms: C_15  and  C_16
REMARK    7  A    between atoms: N_18  and  C_19
REMARK    8  A    between atoms: C_24  and  N_25
REMARK                            x       y       z     vdW  Elec       q    Type
REMARK                         _______ _______ _______ _____ _____    ______ ____
ROOT
ATOM      1  C   UNL     1       7.402   6.557  17.831  0.00  0.00    +0.000 A 
ATOM      2  C   UNL     1       8.300   6.766  18.882  0.00  0.00    +0.000 A 
ATOM      3  C   UNL     1       8.776   8.058  19.140  0.00  0.00    +0.000 A 
ATOM      4  C   UNL     1       8.381   9.135  18.339  0.00  0.00    +0.000 A 
ATOM      5  C   UNL     1       7.474   8.906  17.291  0.00  0.00    +0.000 A 
ATOM      6  C   UNL     1       6.998   7.622  17.025  0.00  0.00    +0.000 A 
ENDROOT
BRANCH   1   7
ATOM      7  S   UNL     1       6.832   4.911  17.459  0.00  0.00    +0.000 S 
ATOM      8  O   UNL     1       6.592   4.249  18.726  0.00  0.00    +0.000 OA
ATOM      9  O   UNL     1       7.727   4.339  16.477  0.00  0.00    +0.000 OA
BRANCH   7  10
ATOM     10  N   UNL     1       5.326   5.159  16.770  0.00  0.00    +0.000 N 
ATOM     11  H   UNL     1       5.306   5.595  15.852  0.00  0.00    +0.000 HD
BRANCH  10  16
ATOM     12  C   UNL     1       0.666   2.560  18.828  0.00  0.00    +0.000 C 
ATOM     13  C   UNL     1       1.901   3.228  18.297  0.00  0.00    +0.000 A 
ATOM     14  C   UNL     1       2.910   2.492  17.667  0.00  0.00    +0.000 A 
ATOM     15  C   UNL     1       4.044   3.136  17.162  0.00  0.00    +0.000 A 
ATOM     16  C   UNL     1       4.174   4.519  17.285  0.00  0.00    +0.000 A 
ATOM     17  C   UNL     1       3.189   5.258  17.932  0.00  0.00    +0.000 A 
ATOM     18  C   UNL     1       2.051   4.616  18.428  0.00  0.00    +0.000 A 
ENDBRANCH  10  16
ENDBRANCH   7  10
ENDBRANCH   1   7
BRANCH   4  19
ATOM     19  C   UNL     1       8.833  10.507  18.591  0.00  0.00    +0.000 C 
ATOM     20  C   UNL     1      10.102  10.885  18.831  0.00  0.00    +0.000 C 
BRANCH  20  21
ATOM     21  C   UNL     1      10.359  12.329  19.091  0.00  0.00    +0.000 C 
ATOM     22  O   UNL     1      11.082  12.656  20.021  0.00  0.00    +0.000 OA
ATOM     23  N   UNL     1       9.701  13.177  18.221  0.00  0.00    +0.000 N 
ATOM     24  H   UNL     1       8.991  12.798  17.619  0.00  0.00    +0.000 HD
BRANCH  23  25
ATOM     25  C   UNL     1       9.859  14.592  18.193  0.00  0.00    +0.000 A 
ATOM     26  C   UNL     1       9.208  15.407  19.130  0.00  0.00    +0.000 A 
ATOM     27  C   UNL     1       9.324  16.792  19.101  0.00  0.00    +0.000 A 
ATOM     28  C   UNL     1      10.103  17.395  18.126  0.00  0.00    +0.000 A 
ATOM     29  C   UNL     1      10.766  16.604  17.186  0.00  0.00    +0.000 A 
ATOM     30  C   UNL     1      10.698  15.197  17.230  0.00  0.00    +0.000 A 
BRANCH  30  31
ATOM     31  N   UNL     1      11.270  14.483  16.156  0.00  0.00    +0.000 N 
ATOM     32  H   UNL     1      10.926  13.528  16.082  0.00  0.00    +0.000 HD
ATOM     33  H   UNL     1      11.262  14.953  15.263  0.00  0.00    +0.000 HD
ENDBRANCH  30  31
ENDBRANCH  23  25
ENDBRANCH  20  21
ENDBRANCH   4  19
TORSDOF 7
ENDMDL
MODEL 6
REMARK VINA RESULT:      -8.2      5.869      8.215
REMARK  Name = 
REMARK  8 active torsions:
REMARK  status: ('A' for Active; 'I' for Inactive)
REMARK    1  A    between atoms: C_1  and  C_2
REMARK    2  A    between atoms: C_5  and  N_6
REMARK    3  A    between atoms: N_6  and  S_7
REMARK    4  A    between atoms: S_7  and  C_10
REMARK    5  A    between atoms: C_13  and  C_14
REMARK    6  A    between atoms: C_15  and  C_16
REMARK    7  A    between atoms: N_18  and  C_19
REMARK    8  A    between atoms: C_24  and  N_25
REMARK                            x       y       z     vdW  Elec       q    Type
REMARK                         _______ _______ _______ _____ _____    ______ ____
ROOT
ATOM      1  C   UNL     1       7.365   6.431  17.910  0.00  0.00    +0.000 A 
ATOM      2  C   UNL     1       8.288   6.709  18.922  0.00  0.00    +0.000 A 
ATOM      3  C   UNL     1       8.772   8.014  19.080  0.00  0.00    +0.000 A 
ATOM      4  C   UNL     1       8.359   9.035  18.216  0.00  0.00    +0.000 A 
ATOM      5  C   UNL     1       7.428   8.738  17.208  0.00  0.00    +0.000 A 
ATOM      6  C   UNL     1       6.943   7.440  17.043  0.00  0.00    +0.000 A 
ENDROOT
BRANCH   1   7
ATOM      7  S   UNL     1       6.783   4.766  17.666  0.00  0.00    +0.000 S 
ATOM      8  O   UNL     1       6.453   4.236  18.973  0.00  0.00    +0.000 OA
ATOM      9  O   UNL     1       7.725   4.086  16.802  0.00  0.00    +0.000 OA
BRANCH   7  10
ATOM     10  N   UNL     1       5.328   4.967  16.863  0.00  0.00    +0.000 N 
ATOM     11  H   UNL     1       5.372   5.320  15.911  0.00  0.00    +0.000 HD
BRANCH  10  16
ATOM     12  C   UNL     1       0.507   2.610  18.839  0.00  0.00    +0.000 C 
ATOM     13  C   UNL     1       1.783   3.215  18.330  0.00  0.00    +0.000 A 
ATOM     14  C   UNL     1       2.788   2.421  17.768  0.00  0.00    +0.000 A 
ATOM     15  C   UNL     1       3.961   3.006  17.282  0.00  0.00    +0.000 A 
ATOM     16  C   UNL     1       4.136   4.387  17.357  0.00  0.00    +0.000 A 
ATOM     17  C   UNL     1       3.155   5.184  17.939  0.00  0.00    +0.000 A 
ATOM     18  C   UNL     1       1.978   4.601  18.416  0.00  0.00    +0.000 A 
ENDBRANCH  10  16
ENDBRANCH   7  10
ENDBRANCH   1   7
BRANCH   4  19
ATOM     19  C   UNL     1       8.820  10.420  18.363  0.00  0.00    +0.000 C 
ATOM     20  C   UNL     1       9.613  10.885  19.346  0.00  0.00    +0.000 C 
BRANCH  20  21
ATOM     21  C   UNL     1       9.951  12.335  19.337  0.00  0.00    +0.000 C 
ATOM     22  O   UNL     1      10.555  12.821  20.282  0.00  0.00    +0.000 OA
ATOM     23  N   UNL     1       9.503  13.006  18.214  0.00  0.00    +0.000 N 
ATOM     24  H   UNL     1       8.859  12.540  17.597  0.00  0.00    +0.000 HD
BRANCH  23  25
ATOM     25  C   UNL     1       9.783  14.369  17.917  0.00  0.00    +0.000 A 
ATOM     26  C   UNL     1      10.982  14.735  17.287  0.00  0.00    +0.000 A 
ATOM     27  C   UNL     1      11.289  16.064  17.015  0.00  0.00    +0.000 A 
ATOM     28  C   UNL     1      10.394  17.061  17.370  0.00  0.00    +0.000 A 
ATOM     29  C   UNL     1       9.192  16.720  17.992  0.00  0.00    +0.000 A 
ATOM     30  C   UNL     1       8.843  15.376  18.231  0.00  0.00    +0.000 A 
BRANCH  30  31
ATOM     31  N   UNL     1       7.686  15.130  18.999  0.00  0.00    +0.000 N 
ATOM     32  H   UNL     1       7.870  14.580  19.835  0.00  0.00    +0.000 HD
ATOM     33  H   UNL     1       7.113  15.936  19.201  0.00  0.00    +0.000 HD
ENDBRANCH  30  31
ENDBRANCH  23  25
ENDBRANCH  20  21
ENDBRANCH   4  19
TORSDOF 7
ENDMDL
MODEL 7
REMARK VINA RESULT:      -8.2      1.838      2.505
REMARK  Name = 
REMARK  8 active torsions:
REMARK  status: ('A' for Active; 'I' for Inactive)
REMARK    1  A    between atoms: C_1  and  C_2
REMARK    2  A    between atoms: C_5  and  N_6
REMARK    3  A    between atoms: N_6  and  S_7
REMARK    4  A    between atoms: S_7  and  C_10
REMARK    5  A    between atoms: C_13  and  C_14
REMARK    6  A    between atoms: C_15  and  C_16
REMARK    7  A    between atoms: N_18  and  C_19
REMARK    8  A    between atoms: C_24  and  N_25
REMARK                            x       y       z     vdW  Elec       q    Type
REMARK                         _______ _______ _______ _____ _____    ______ ____
ROOT
ATOM      1  C   UNL     1       2.355   4.628  18.894  0.00  0.00    +0.000 A 
ATOM      2  C   UNL     1       2.133   5.022  20.217  0.00  0.00    +0.000 A 
ATOM      3  C   UNL     1       1.936   6.378  20.512  0.00  0.00    +0.000 A 
ATOM      4  C   UNL     1       1.986   7.341  19.498  0.00  0.00    +0.000 A 
ATOM      5  C   UNL     1       2.205   6.925  18.175  0.00  0.00    +0.000 A 
ATOM      6  C   UNL     1       2.405   5.577  17.873  0.00  0.00    +0.000 A 
ENDROOT
BRANCH   1   7
ATOM      7  S   UNL     1       2.660   2.915  18.514  0.00  0.00    +0.000 S 
ATOM      8  O   UNL     1       2.244   2.704  17.142  0.00  0.00    +0.000 OA
ATOM      9  O   UNL     1       2.113   2.114  19.589  0.00  0.00    +0.000 OA
BRANCH   7  10
ATOM     10  N   UNL     1       4.330   2.798  18.519  0.00  0.00    +0.000 N 
ATOM     11  H   UNL     1       4.726   1.862  18.505  0.00  0.00    +0.000 HD
BRANCH  10  16
ATOM     12  C   UNL     1       7.591   7.363  17.412  0.00  0.00    +0.000 C 
ATOM     13  C   UNL     1       6.749   6.158  17.715  0.00  0.00    +0.000 A 
ATOM     14  C   UNL     1       6.497   5.764  19.033  0.00  0.00    +0.000 A 
ATOM     15  C   UNL     1       5.694   4.649  19.296  0.00  0.00    +0.000 A 
ATOM     16  C   UNL     1       5.140   3.923  18.242  0.00  0.00    +0.000 A 
ATOM     17  C   UNL     1       5.406   4.291  16.926  0.00  0.00    +0.000 A 
ATOM     18  C   UNL     1       6.201   5.411  16.664  0.00  0.00    +0.000 A 
ENDBRANCH  10  16
ENDBRANCH   7  10
ENDBRANCH   1   7
BRANCH   4  19
ATOM     19  C   UNL     1       1.758   8.766  19.759  0.00  0.00    +0.000 C 
ATOM     20  C   UNL     1       0.847   9.274  20.609  0.00  0.00    +0.000 C 
BRANCH  20  21
ATOM     21  C   UNL     1       0.749  10.756  20.718  0.00  0.00    +0.000 C 
ATOM     22  O   UNL     1       0.549  11.270  21.809  0.00  0.00    +0.000 OA
ATOM     23  N   UNL     1       0.881  11.414  19.509  0.00  0.00    +0.000 N 
ATOM     24  H   UNL     1       0.855  10.876  18.660  0.00  0.00    +0.000 HD
BRANCH  23  25
ATOM     25  C   UNL     1       0.927  12.828  19.356  0.00  0.00    +0.000 A 
ATOM     26  C   UNL     1       2.110  13.540  19.601  0.00  0.00    +0.000 A 
ATOM     27  C   UNL     1       2.168  14.924  19.487  0.00  0.00    +0.000 A 
ATOM     28  C   UNL     1       1.033  15.630  19.120  0.00  0.00    +0.000 A 
ATOM     29  C   UNL     1      -0.154  14.943  18.864  0.00  0.00    +0.000 A 
ATOM     30  C   UNL     1      -0.219  13.537  18.928  0.00  0.00    +0.000 A 
BRANCH  30  31
ATOM     31  N   UNL     1      -1.489  12.937  18.806  0.00  0.00    +0.000 N 
ATOM     32  H   UNL     1      -1.513  11.978  19.146  0.00  0.00    +0.000 HD
ATOM     33  H   UNL     1      -2.266  13.476  19.158  0.00  0.00    +0.000 HD
ENDBRANCH  30  31
ENDBRANCH  23  25
ENDBRANCH  20  21
ENDBRANCH   4  19
TORSDOF 7
ENDMDL
MODEL 8
REMARK VINA RESULT:      -8.1      2.211      2.653
REMARK  Name = 
REMARK  8 active torsions:
REMARK  status: ('A' for Active; 'I' for Inactive)
REMARK    1  A    between atoms: C_1  and  C_2
REMARK    2  A    between atoms: C_5  and  N_6
REMARK    3  A    between atoms: N_6  and  S_7
REMARK    4  A    between atoms: S_7  and  C_10
REMARK    5  A    between atoms: C_13  and  C_14
REMARK    6  A    between atoms: C_15  and  C_16
REMARK    7  A    between atoms: N_18  and  C_19
REMARK    8  A    between atoms: C_24  and  N_25
REMARK                            x       y       z     vdW  Elec       q    Type
REMARK                         _______ _______ _______ _____ _____    ______ ____
ROOT
ATOM      1  C   UNL     1       2.517   4.722  18.860  0.00  0.00    +0.000 A 
ATOM      2  C   UNL     1       2.490   5.625  17.794  0.00  0.00    +0.000 A 
ATOM      3  C   UNL     1       2.237   6.981  18.040  0.00  0.00    +0.000 A 
ATOM      4  C   UNL     1       1.986   7.432  19.341  0.00  0.00    +0.000 A 
ATOM      5  C   UNL     1       2.022   6.511  20.399  0.00  0.00    +0.000 A 
ATOM      6  C   UNL     1       2.270   5.158  20.162  0.00  0.00    +0.000 A 
ENDROOT
BRANCH   1   7
ATOM      7  S   UNL     1       2.784   2.988  18.553  0.00  0.00    +0.000 S 
ATOM      8  O   UNL     1       2.236   2.699  17.243  0.00  0.00    +0.000 OA
ATOM      9  O   UNL     1       2.347   2.255  19.722  0.00  0.00    +0.000 OA
BRANCH   7  10
ATOM     10  N   UNL     1       4.447   2.863  18.401  0.00  0.00    +0.000 N 
ATOM     11  H   UNL     1       4.828   1.932  18.261  0.00  0.00    +0.000 HD
BRANCH  10  16
ATOM     12  C   UNL     1       7.659   7.501  17.464  0.00  0.00    +0.000 C 
ATOM     13  C   UNL     1       6.830   6.276  17.721  0.00  0.00    +0.000 A 
ATOM     14  C   UNL     1       6.621   5.803  19.021  0.00  0.00    +0.000 A 
ATOM     15  C   UNL     1       5.830   4.672  19.243  0.00  0.00    +0.000 A 
ATOM     16  C   UNL     1       5.245   4.007  18.165  0.00  0.00    +0.000 A 
ATOM     17  C   UNL     1       5.468   4.453  16.866  0.00  0.00    +0.000 A 
ATOM     18  C   UNL     1       6.251   5.590  16.646  0.00  0.00    +0.000 A 
ENDBRANCH  10  16
ENDBRANCH   7  10
ENDBRANCH   1   7
BRANCH   4  19
ATOM     19  C   UNL     1       1.744   8.847  19.646  0.00  0.00    +0.000 C 
ATOM     20  C   UNL     1       1.022   9.700  18.897  0.00  0.00    +0.000 C 
BRANCH  20  21
ATOM     21  C   UNL     1       0.912  11.111  19.364  0.00  0.00    +0.000 C 
ATOM     22  O   UNL     1       0.778  11.344  20.556  0.00  0.00    +0.000 OA
ATOM     23  N   UNL     1       0.956  12.041  18.342  0.00  0.00    +0.000 N 
ATOM     24  H   UNL     1       0.880  11.720  17.392  0.00  0.00    +0.000 HD
BRANCH  23  25
ATOM     25  C   UNL     1       0.973  13.452  18.529  0.00  0.00    +0.000 A 
ATOM     26  C   UNL     1      -0.201  14.148  18.853  0.00  0.00    +0.000 A 
ATOM     27  C   UNL     1      -0.212  15.530  19.010  0.00  0.00    +0.000 A 
ATOM     28  C   UNL     1       0.963  16.248  18.848  0.00  0.00    +0.000 A 
ATOM     29  C   UNL     1       2.145  15.576  18.532  0.00  0.00    +0.000 A 
ATOM     30  C   UNL     1       2.184  14.172  18.416  0.00  0.00    +0.000 A 
BRANCH  30  31
ATOM     31  N   UNL     1       3.379  13.590  17.946  0.00  0.00    +0.000 N 
ATOM     32  H   UNL     1       3.919  13.135  18.679  0.00  0.00    +0.000 HD
ATOM     33  H   UNL     1       3.291  13.004  17.130  0.00  0.00    +0.000 HD
ENDBRANCH  30  31
ENDBRANCH  23  25
ENDBRANCH  20  21
ENDBRANCH   4  19
TORSDOF 7
ENDMDL
MODEL 9
REMARK VINA RESULT:      -8.1      2.170      2.731
REMARK  Name = 
REMARK  8 active torsions:
REMARK  status: ('A' for Active; 'I' for Inactive)
REMARK    1  A    between atoms: C_1  and  C_2
REMARK    2  A    between atoms: C_5  and  N_6
REMARK    3  A    between atoms: N_6  and  S_7
REMARK    4  A    between atoms: S_7  and  C_10
REMARK    5  A    between atoms: C_13  and  C_14
REMARK    6  A    between atoms: C_15  and  C_16
REMARK    7  A    between atoms: N_18  and  C_19
REMARK    8  A    between atoms: C_24  and  N_25
REMARK                            x       y       z     vdW  Elec       q    Type
REMARK                         _______ _______ _______ _____ _____    ______ ____
ROOT
ATOM      1  C   UNL     1       2.361   4.688  18.893  0.00  0.00    +0.000 A 
ATOM      2  C   UNL     1       2.149   5.108  20.209  0.00  0.00    +0.000 A 
ATOM      3  C   UNL     1       1.968   6.470  20.482  0.00  0.00    +0.000 A 
ATOM      4  C   UNL     1       2.023   7.415  19.451  0.00  0.00    +0.000 A 
ATOM      5  C   UNL     1       2.232   6.974  18.134  0.00  0.00    +0.000 A 
ATOM      6  C   UNL     1       2.417   5.619  17.855  0.00  0.00    +0.000 A 
ENDROOT
BRANCH   1   7
ATOM      7  S   UNL     1       2.645   2.965  18.542  0.00  0.00    +0.000 S 
ATOM      8  O   UNL     1       2.223   2.736  17.175  0.00  0.00    +0.000 OA
ATOM      9  O   UNL     1       2.094   2.190  19.633  0.00  0.00    +0.000 OA
BRANCH   7  10
ATOM     10  N   UNL     1       4.314   2.830  18.544  0.00  0.00    +0.000 N 
ATOM     11  H   UNL     1       4.701   1.891  18.521  0.00  0.00    +0.000 HD
BRANCH  10  16
ATOM     12  C   UNL     1       7.652   7.340  17.437  0.00  0.00    +0.000 C 
ATOM     13  C   UNL     1       6.763   6.163  17.715  0.00  0.00    +0.000 A 
ATOM     14  C   UNL     1       6.184   5.431  16.673  0.00  0.00    +0.000 A 
ATOM     15  C   UNL     1       5.373   4.326  16.952  0.00  0.00    +0.000 A 
ATOM     16  C   UNL     1       5.136   3.949  18.274  0.00  0.00    +0.000 A 
ATOM     17  C   UNL     1       5.685   4.687  19.318  0.00  0.00    +0.000 A 
ATOM     18  C   UNL     1       6.503   5.785  19.039  0.00  0.00    +0.000 A 
ENDBRANCH  10  16
ENDBRANCH   7  10
ENDBRANCH   1   7
BRANCH   4  19
ATOM     19  C   UNL     1       1.812   8.847  19.688  0.00  0.00    +0.000 C 
ATOM     20  C   UNL     1       0.727   9.553  19.320  0.00  0.00    +0.000 C 
BRANCH  20  21
ATOM     21  C   UNL     1       0.709  11.010  19.629  0.00  0.00    +0.000 C 
ATOM     22  O   UNL     1       0.537  11.381  20.781  0.00  0.00    +0.000 OA
ATOM     23  N   UNL     1       0.875  11.817  18.519  0.00  0.00    +0.000 N 
ATOM     24  H   UNL     1       0.820  11.401  17.605  0.00  0.00    +0.000 HD
BRANCH  23  25
ATOM     25  C   UNL     1       0.997  13.234  18.557  0.00  0.00    +0.000 A 
ATOM     26  C   UNL     1       2.246  13.854  18.396  0.00  0.00    +0.000 A 
ATOM     27  C   UNL     1       2.391  15.235  18.462  0.00  0.00    +0.000 A 
ATOM     28  C   UNL     1       1.280  16.032  18.689  0.00  0.00    +0.000 A 
ATOM     29  C   UNL     1       0.026  15.439  18.845  0.00  0.00    +0.000 A 
ATOM     30  C   UNL     1      -0.147  14.045  18.735  0.00  0.00    +0.000 A 
BRANCH  30  31
ATOM     31  N   UNL     1      -1.415  13.518  19.058  0.00  0.00    +0.000 N 
ATOM     32  H   UNL     1      -1.501  12.526  18.849  0.00  0.00    +0.000 HD
ATOM     33  H   UNL     1      -1.759  13.737  19.981  0.00  0.00    +0.000 HD
ENDBRANCH  30  31
ENDBRANCH  23  25
ENDBRANCH  20  21
ENDBRANCH   4  19
TORSDOF 7
ENDMDL
