MODEL 1
REMARK VINA RESULT:      -8.6      0.000      0.000
REMARK  Name = 
REMARK  6 active torsions:
REMARK  status: ('A' for Active; 'I' for Inactive)
REMARK    1  A    between atoms: C_1  and  O_2
REMARK    2  A    between atoms: O_2  and  C_3
REMARK    3  A    between atoms: C_6  and  S_7
REMARK    4  A    between atoms: S_7  and  N_10
REMARK    5  A    between atoms: C_17  and  C_18
REMARK    6  A    between atoms: C_21  and  C_22
REMARK                            x       y       z     vdW  Elec       q    Type
REMARK                         _______ _______ _______ _____ _____    ______ ____
ROOT
ATOM      1  N   UNL     1       4.030   3.732  17.737  0.00  0.00    +0.000 N 
ATOM      2  C   UNL     1       4.150   2.352  17.759  0.00  0.00    +0.000 A 
ATOM      3  C   UNL     1       2.921   1.868  18.062  0.00  0.00    +0.000 A 
ATOM      4  C   UNL     1       2.398   2.856  18.917  0.00  0.00    +0.000 A 
ATOM      5  C   UNL     1       1.471   2.623  19.945  0.00  0.00    +0.000 A 
ATOM      6  C   UNL     1       1.143   3.623  20.807  0.00  0.00    +0.000 A 
ATOM      7  C   UNL     1       1.557   4.897  20.488  0.00  0.00    +0.000 A 
ATOM      8  C   UNL     1       2.429   5.297  19.390  0.00  0.00    +0.000 A 
ATOM      9  C   UNL     1       3.007   4.148  18.659  0.00  0.00    +0.000 A 
ENDROOT
BRANCH   8  10
ATOM     10  C   UNL     1       2.446   6.827  19.307  0.00  0.00    +0.000 A 
ATOM     11  C   UNL     1       1.839   7.588  20.363  0.00  0.00    +0.000 A 
ATOM     12  C   UNL     1       1.273   8.883  20.202  0.00  0.00    +0.000 A 
ATOM     13  C   UNL     1       1.356   9.538  18.981  0.00  0.00    +0.000 A 
ATOM     14  C   UNL     1       1.998   8.862  17.937  0.00  0.00    +0.000 A 
ATOM     15  C   UNL     1       2.518   7.531  18.092  0.00  0.00    +0.000 A 
BRANCH  13  16
ATOM     16  C   UNL     1       0.751  10.859  18.794  0.00  0.00    +0.000 C 
ATOM     17  N   UNL     1       0.271  11.911  18.632  0.00  0.00    +0.000 NA
ENDBRANCH  13  16
ENDBRANCH   8  10
BRANCH   1  18
ATOM     18  S   UNL     1       5.088   4.439  16.563  0.00  0.00    +0.000 S 
ATOM     19  O   UNL     1       4.260   5.178  15.635  0.00  0.00    +0.000 OA
ATOM     20  O   UNL     1       5.935   3.335  16.125  0.00  0.00    +0.000 OA
BRANCH  18  24
ATOM     21  C   UNL     1       8.034   7.462  18.510  0.00  0.00    +0.000 A 
ATOM     22  C   UNL     1       7.172   7.793  17.461  0.00  0.00    +0.000 A 
ATOM     23  C   UNL     1       6.248   6.880  16.933  0.00  0.00    +0.000 A 
ATOM     24  C   UNL     1       6.184   5.593  17.437  0.00  0.00    +0.000 A 
ATOM     25  C   UNL     1       7.045   5.232  18.508  0.00  0.00    +0.000 A 
ATOM     26  C   UNL     1       7.967   6.176  19.049  0.00  0.00    +0.000 A 
BRANCH  21  28
ATOM     27  C   UNL     1       8.672   9.782  18.361  0.00  0.00    +0.000 C 
ATOM     28  O   UNL     1       8.919   8.458  18.811  0.00  0.00    +0.000 OA
ENDBRANCH  21  28
ENDBRANCH  18  24
ENDBRANCH   1  18
TORSDOF 5
ENDMDL
MODEL 2
REMARK VINA RESULT:      -8.6      2.238      3.488
REMARK  Name = 
REMARK  6 active torsions:
REMARK  status: ('A' for Active; 'I' for Inactive)
REMARK    1  A    between atoms: C_1  and  O_2
REMARK    2  A    between atoms: O_2  and  C_3
REMARK    3  A    between atoms: C_6  and  S_7
REMARK    4  A    between atoms: S_7  and  N_10
REMARK    5  A    between atoms: C_17  and  C_18
REMARK    6  A    between atoms: C_21  and  C_22
REMARK                            x       y       z     vdW  Elec       q    Type
REMARK                         _______ _______ _______ _____ _____    ______ ____
ROOT
ATOM      1  N   UNL     1       4.745   4.341  18.845  0.00  0.00    +0.000 N 
ATOM      2  C   UNL     1       5.003   2.987  18.977  0.00  0.00    +0.000 A 
ATOM      3  C   UNL     1       3.821   2.353  18.781  0.00  0.00    +0.000 A 
ATOM      4  C   UNL     1       2.888   3.265  19.308  0.00  0.00    +0.000 A 
ATOM      5  C   UNL     1       1.657   2.914  19.885  0.00  0.00    +0.000 A 
ATOM      6  C   UNL     1       0.896   3.861  20.497  0.00  0.00    +0.000 A 
ATOM      7  C   UNL     1       1.254   5.178  20.314  0.00  0.00    +0.000 A 
ATOM      8  C   UNL     1       2.444   5.688  19.643  0.00  0.00    +0.000 A 
ATOM      9  C   UNL     1       3.396   4.623  19.258  0.00  0.00    +0.000 A 
ENDROOT
BRANCH   8  10
ATOM     10  C   UNL     1       2.316   7.209  19.503  0.00  0.00    +0.000 A 
ATOM     11  C   UNL     1       1.609   7.943  20.515  0.00  0.00    +0.000 A 
ATOM     12  C   UNL     1       0.927   9.172  20.292  0.00  0.00    +0.000 A 
ATOM     13  C   UNL     1       0.983   9.790  19.051  0.00  0.00    +0.000 A 
ATOM     14  C   UNL     1       1.717   9.144  18.049  0.00  0.00    +0.000 A 
ATOM     15  C   UNL     1       2.357   7.875  18.265  0.00  0.00    +0.000 A 
BRANCH  13  16
ATOM     16  C   UNL     1       0.260  11.039  18.799  0.00  0.00    +0.000 C 
ATOM     17  N   UNL     1      -0.312  12.035  18.586  0.00  0.00    +0.000 NA
ENDBRANCH  13  16
ENDBRANCH   8  10
BRANCH   1  18
ATOM     18  S   UNL     1       6.098   5.180  18.165  0.00  0.00    +0.000 S 
ATOM     19  O   UNL     1       7.290   4.635  18.778  0.00  0.00    +0.000 OA
ATOM     20  O   UNL     1       5.748   6.593  18.289  0.00  0.00    +0.000 OA
BRANCH  18  24
ATOM     21  C   UNL     1       6.106   3.958  13.680  0.00  0.00    +0.000 A 
ATOM     22  C   UNL     1       5.036   3.710  14.545  0.00  0.00    +0.000 A 
ATOM     23  C   UNL     1       5.032   4.145  15.877  0.00  0.00    +0.000 A 
ATOM     24  C   UNL     1       6.125   4.826  16.384  0.00  0.00    +0.000 A 
ATOM     25  C   UNL     1       7.224   5.097  15.526  0.00  0.00    +0.000 A 
ATOM     26  C   UNL     1       7.206   4.666  14.166  0.00  0.00    +0.000 A 
BRANCH  21  28
ATOM     27  C   UNL     1       4.672   3.330  11.847  0.00  0.00    +0.000 C 
ATOM     28  O   UNL     1       5.954   3.370  12.457  0.00  0.00    +0.000 OA
ENDBRANCH  21  28
ENDBRANCH  18  24
ENDBRANCH   1  18
TORSDOF 5
ENDMDL
MODEL 3
REMARK VINA RESULT:      -8.3      2.403      3.566
REMARK  Name = 
REMARK  6 active torsions:
REMARK  status: ('A' for Active; 'I' for Inactive)
REMARK    1  A    between atoms: C_1  and  O_2
REMARK    2  A    between atoms: O_2  and  C_3
REMARK    3  A    between atoms: C_6  and  S_7
REMARK    4  A    between atoms: S_7  and  N_10
REMARK    5  A    between atoms: C_17  and  C_18
REMARK    6  A    between atoms: C_21  and  C_22
REMARK                            x       y       z     vdW  Elec       q    Type
REMARK                         _______ _______ _______ _____ _____    ______ ____
ROOT
ATOM      1  N   UNL     1       4.809   4.976  18.689  0.00  0.00    +0.000 N 
ATOM      2  C   UNL     1       5.241   3.674  18.887  0.00  0.00    +0.000 A 
ATOM      3  C   UNL     1       4.125   2.906  18.933  0.00  0.00    +0.000 A 
ATOM      4  C   UNL     1       3.179   3.764  19.525  0.00  0.00    +0.000 A 
ATOM      5  C   UNL     1       2.098   3.346  20.317  0.00  0.00    +0.000 A 
ATOM      6  C   UNL     1       1.330   4.264  20.962  0.00  0.00    +0.000 A 
ATOM      7  C   UNL     1       1.500   5.587  20.620  0.00  0.00    +0.000 A 
ATOM      8  C   UNL     1       2.509   6.149  19.729  0.00  0.00    +0.000 A 
ATOM      9  C   UNL     1       3.512   5.156  19.286  0.00  0.00    +0.000 A 
ENDROOT
BRANCH   8  10
ATOM     10  C   UNL     1       2.185   7.628  19.489  0.00  0.00    +0.000 A 
ATOM     11  C   UNL     1       1.433   8.345  20.481  0.00  0.00    +0.000 A 
ATOM     12  C   UNL     1       0.593   9.459  20.206  0.00  0.00    +0.000 A 
ATOM     13  C   UNL     1       0.520   9.983  18.923  0.00  0.00    +0.000 A 
ATOM     14  C   UNL     1       1.288   9.358  17.934  0.00  0.00    +0.000 A 
ATOM     15  C   UNL     1       2.091   8.197  18.207  0.00  0.00    +0.000 A 
BRANCH  13  16
ATOM     16  C   UNL     1      -0.365  11.111  18.620  0.00  0.00    +0.000 C 
ATOM     17  N   UNL     1      -1.063  12.017  18.387  0.00  0.00    +0.000 NA
ENDBRANCH  13  16
ENDBRANCH   8  10
BRANCH   1  18
ATOM     18  S   UNL     1       5.938   5.879  17.739  0.00  0.00    +0.000 S 
ATOM     19  O   UNL     1       7.213   5.821  18.421  0.00  0.00    +0.000 OA
ATOM     20  O   UNL     1       5.263   7.148  17.480  0.00  0.00    +0.000 OA
BRANCH  18  24
ATOM     21  C   UNL     1       6.395   4.059  13.486  0.00  0.00    +0.000 A 
ATOM     22  C   UNL     1       7.414   4.758  14.139  0.00  0.00    +0.000 A 
ATOM     23  C   UNL     1       7.273   5.243  15.446  0.00  0.00    +0.000 A 
ATOM     24  C   UNL     1       6.083   5.054  16.128  0.00  0.00    +0.000 A 
ATOM     25  C   UNL     1       5.032   4.341  15.489  0.00  0.00    +0.000 A 
ATOM     26  C   UNL     1       5.197   3.836  14.166  0.00  0.00    +0.000 A 
BRANCH  21  28
ATOM     27  C   UNL     1       6.189   2.569  11.601  0.00  0.00    +0.000 C 
ATOM     28  O   UNL     1       6.698   3.758  12.188  0.00  0.00    +0.000 OA
ENDBRANCH  21  28
ENDBRANCH  18  24
ENDBRANCH   1  18
TORSDOF 5
ENDMDL
MODEL 4
REMARK VINA RESULT:      -7.7      0.549      1.053
REMARK  Name = 
REMARK  6 active torsions:
REMARK  status: ('A' for Active; 'I' for Inactive)
REMARK    1  A    between atoms: C_1  and  O_2
REMARK    2  A    between atoms: O_2  and  C_3
REMARK    3  A    between atoms: C_6  and  S_7
REMARK    4  A    between atoms: S_7  and  N_10
REMARK    5  A    between atoms: C_17  and  C_18
REMARK    6  A    between atoms: C_21  and  C_22
REMARK                            x       y       z     vdW  Elec       q    Type
REMARK                         _______ _______ _______ _____ _____    ______ ____
ROOT
ATOM      1  N   UNL     1       4.070   3.397  17.904  0.00  0.00    +0.000 N 
ATOM      2  C   UNL     1       4.274   2.034  18.038  0.00  0.00    +0.000 A 
ATOM      3  C   UNL     1       3.149   1.536  18.608  0.00  0.00    +0.000 A 
ATOM      4  C   UNL     1       2.731   2.588  19.444  0.00  0.00    +0.000 A 
ATOM      5  C   UNL     1       2.018   2.428  20.643  0.00  0.00    +0.000 A 
ATOM      6  C   UNL     1       1.792   3.500  21.449  0.00  0.00    +0.000 A 
ATOM      7  C   UNL     1       2.066   4.749  20.937  0.00  0.00    +0.000 A 
ATOM      8  C   UNL     1       2.702   5.064  19.664  0.00  0.00    +0.000 A 
ATOM      9  C   UNL     1       3.206   3.868  18.954  0.00  0.00    +0.000 A 
ENDROOT
BRANCH   8  10
ATOM     10  C   UNL     1       2.612   6.576  19.429  0.00  0.00    +0.000 A 
ATOM     11  C   UNL     1       2.057   7.408  20.460  0.00  0.00    +0.000 A 
ATOM     12  C   UNL     1       1.397   8.646  20.229  0.00  0.00    +0.000 A 
ATOM     13  C   UNL     1       1.325   9.175  18.948  0.00  0.00    +0.000 A 
ATOM     14  C   UNL     1       1.912   8.431  17.918  0.00  0.00    +0.000 A 
ATOM     15  C   UNL     1       2.528   7.154  18.150  0.00  0.00    +0.000 A 
BRANCH  13  16
ATOM     16  C   UNL     1       0.622  10.434  18.692  0.00  0.00    +0.000 C 
ATOM     17  N   UNL     1       0.072  11.443  18.483  0.00  0.00    +0.000 NA
ENDBRANCH  13  16
ENDBRANCH   8  10
BRANCH   1  18
ATOM     18  S   UNL     1       4.856   4.018  16.492  0.00  0.00    +0.000 S 
ATOM     19  O   UNL     1       3.832   4.610  15.659  0.00  0.00    +0.000 OA
ATOM     20  O   UNL     1       5.684   2.912  16.021  0.00  0.00    +0.000 OA
BRANCH  18  24
ATOM     21  C   UNL     1       7.751   7.238  18.183  0.00  0.00    +0.000 A 
ATOM     22  C   UNL     1       7.863   5.874  18.470  0.00  0.00    +0.000 A 
ATOM     23  C   UNL     1       7.015   4.916  17.897  0.00  0.00    +0.000 A 
ATOM     24  C   UNL     1       6.011   5.312  17.031  0.00  0.00    +0.000 A 
ATOM     25  C   UNL     1       5.879   6.691  16.717  0.00  0.00    +0.000 A 
ATOM     26  C   UNL     1       6.761   7.654  17.292  0.00  0.00    +0.000 A 
BRANCH  21  28
ATOM     27  C   UNL     1       8.789   9.379  18.577  0.00  0.00    +0.000 C 
ATOM     28  O   UNL     1       8.607   8.012  18.916  0.00  0.00    +0.000 OA
ENDBRANCH  21  28
ENDBRANCH  18  24
ENDBRANCH   1  18
TORSDOF 5
ENDMDL
MODEL 5
REMARK VINA RESULT:      -7.6      1.086      1.246
REMARK  Name = 
REMARK  6 active torsions:
REMARK  status: ('A' for Active; 'I' for Inactive)
REMARK    1  A    between atoms: C_1  and  O_2
REMARK    2  A    between atoms: O_2  and  C_3
REMARK    3  A    between atoms: C_6  and  S_7
REMARK    4  A    between atoms: S_7  and  N_10
REMARK    5  A    between atoms: C_17  and  C_18
REMARK    6  A    between atoms: C_21  and  C_22
REMARK                            x       y       z     vdW  Elec       q    Type
REMARK                         _______ _______ _______ _____ _____    ______ ____
ROOT
ATOM      1  N   UNL     1       4.700   4.912  17.115  0.00  0.00    +0.000 N 
ATOM      2  C   UNL     1       5.046   3.578  16.970  0.00  0.00    +0.000 A 
ATOM      3  C   UNL     1       3.896   2.871  17.096  0.00  0.00    +0.000 A 
ATOM      4  C   UNL     1       3.160   3.635  18.021  0.00  0.00    +0.000 A 
ATOM      5  C   UNL     1       2.217   3.117  18.922  0.00  0.00    +0.000 A 
ATOM      6  C   UNL     1       1.669   3.920  19.874  0.00  0.00    +0.000 A 
ATOM      7  C   UNL     1       1.886   5.275  19.761  0.00  0.00    +0.000 A 
ATOM      8  C   UNL     1       2.752   5.958  18.807  0.00  0.00    +0.000 A 
ATOM      9  C   UNL     1       3.561   5.029  17.988  0.00  0.00    +0.000 A 
ENDROOT
BRANCH   8  10
ATOM     10  C   UNL     1       2.519   7.468  18.923  0.00  0.00    +0.000 A 
ATOM     11  C   UNL     1       1.786   7.974  20.050  0.00  0.00    +0.000 A 
ATOM     12  C   UNL     1       1.018   9.171  20.040  0.00  0.00    +0.000 A 
ATOM     13  C   UNL     1       1.005   9.988  18.918  0.00  0.00    +0.000 A 
ATOM     14  C   UNL     1       1.760   9.570  17.816  0.00  0.00    +0.000 A 
ATOM     15  C   UNL     1       2.489   8.331  17.813  0.00  0.00    +0.000 A 
BRANCH  13  16
ATOM     16  C   UNL     1       0.195  11.208  18.884  0.00  0.00    +0.000 C 
ATOM     17  N   UNL     1      -0.460  12.174  18.851  0.00  0.00    +0.000 NA
ENDBRANCH  13  16
ENDBRANCH   8  10
BRANCH   1  18
ATOM     18  S   UNL     1       5.702   5.935  16.143  0.00  0.00    +0.000 S 
ATOM     19  O   UNL     1       4.824   6.824  15.414  0.00  0.00    +0.000 OA
ATOM     20  O   UNL     1       6.604   5.014  15.457  0.00  0.00    +0.000 OA
BRANCH  18  24
ATOM     21  C   UNL     1       8.522   8.552  18.752  0.00  0.00    +0.000 A 
ATOM     22  C   UNL     1       7.709   9.069  17.738  0.00  0.00    +0.000 A 
ATOM     23  C   UNL     1       6.821   8.268  17.008  0.00  0.00    +0.000 A 
ATOM     24  C   UNL     1       6.743   6.911  17.266  0.00  0.00    +0.000 A 
ATOM     25  C   UNL     1       7.555   6.360  18.295  0.00  0.00    +0.000 A 
ATOM     26  C   UNL     1       8.440   7.191  19.044  0.00  0.00    +0.000 A 
BRANCH  21  28
ATOM     27  C   UNL     1       9.554  10.728  18.621  0.00  0.00    +0.000 C 
ATOM     28  O   UNL     1       9.382   9.478  19.273  0.00  0.00    +0.000 OA
ENDBRANCH  21  28
ENDBRANCH  18  24
ENDBRANCH   1  18
TORSDOF 5
ENDMDL
MODEL 6
REMARK VINA RESULT:      -7.4      2.643      3.818
REMARK  Name = 
REMARK  6 active torsions:
REMARK  status: ('A' for Active; 'I' for Inactive)
REMARK    1  A    between atoms: C_1  and  O_2
REMARK    2  A    between atoms: O_2  and  C_3
REMARK    3  A    between atoms: C_6  and  S_7
REMARK    4  A    between atoms: S_7  and  N_10
REMARK    5  A    between atoms: C_17  and  C_18
REMARK    6  A    between atoms: C_21  and  C_22
REMARK                            x       y       z     vdW  Elec       q    Type
REMARK                         _______ _______ _______ _____ _____    ______ ____
ROOT
ATOM      1  N   UNL     1       4.588   4.998  17.714  0.00  0.00    +0.000 N 
ATOM      2  C   UNL     1       4.999   3.678  17.636  0.00  0.00    +0.000 A 
ATOM      3  C   UNL     1       3.881   2.923  17.764  0.00  0.00    +0.000 A 
ATOM      4  C   UNL     1       3.084   3.689  18.635  0.00  0.00    +0.000 A 
ATOM      5  C   UNL     1       2.142   3.165  19.534  0.00  0.00    +0.000 A 
ATOM      6  C   UNL     1       1.532   3.982  20.436  0.00  0.00    +0.000 A 
ATOM      7  C   UNL     1       1.689   5.339  20.269  0.00  0.00    +0.000 A 
ATOM      8  C   UNL     1       2.548   6.021  19.309  0.00  0.00    +0.000 A 
ATOM      9  C   UNL     1       3.422   5.098  18.552  0.00  0.00    +0.000 A 
ENDROOT
BRANCH   8  10
ATOM     10  C   UNL     1       2.243   7.523  19.353  0.00  0.00    +0.000 A 
ATOM     11  C   UNL     1       1.595   8.066  20.515  0.00  0.00    +0.000 A 
ATOM     12  C   UNL     1       0.763   9.220  20.508  0.00  0.00    +0.000 A 
ATOM     13  C   UNL     1       0.594   9.957  19.344  0.00  0.00    +0.000 A 
ATOM     14  C   UNL     1       1.260   9.503  18.200  0.00  0.00    +0.000 A 
ATOM     15  C   UNL     1       2.054   8.305  18.200  0.00  0.00    +0.000 A 
BRANCH  13  16
ATOM     16  C   UNL     1      -0.284  11.129  19.317  0.00  0.00    +0.000 C 
ATOM     17  N   UNL     1      -0.994  12.056  19.295  0.00  0.00    +0.000 NA
ENDBRANCH  13  16
ENDBRANCH   8  10
BRANCH   1  18
ATOM     18  S   UNL     1       5.567   6.026  16.724  0.00  0.00    +0.000 S 
ATOM     19  O   UNL     1       6.826   6.209  17.414  0.00  0.00    +0.000 OA
ATOM     20  O   UNL     1       4.699   7.153  16.400  0.00  0.00    +0.000 OA
BRANCH  18  24
ATOM     21  C   UNL     1       6.177   3.540  12.844  0.00  0.00    +0.000 A 
ATOM     22  C   UNL     1       4.926   3.766  13.427  0.00  0.00    +0.000 A 
ATOM     23  C   UNL     1       4.762   4.571  14.562  0.00  0.00    +0.000 A 
ATOM     24  C   UNL     1       5.865   5.158  15.158  0.00  0.00    +0.000 A 
ATOM     25  C   UNL     1       7.147   4.950  14.582  0.00  0.00    +0.000 A 
ATOM     26  C   UNL     1       7.298   4.143  13.415  0.00  0.00    +0.000 A 
BRANCH  21  28
ATOM     27  C   UNL     1       7.340   2.182  11.227  0.00  0.00    +0.000 C 
ATOM     28  O   UNL     1       6.132   2.652  11.806  0.00  0.00    +0.000 OA
ENDBRANCH  21  28
ENDBRANCH  18  24
ENDBRANCH   1  18
TORSDOF 5
ENDMDL
MODEL 7
REMARK VINA RESULT:      -7.4      2.367      3.681
REMARK  Name = 
REMARK  6 active torsions:
REMARK  status: ('A' for Active; 'I' for Inactive)
REMARK    1  A    between atoms: C_1  and  O_2
REMARK    2  A    between atoms: O_2  and  C_3
REMARK    3  A    between atoms: C_6  and  S_7
REMARK    4  A    between atoms: S_7  and  N_10
REMARK    5  A    between atoms: C_17  and  C_18
REMARK    6  A    between atoms: C_21  and  C_22
REMARK                            x       y       z     vdW  Elec       q    Type
REMARK                         _______ _______ _______ _____ _____    ______ ____
ROOT
ATOM      1  N   UNL     1       4.849   5.102  18.817  0.00  0.00    +0.000 N 
ATOM      2  C   UNL     1       5.535   3.942  19.135  0.00  0.00    +0.000 A 
ATOM      3  C   UNL     1       4.596   2.977  19.296  0.00  0.00    +0.000 A 
ATOM      4  C   UNL     1       3.505   3.689  19.826  0.00  0.00    +0.000 A 
ATOM      5  C   UNL     1       2.538   3.153  20.690  0.00  0.00    +0.000 A 
ATOM      6  C   UNL     1       1.608   3.965  21.262  0.00  0.00    +0.000 A 
ATOM      7  C   UNL     1       1.506   5.251  20.779  0.00  0.00    +0.000 A 
ATOM      8  C   UNL     1       2.372   5.902  19.803  0.00  0.00    +0.000 A 
ATOM      9  C   UNL     1       3.549   5.085  19.433  0.00  0.00    +0.000 A 
ENDROOT
BRANCH   8  10
ATOM     10  C   UNL     1       1.756   7.253  19.422  0.00  0.00    +0.000 A 
ATOM     11  C   UNL     1       2.064   7.820  18.139  0.00  0.00    +0.000 A 
ATOM     12  C   UNL     1       2.072   9.214  17.855  0.00  0.00    +0.000 A 
ATOM     13  C   UNL     1       1.685  10.130  18.823  0.00  0.00    +0.000 A 
ATOM     14  C   UNL     1       1.311   9.619  20.071  0.00  0.00    +0.000 A 
ATOM     15  C   UNL     1       1.359   8.214  20.369  0.00  0.00    +0.000 A 
BRANCH  13  16
ATOM     16  C   UNL     1       1.717  11.569  18.553  0.00  0.00    +0.000 C 
ATOM     17  N   UNL     1       1.750  12.718  18.347  0.00  0.00    +0.000 NA
ENDBRANCH  13  16
ENDBRANCH   8  10
BRANCH   1  18
ATOM     18  S   UNL     1       5.764   6.104  17.742  0.00  0.00    +0.000 S 
ATOM     19  O   UNL     1       7.067   6.293  18.340  0.00  0.00    +0.000 OA
ATOM     20  O   UNL     1       4.880   7.230  17.454  0.00  0.00    +0.000 OA
BRANCH  18  24
ATOM     21  C   UNL     1       6.322   4.084  13.593  0.00  0.00    +0.000 A 
ATOM     22  C   UNL     1       7.321   4.827  14.229  0.00  0.00    +0.000 A 
ATOM     23  C   UNL     1       7.149   5.373  15.508  0.00  0.00    +0.000 A 
ATOM     24  C   UNL     1       5.949   5.203  16.176  0.00  0.00    +0.000 A 
ATOM     25  C   UNL     1       4.918   4.447  15.555  0.00  0.00    +0.000 A 
ATOM     26  C   UNL     1       5.114   3.880  14.261  0.00  0.00    +0.000 A 
BRANCH  21  28
ATOM     27  C   UNL     1       6.055   2.577  11.729  0.00  0.00    +0.000 C 
ATOM     28  O   UNL     1       6.653   3.723  12.317  0.00  0.00    +0.000 OA
ENDBRANCH  21  28
ENDBRANCH  18  24
ENDBRANCH   1  18
TORSDOF 5
ENDMDL
MODEL 8
REMARK VINA RESULT:      -7.3      6.884     10.588
REMARK  Name = 
REMARK  6 active torsions:
REMARK  status: ('A' for Active; 'I' for Inactive)
REMARK    1  A    between atoms: C_1  and  O_2
REMARK    2  A    between atoms: O_2  and  C_3
REMARK    3  A    between atoms: C_6  and  S_7
REMARK    4  A    between atoms: S_7  and  N_10
REMARK    5  A    between atoms: C_17  and  C_18
REMARK    6  A    between atoms: C_21  and  C_22
REMARK                            x       y       z     vdW  Elec       q    Type
REMARK                         _______ _______ _______ _____ _____    ______ ____
ROOT
ATOM      1  N   UNL     1      -3.172  13.453  23.157  0.00  0.00    +0.000 N 
ATOM      2  C   UNL     1      -3.516  13.697  24.477  0.00  0.00    +0.000 A 
ATOM      3  C   UNL     1      -4.515  12.831  24.776  0.00  0.00    +0.000 A 
ATOM      4  C   UNL     1      -5.201  12.712  23.553  0.00  0.00    +0.000 A 
ATOM      5  C   UNL     1      -6.573  12.444  23.423  0.00  0.00    +0.000 A 
ATOM      6  C   UNL     1      -7.165  12.496  22.199  0.00  0.00    +0.000 A 
ATOM      7  C   UNL     1      -6.341  12.576  21.099  0.00  0.00    +0.000 A 
ATOM      8  C   UNL     1      -4.893  12.746  21.087  0.00  0.00    +0.000 A 
ATOM      9  C   UNL     1      -4.324  12.989  22.431  0.00  0.00    +0.000 A 
ENDROOT
BRANCH   8  10
ATOM     10  C   UNL     1      -4.389  12.575  19.649  0.00  0.00    +0.000 A 
ATOM     11  C   UNL     1      -5.325  12.212  18.623  0.00  0.00    +0.000 A 
ATOM     12  C   UNL     1      -4.990  11.489  17.444  0.00  0.00    +0.000 A 
ATOM     13  C   UNL     1      -3.669  11.156  17.177  0.00  0.00    +0.000 A 
ATOM     14  C   UNL     1      -2.710  11.548  18.118  0.00  0.00    +0.000 A 
ATOM     15  C   UNL     1      -3.063  12.229  19.334  0.00  0.00    +0.000 A 
BRANCH  13  16
ATOM     16  C   UNL     1      -3.314  10.386  15.983  0.00  0.00    +0.000 C 
ATOM     17  N   UNL     1      -3.035   9.781  15.024  0.00  0.00    +0.000 NA
ENDBRANCH  13  16
ENDBRANCH   8  10
BRANCH   1  18
ATOM     18  S   UNL     1      -1.484  13.716  22.884  0.00  0.00    +0.000 S 
ATOM     19  O   UNL     1      -0.897  14.080  24.156  0.00  0.00    +0.000 OA
ATOM     20  O   UNL     1      -1.438  14.613  21.733  0.00  0.00    +0.000 OA
BRANCH  18  24
ATOM     21  C   UNL     1       0.464   9.650  21.752  0.00  0.00    +0.000 A 
ATOM     22  C   UNL     1      -0.463   9.799  22.788  0.00  0.00    +0.000 A 
ATOM     23  C   UNL     1      -1.083  11.024  23.069  0.00  0.00    +0.000 A 
ATOM     24  C   UNL     1      -0.767  12.145  22.322  0.00  0.00    +0.000 A 
ATOM     25  C   UNL     1       0.168  12.021  21.259  0.00  0.00    +0.000 A 
ATOM     26  C   UNL     1       0.778  10.764  20.972  0.00  0.00    +0.000 A 
BRANCH  21  28
ATOM     27  C   UNL     1       1.633   7.946  20.510  0.00  0.00    +0.000 C 
ATOM     28  O   UNL     1       1.022   8.404  21.707  0.00  0.00    +0.000 OA
ENDBRANCH  21  28
ENDBRANCH  18  24
ENDBRANCH   1  18
TORSDOF 5
ENDMDL
MODEL 9
REMARK VINA RESULT:      -7.1      4.964      8.816
REMARK  Name = 
REMARK  6 active torsions:
REMARK  status: ('A' for Active; 'I' for Inactive)
REMARK    1  A    between atoms: C_1  and  O_2
REMARK    2  A    between atoms: O_2  and  C_3
REMARK    3  A    between atoms: C_6  and  S_7
REMARK    4  A    between atoms: S_7  and  N_10
REMARK    5  A    between atoms: C_17  and  C_18
REMARK    6  A    between atoms: C_21  and  C_22
REMARK                            x       y       z     vdW  Elec       q    Type
REMARK                         _______ _______ _______ _____ _____    ______ ____
ROOT
ATOM      1  N   UNL     1      -0.430  13.110  20.447  0.00  0.00    +0.000 N 
ATOM      2  C   UNL     1      -0.051  13.948  21.483  0.00  0.00    +0.000 A 
ATOM      3  C   UNL     1      -0.839  13.628  22.538  0.00  0.00    +0.000 A 
ATOM      4  C   UNL     1      -2.049  13.257  21.924  0.00  0.00    +0.000 A 
ATOM      5  C   UNL     1      -3.321  13.401  22.499  0.00  0.00    +0.000 A 
ATOM      6  C   UNL     1      -4.436  13.147  21.761  0.00  0.00    +0.000 A 
ATOM      7  C   UNL     1      -4.264  12.527  20.544  0.00  0.00    +0.000 A 
ATOM      8  C   UNL     1      -3.004  12.219  19.877  0.00  0.00    +0.000 A 
ATOM      9  C   UNL     1      -1.826  12.781  20.571  0.00  0.00    +0.000 A 
ENDROOT
BRANCH   8  10
ATOM     10  C   UNL     1      -3.298  11.348  18.650  0.00  0.00    +0.000 A 
ATOM     11  C   UNL     1      -2.259  10.501  18.134  0.00  0.00    +0.000 A 
ATOM     12  C   UNL     1      -2.148  10.098  16.774  0.00  0.00    +0.000 A 
ATOM     13  C   UNL     1      -3.125  10.453  15.855  0.00  0.00    +0.000 A 
ATOM     14  C   UNL     1      -4.194  11.224  16.326  0.00  0.00    +0.000 A 
ATOM     15  C   UNL     1      -4.271  11.674  17.689  0.00  0.00    +0.000 A 
BRANCH  13  16
ATOM     16  C   UNL     1      -3.007  10.070  14.446  0.00  0.00    +0.000 C 
ATOM     17  N   UNL     1      -2.925   9.761  13.323  0.00  0.00    +0.000 NA
ENDBRANCH  13  16
ENDBRANCH   8  10
BRANCH   1  18
ATOM     18  S   UNL     1       0.915  12.705  19.435  0.00  0.00    +0.000 S 
ATOM     19  O   UNL     1       2.088  13.318  20.020  0.00  0.00    +0.000 OA
ATOM     20  O   UNL     1       0.468  13.037  18.086  0.00  0.00    +0.000 OA
BRANCH  18  24
ATOM     21  C   UNL     1       1.593   8.120  19.784  0.00  0.00    +0.000 A 
ATOM     22  C   UNL     1       1.099   8.908  20.828  0.00  0.00    +0.000 A 
ATOM     23  C   UNL     1       0.844  10.278  20.678  0.00  0.00    +0.000 A 
ATOM     24  C   UNL     1       1.103  10.900  19.469  0.00  0.00    +0.000 A 
ATOM     25  C   UNL     1       1.600  10.121  18.389  0.00  0.00    +0.000 A 
ATOM     26  C   UNL     1       1.836   8.724  18.550  0.00  0.00    +0.000 A 
BRANCH  21  28
ATOM     27  C   UNL     1       2.803   6.065  19.431  0.00  0.00    +0.000 C 
ATOM     28  O   UNL     1       1.862   6.835  20.164  0.00  0.00    +0.000 OA
ENDBRANCH  21  28
ENDBRANCH  18  24
ENDBRANCH   1  18
TORSDOF 5
ENDMDL
