MODEL 1
REMARK VINA RESULT:      -6.8      0.000      0.000
REMARK  Name = 
REMARK  3 active torsions:
REMARK  status: ('A' for Active; 'I' for Inactive)
REMARK    1  A    between atoms: C_1  and  C_2
REMARK    2  A    between atoms: C_2  and  C_3
REMARK    3  A    between atoms: N_7  and  C_8
REMARK                            x       y       z     vdW  Elec       q    Type
REMARK                         _______ _______ _______ _____ _____    ______ ____
ROOT
ATOM      1  C   UNL     1       2.222   3.584  19.641  0.00  0.00    +0.000 A 
ATOM      2  C   UNL     1       2.007   2.364  19.033  0.00  0.00    +0.000 A 
ATOM      3  S   UNL     1       3.448   1.825  18.275  0.00  0.00    +0.000 S 
ATOM      4  C   UNL     1       4.237   3.288  18.733  0.00  0.00    +0.000 A 
ATOM      5  N   UNL     1       5.523   3.518  18.381  0.00  0.00    +0.000 N 
ATOM      6  N   UNL     1       3.487   4.101  19.446  0.00  0.00    +0.000 NA
ATOM      7  H   UNL     1       6.065   2.756  17.995  0.00  0.00    +0.000 HD
ENDROOT
BRANCH   5   8
ATOM      8  C   UNL     1       6.111   4.792  18.248  0.00  0.00    +0.000 A 
ATOM      9  C   UNL     1       5.589   5.701  17.315  0.00  0.00    +0.000 A 
ATOM     10  C   UNL     1       6.195   6.945  17.112  0.00  0.00    +0.000 A 
ATOM     11  C   UNL     1       7.327   7.296  17.841  0.00  0.00    +0.000 A 
ATOM     12 CL   UNL     1       8.080   8.821  17.588  0.00  0.00    +0.000 Cl
ATOM     13  C   UNL     1       7.858   6.412  18.772  0.00  0.00    +0.000 A 
ATOM     14  C   UNL     1       7.261   5.165  18.959  0.00  0.00    +0.000 A 
ENDBRANCH   5   8
BRANCH   1  16
ATOM     15  C   UNL     1       1.710   5.817  20.645  0.00  0.00    +0.000 C 
ATOM     16  C   UNL     1       1.260   4.377  20.460  0.00  0.00    +0.000 C 
ENDBRANCH   1  16
TORSDOF 2
ENDMDL
MODEL 2
REMARK VINA RESULT:      -6.7      0.311      1.278
REMARK  Name = 
REMARK  3 active torsions:
REMARK  status: ('A' for Active; 'I' for Inactive)
REMARK    1  A    between atoms: C_1  and  C_2
REMARK    2  A    between atoms: C_2  and  C_3
REMARK    3  A    between atoms: N_7  and  C_8
REMARK                            x       y       z     vdW  Elec       q    Type
REMARK                         _______ _______ _______ _____ _____    ______ ____
ROOT
ATOM      1  C   UNL     1       2.175   3.682  19.649  0.00  0.00    +0.000 A 
ATOM      2  C   UNL     1       1.780   2.539  18.984  0.00  0.00    +0.000 A 
ATOM      3  S   UNL     1       3.061   1.959  18.003  0.00  0.00    +0.000 S 
ATOM      4  C   UNL     1       4.025   3.313  18.461  0.00  0.00    +0.000 A 
ATOM      5  N   UNL     1       5.272   3.473  17.960  0.00  0.00    +0.000 N 
ATOM      6  N   UNL     1       3.446   4.116  19.327  0.00  0.00    +0.000 NA
ATOM      7  H   UNL     1       5.692   2.709  17.448  0.00  0.00    +0.000 HD
ENDROOT
BRANCH   5   8
ATOM      8  C   UNL     1       5.947   4.706  17.846  0.00  0.00    +0.000 A 
ATOM      9  C   UNL     1       7.053   4.967  18.668  0.00  0.00    +0.000 A 
ATOM     10  C   UNL     1       7.698   6.208  18.627  0.00  0.00    +0.000 A 
ATOM     11  C   UNL     1       7.248   7.199  17.760  0.00  0.00    +0.000 A 
ATOM     12 CL   UNL     1       8.032   8.728  17.712  0.00  0.00    +0.000 Cl
ATOM     13  C   UNL     1       6.156   6.959  16.935  0.00  0.00    +0.000 A 
ATOM     14  C   UNL     1       5.504   5.727  16.992  0.00  0.00    +0.000 A 
ENDBRANCH   5   8
BRANCH   1  16
ATOM     15  C   UNL     1       1.735   5.954  20.599  0.00  0.00    +0.000 C 
ATOM     16  C   UNL     1       1.397   4.473  20.646  0.00  0.00    +0.000 C 
ENDBRANCH   1  16
TORSDOF 2
ENDMDL
MODEL 3
REMARK VINA RESULT:      -6.6      0.783      1.013
REMARK  Name = 
REMARK  3 active torsions:
REMARK  status: ('A' for Active; 'I' for Inactive)
REMARK    1  A    between atoms: C_1  and  C_2
REMARK    2  A    between atoms: C_2  and  C_3
REMARK    3  A    between atoms: N_7  and  C_8
REMARK                            x       y       z     vdW  Elec       q    Type
REMARK                         _______ _______ _______ _____ _____    ______ ____
ROOT
ATOM      1  C   UNL     1       2.301   3.376  19.581  0.00  0.00    +0.000 A 
ATOM      2  C   UNL     1       1.788   2.460  18.685  0.00  0.00    +0.000 A 
ATOM      3  S   UNL     1       2.927   2.160  17.438  0.00  0.00    +0.000 S 
ATOM      4  C   UNL     1       3.989   3.331  18.126  0.00  0.00    +0.000 A 
ATOM      5  N   UNL     1       5.177   3.614  17.541  0.00  0.00    +0.000 N 
ATOM      6  N   UNL     1       3.542   3.872  19.239  0.00  0.00    +0.000 NA
ATOM      7  H   UNL     1       5.506   3.015  16.796  0.00  0.00    +0.000 HD
ENDROOT
BRANCH   5   8
ATOM      8  C   UNL     1       5.882   4.826  17.685  0.00  0.00    +0.000 A 
ATOM      9  C   UNL     1       5.445   5.966  16.996  0.00  0.00    +0.000 A 
ATOM     10  C   UNL     1       6.165   7.164  17.064  0.00  0.00    +0.000 A 
ATOM     11  C   UNL     1       7.327   7.235  17.825  0.00  0.00    +0.000 A 
ATOM     12 CL   UNL     1       8.221   8.702  17.905  0.00  0.00    +0.000 Cl
ATOM     13  C   UNL     1       7.776   6.118  18.518  0.00  0.00    +0.000 A 
ATOM     14  C   UNL     1       7.065   4.920  18.433  0.00  0.00    +0.000 A 
ENDBRANCH   5   8
BRANCH   1  16
ATOM     15  C   UNL     1       1.515   2.770  21.877  0.00  0.00    +0.000 C 
ATOM     16  C   UNL     1       1.671   3.870  20.840  0.00  0.00    +0.000 C 
ENDBRANCH   1  16
TORSDOF 2
ENDMDL
MODEL 4
REMARK VINA RESULT:      -6.5      3.248      5.876
REMARK  Name = 
REMARK  3 active torsions:
REMARK  status: ('A' for Active; 'I' for Inactive)
REMARK    1  A    between atoms: C_1  and  C_2
REMARK    2  A    between atoms: C_2  and  C_3
REMARK    3  A    between atoms: N_7  and  C_8
REMARK                            x       y       z     vdW  Elec       q    Type
REMARK                         _______ _______ _______ _____ _____    ______ ____
ROOT
ATOM      1  C   UNL     1       6.752   5.736  16.762  0.00  0.00    +0.000 A 
ATOM      2  C   UNL     1       7.156   5.150  15.579  0.00  0.00    +0.000 A 
ATOM      3  S   UNL     1       5.947   4.072  15.017  0.00  0.00    +0.000 S 
ATOM      4  C   UNL     1       5.006   4.393  16.426  0.00  0.00    +0.000 A 
ATOM      5  N   UNL     1       3.819   3.771  16.619  0.00  0.00    +0.000 N 
ATOM      6  N   UNL     1       5.538   5.282  17.236  0.00  0.00    +0.000 NA
ATOM      7  H   UNL     1       3.414   3.248  15.854  0.00  0.00    +0.000 HD
ENDROOT
BRANCH   5   8
ATOM      8  C   UNL     1       3.213   3.554  17.873  0.00  0.00    +0.000 A 
ATOM      9  C   UNL     1       3.910   2.849  18.865  0.00  0.00    +0.000 A 
ATOM     10  C   UNL     1       3.307   2.558  20.094  0.00  0.00    +0.000 A 
ATOM     11  C   UNL     1       2.004   2.973  20.346  0.00  0.00    +0.000 A 
ATOM     12 CL   UNL     1       1.256   2.610  21.851  0.00  0.00    +0.000 Cl
ATOM     13  C   UNL     1       1.297   3.676  19.378  0.00  0.00    +0.000 A 
ATOM     14  C   UNL     1       1.895   3.949  18.147  0.00  0.00    +0.000 A 
ENDBRANCH   5   8
BRANCH   1  16
ATOM     15  C   UNL     1       7.906   6.263  18.918  0.00  0.00    +0.000 C 
ATOM     16  C   UNL     1       7.470   6.776  17.556  0.00  0.00    +0.000 C 
ENDBRANCH   1  16
TORSDOF 2
ENDMDL
MODEL 5
REMARK VINA RESULT:      -6.5      3.234      5.745
REMARK  Name = 
REMARK  3 active torsions:
REMARK  status: ('A' for Active; 'I' for Inactive)
REMARK    1  A    between atoms: C_1  and  C_2
REMARK    2  A    between atoms: C_2  and  C_3
REMARK    3  A    between atoms: N_7  and  C_8
REMARK                            x       y       z     vdW  Elec       q    Type
REMARK                         _______ _______ _______ _____ _____    ______ ____
ROOT
ATOM      1  C   UNL     1       6.725   5.686  16.772  0.00  0.00    +0.000 A 
ATOM      2  C   UNL     1       7.123   5.184  15.550  0.00  0.00    +0.000 A 
ATOM      3  S   UNL     1       5.908   4.154  14.916  0.00  0.00    +0.000 S 
ATOM      4  C   UNL     1       4.972   4.377  16.347  0.00  0.00    +0.000 A 
ATOM      5  N   UNL     1       3.783   3.749  16.499  0.00  0.00    +0.000 N 
ATOM      6  N   UNL     1       5.510   5.205  17.216  0.00  0.00    +0.000 NA
ATOM      7  H   UNL     1       3.374   3.282  15.700  0.00  0.00    +0.000 HD
ENDROOT
BRANCH   5   8
ATOM      8  C   UNL     1       3.180   3.446  17.736  0.00  0.00    +0.000 A 
ATOM      9  C   UNL     1       1.920   3.982  18.042  0.00  0.00    +0.000 A 
ATOM     10  C   UNL     1       1.329   3.755  19.290  0.00  0.00    +0.000 A 
ATOM     11  C   UNL     1       1.989   2.987  20.243  0.00  0.00    +0.000 A 
ATOM     12 CL   UNL     1       1.270   2.714  21.782  0.00  0.00    +0.000 Cl
ATOM     13  C   UNL     1       3.236   2.444  19.960  0.00  0.00    +0.000 A 
ATOM     14  C   UNL     1       3.830   2.687  18.721  0.00  0.00    +0.000 A 
ENDBRANCH   5   8
BRANCH   1  16
ATOM     15  C   UNL     1       7.851   6.065  18.973  0.00  0.00    +0.000 C 
ATOM     16  C   UNL     1       7.449   6.664  17.636  0.00  0.00    +0.000 C 
ENDBRANCH   1  16
TORSDOF 2
ENDMDL
MODEL 6
REMARK VINA RESULT:      -6.3      4.507      6.133
REMARK  Name = 
REMARK  3 active torsions:
REMARK  status: ('A' for Active; 'I' for Inactive)
REMARK    1  A    between atoms: C_1  and  C_2
REMARK    2  A    between atoms: C_2  and  C_3
REMARK    3  A    between atoms: N_7  and  C_8
REMARK                            x       y       z     vdW  Elec       q    Type
REMARK                         _______ _______ _______ _____ _____    ______ ____
ROOT
ATOM      1  C   UNL     1       6.308   3.661  12.512  0.00  0.00    +0.000 A 
ATOM      2  C   UNL     1       7.262   4.386  11.827  0.00  0.00    +0.000 A 
ATOM      3  S   UNL     1       8.115   5.404  12.912  0.00  0.00    +0.000 S 
ATOM      4  C   UNL     1       7.103   4.875  14.204  0.00  0.00    +0.000 A 
ATOM      5  N   UNL     1       7.262   5.372  15.453  0.00  0.00    +0.000 N 
ATOM      6  N   UNL     1       6.221   3.963  13.856  0.00  0.00    +0.000 NA
ATOM      7  H   UNL     1       8.083   5.927  15.654  0.00  0.00    +0.000 HD
ENDROOT
BRANCH   5   8
ATOM      8  C   UNL     1       6.257   5.419  16.439  0.00  0.00    +0.000 A 
ATOM      9  C   UNL     1       5.237   6.378  16.343  0.00  0.00    +0.000 A 
ATOM     10  C   UNL     1       4.267   6.494  17.344  0.00  0.00    +0.000 A 
ATOM     11  C   UNL     1       4.302   5.650  18.450  0.00  0.00    +0.000 A 
ATOM     12 CL   UNL     1       3.116   5.795  19.687  0.00  0.00    +0.000 Cl
ATOM     13  C   UNL     1       5.302   4.691  18.563  0.00  0.00    +0.000 A 
ATOM     14  C   UNL     1       6.278   4.591  17.572  0.00  0.00    +0.000 A 
ENDBRANCH   5   8
BRANCH   1  16
ATOM     15  C   UNL     1       4.163   3.219  11.304  0.00  0.00    +0.000 C 
ATOM     16  C   UNL     1       5.391   2.618  11.967  0.00  0.00    +0.000 C 
ENDBRANCH   1  16
TORSDOF 2
ENDMDL
MODEL 7
REMARK VINA RESULT:      -6.2      4.603      6.323
REMARK  Name = 
REMARK  3 active torsions:
REMARK  status: ('A' for Active; 'I' for Inactive)
REMARK    1  A    between atoms: C_1  and  C_2
REMARK    2  A    between atoms: C_2  and  C_3
REMARK    3  A    between atoms: N_7  and  C_8
REMARK                            x       y       z     vdW  Elec       q    Type
REMARK                         _______ _______ _______ _____ _____    ______ ____
ROOT
ATOM      1  C   UNL     1       6.283   3.618  12.447  0.00  0.00    +0.000 A 
ATOM      2  C   UNL     1       7.312   4.300  11.831  0.00  0.00    +0.000 A 
ATOM      3  S   UNL     1       8.107   5.311  12.965  0.00  0.00    +0.000 S 
ATOM      4  C   UNL     1       6.977   4.839  14.178  0.00  0.00    +0.000 A 
ATOM      5  N   UNL     1       7.050   5.354  15.428  0.00  0.00    +0.000 N 
ATOM      6  N   UNL     1       6.096   3.949  13.774  0.00  0.00    +0.000 NA
ATOM      7  H   UNL     1       7.869   5.887  15.686  0.00  0.00    +0.000 HD
ENDROOT
BRANCH   5   8
ATOM      8  C   UNL     1       5.969   5.452  16.328  0.00  0.00    +0.000 A 
ATOM      9  C   UNL     1       5.571   4.321  17.056  0.00  0.00    +0.000 A 
ATOM     10  C   UNL     1       4.458   4.371  17.903  0.00  0.00    +0.000 A 
ATOM     11  C   UNL     1       3.736   5.553  18.035  0.00  0.00    +0.000 A 
ATOM     12 CL   UNL     1       2.362   5.616  19.068  0.00  0.00    +0.000 Cl
ATOM     13  C   UNL     1       4.115   6.685  17.325  0.00  0.00    +0.000 A 
ATOM     14  C   UNL     1       5.215   6.627  16.467  0.00  0.00    +0.000 A 
ENDBRANCH   5   8
BRANCH   1  16
ATOM     15  C   UNL     1       4.126   3.210  11.248  0.00  0.00    +0.000 C 
ATOM     16  C   UNL     1       5.379   2.594  11.847  0.00  0.00    +0.000 C 
ENDBRANCH   1  16
TORSDOF 2
ENDMDL
MODEL 8
REMARK VINA RESULT:      -6.0      2.311      2.857
REMARK  Name = 
REMARK  3 active torsions:
REMARK  status: ('A' for Active; 'I' for Inactive)
REMARK    1  A    between atoms: C_1  and  C_2
REMARK    2  A    between atoms: C_2  and  C_3
REMARK    3  A    between atoms: N_7  and  C_8
REMARK                            x       y       z     vdW  Elec       q    Type
REMARK                         _______ _______ _______ _____ _____    ______ ____
ROOT
ATOM      1  C   UNL     1       2.273   6.284  20.075  0.00  0.00    +0.000 A 
ATOM      2  C   UNL     1       1.614   5.289  20.768  0.00  0.00    +0.000 A 
ATOM      3  S   UNL     1       2.459   3.805  20.607  0.00  0.00    +0.000 S 
ATOM      4  C   UNL     1       3.596   4.567  19.558  0.00  0.00    +0.000 A 
ATOM      5  N   UNL     1       4.612   3.859  19.010  0.00  0.00    +0.000 N 
ATOM      6  N   UNL     1       3.385   5.853  19.381  0.00  0.00    +0.000 NA
ATOM      7  H   UNL     1       4.793   2.925  19.352  0.00  0.00    +0.000 HD
ENDROOT
BRANCH   5   8
ATOM      8  C   UNL     1       5.279   4.193  17.814  0.00  0.00    +0.000 A 
ATOM      9  C   UNL     1       4.619   4.034  16.587  0.00  0.00    +0.000 A 
ATOM     10  C   UNL     1       5.281   4.291  15.381  0.00  0.00    +0.000 A 
ATOM     11  C   UNL     1       6.606   4.713  15.389  0.00  0.00    +0.000 A 
ATOM     12 CL   UNL     1       7.425   5.022  13.909  0.00  0.00    +0.000 Cl
ATOM     13  C   UNL     1       7.277   4.880  16.595  0.00  0.00    +0.000 A 
ATOM     14  C   UNL     1       6.619   4.606  17.795  0.00  0.00    +0.000 A 
ENDBRANCH   5   8
BRANCH   1  16
ATOM     15  C   UNL     1       1.174   8.207  21.238  0.00  0.00    +0.000 C 
ATOM     16  C   UNL     1       1.918   7.732  20.001  0.00  0.00    +0.000 C 
ENDBRANCH   1  16
TORSDOF 2
ENDMDL
MODEL 9
REMARK VINA RESULT:      -6.0      2.550      3.325
REMARK  Name = 
REMARK  3 active torsions:
REMARK  status: ('A' for Active; 'I' for Inactive)
REMARK    1  A    between atoms: C_1  and  C_2
REMARK    2  A    between atoms: C_2  and  C_3
REMARK    3  A    between atoms: N_7  and  C_8
REMARK                            x       y       z     vdW  Elec       q    Type
REMARK                         _______ _______ _______ _____ _____    ______ ____
ROOT
ATOM      1  C   UNL     1       2.347   6.673  19.687  0.00  0.00    +0.000 A 
ATOM      2  C   UNL     1       1.714   5.801  20.550  0.00  0.00    +0.000 A 
ATOM      3  S   UNL     1       2.574   4.320  20.620  0.00  0.00    +0.000 S 
ATOM      4  C   UNL     1       3.682   4.906  19.435  0.00  0.00    +0.000 A 
ATOM      5  N   UNL     1       4.695   4.126  18.991  0.00  0.00    +0.000 N 
ATOM      6  N   UNL     1       3.451   6.143  19.051  0.00  0.00    +0.000 NA
ATOM      7  H   UNL     1       4.894   3.263  19.480  0.00  0.00    +0.000 HD
ENDROOT
BRANCH   5   8
ATOM      8  C   UNL     1       5.334   4.262  17.742  0.00  0.00    +0.000 A 
ATOM      9  C   UNL     1       6.687   4.628  17.694  0.00  0.00    +0.000 A 
ATOM     10  C   UNL     1       7.328   4.839  16.468  0.00  0.00    +0.000 A 
ATOM     11  C   UNL     1       6.625   4.681  15.279  0.00  0.00    +0.000 A 
ATOM     12 CL   UNL     1       7.407   4.948  13.770  0.00  0.00    +0.000 Cl
ATOM     13  C   UNL     1       5.285   4.316  15.304  0.00  0.00    +0.000 A 
ATOM     14  C   UNL     1       4.644   4.124  16.529  0.00  0.00    +0.000 A 
ENDBRANCH   5   8
BRANCH   1  16
ATOM     15  C   UNL     1       2.102   8.407  17.901  0.00  0.00    +0.000 C 
ATOM     16  C   UNL     1       1.973   8.085  19.381  0.00  0.00    +0.000 C 
ENDBRANCH   1  16
TORSDOF 2
ENDMDL
