MODEL 1
REMARK VINA RESULT:      -6.2      0.000      0.000
REMARK  Name = 
REMARK  21 active torsions:
REMARK  status: ('A' for Active; 'I' for Inactive)
REMARK    1  A    between atoms: C_1  and  C_2
REMARK    2  A    between atoms: C_2  and  C_3
REMARK    3  A    between atoms: C_3  and  C_4
REMARK    4  A    between atoms: C_4  and  C_5
REMARK    5  A    between atoms: C_5  and  C_6
REMARK    6  A    between atoms: C_6  and  C_7
REMARK    7  A    between atoms: C_7  and  C_8
REMARK    8  A    between atoms: C_8  and  C_9
REMARK    9  A    between atoms: C_9  and  C_10
REMARK   10  A    between atoms: C_10  and  C_11
REMARK   11  A    between atoms: C_15  and  C_16
REMARK   12  A    between atoms: C_16  and  C_17
REMARK   13  A    between atoms: C_17  and  C_18
REMARK   14  A    between atoms: C_18  and  S_19
REMARK   15  A    between atoms: S_19  and  C_22
REMARK   16  A    between atoms: C_22  and  C_23
REMARK   17  A    between atoms: C_23  and  C_24
REMARK   18  A    between atoms: C_24  and  N_25
REMARK   19  A    between atoms: N_25  and  C_26
REMARK   20  A    between atoms: N_25  and  C_27
REMARK   21  A    between atoms: N_25  and  C_28
REMARK                            x       y       z     vdW  Elec       q    Type
REMARK                         _______ _______ _______ _____ _____    ______ ____
ROOT
ATOM      1  C   UNL     1       6.755   5.976  18.097  0.00  0.00    +0.000 C 
ATOM      2  C   UNL     1       7.407   5.469  16.795  0.00  0.00    +0.000 C 
ATOM      3  O   UNL     1       7.605   4.407  16.240  0.00  0.00    +0.000 OA
ATOM      4  O   UNL     1       7.821   6.701  16.404  0.00  0.00    +0.000 OA
ATOM      5  C   UNL     1       7.271   7.339  17.594  0.00  0.00    +0.000 C 
ENDROOT
BRANCH   1   6
ATOM      6  C   UNL     1       5.249   5.847  18.232  0.00  0.00    +0.000 C 
BRANCH   6   7
ATOM      7  C   UNL     1       4.537   6.765  17.250  0.00  0.00    +0.000 C 
BRANCH   7   8
ATOM      8  C   UNL     1       3.260   7.309  17.866  0.00  0.00    +0.000 C 
BRANCH   8   9
ATOM      9  C   UNL     1       2.515   6.186  18.564  0.00  0.00    +0.000 C 
BRANCH   9  10
ATOM     10  C   UNL     1       2.096   6.635  19.951  0.00  0.00    +0.000 C 
BRANCH  10  11
ATOM     11  C   UNL     1       1.716   5.431  20.792  0.00  0.00    +0.000 C 
BRANCH  11  12
ATOM     12  C   UNL     1       2.151   4.156  20.090  0.00  0.00    +0.000 C 
BRANCH  12  13
ATOM     13  C   UNL     1       1.023   3.138  20.116  0.00  0.00    +0.000 C 
BRANCH  13  15
ATOM     14  C   UNL     1       2.143   2.560  17.964  0.00  0.00    +0.000 C 
ATOM     15  C   UNL     1       0.846   2.505  18.743  0.00  0.00    +0.000 C 
ENDBRANCH  13  15
ENDBRANCH  12  13
ENDBRANCH  11  12
ENDBRANCH  10  11
ENDBRANCH   9  10
ENDBRANCH   8   9
ENDBRANCH   7   8
ENDBRANCH   6   7
ENDBRANCH   1   6
BRANCH   5  16
ATOM     16  C   UNL     1       8.380   7.978  18.417  0.00  0.00    +0.000 C 
BRANCH  16  17
ATOM     17  C   UNL     1       8.397   9.477  18.147  0.00  0.00    +0.000 C 
BRANCH  17  18
ATOM     18  C   UNL     1       9.134  10.243  19.232  0.00  0.00    +0.000 C 
BRANCH  18  19
ATOM     19  S   UNL     1       9.917  11.682  18.526  0.00  0.00    +0.000 S 
ATOM     20  O   UNL     1      10.438  12.489  19.610  0.00  0.00    +0.000 OA
ATOM     21  O   UNL     1      10.776  11.236  17.444  0.00  0.00    +0.000 OA
BRANCH  19  22
ATOM     22  C   UNL     1       8.579  12.589  17.790  0.00  0.00    +0.000 C 
BRANCH  22  23
ATOM     23  C   UNL     1       8.285  13.768  18.695  0.00  0.00    +0.000 C 
BRANCH  23  24
ATOM     24  C   UNL     1       7.566  14.885  17.971  0.00  0.00    +0.000 C 
BRANCH  24  25
ATOM     25  N   UNL     1       7.414  16.131  18.867  0.00  0.00    +0.000 N 
ATOM     26  C   UNL     1       7.766  15.816  20.316  0.00  0.00    +0.000 C 
ATOM     27  C   UNL     1       8.305  17.256  18.352  0.00  0.00    +0.000 C 
ATOM     28  C   UNL     1       5.967  16.588  18.814  0.00  0.00    +0.000 C 
ENDBRANCH  24  25
ENDBRANCH  23  24
ENDBRANCH  22  23
ENDBRANCH  19  22
ENDBRANCH  18  19
ENDBRANCH  17  18
ENDBRANCH  16  17
ENDBRANCH   5  16
TORSDOF 17
ENDMDL
MODEL 2
REMARK VINA RESULT:      -5.9      1.535      2.272
REMARK  Name = 
REMARK  21 active torsions:
REMARK  status: ('A' for Active; 'I' for Inactive)
REMARK    1  A    between atoms: C_1  and  C_2
REMARK    2  A    between atoms: C_2  and  C_3
REMARK    3  A    between atoms: C_3  and  C_4
REMARK    4  A    between atoms: C_4  and  C_5
REMARK    5  A    between atoms: C_5  and  C_6
REMARK    6  A    between atoms: C_6  and  C_7
REMARK    7  A    between atoms: C_7  and  C_8
REMARK    8  A    between atoms: C_8  and  C_9
REMARK    9  A    between atoms: C_9  and  C_10
REMARK   10  A    between atoms: C_10  and  C_11
REMARK   11  A    between atoms: C_15  and  C_16
REMARK   12  A    between atoms: C_16  and  C_17
REMARK   13  A    between atoms: C_17  and  C_18
REMARK   14  A    between atoms: C_18  and  S_19
REMARK   15  A    between atoms: S_19  and  C_22
REMARK   16  A    between atoms: C_22  and  C_23
REMARK   17  A    between atoms: C_23  and  C_24
REMARK   18  A    between atoms: C_24  and  N_25
REMARK   19  A    between atoms: N_25  and  C_26
REMARK   20  A    between atoms: N_25  and  C_27
REMARK   21  A    between atoms: N_25  and  C_28
REMARK                            x       y       z     vdW  Elec       q    Type
REMARK                         _______ _______ _______ _____ _____    ______ ____
ROOT
ATOM      1  C   UNL     1       6.842   6.697  17.567  0.00  0.00    +0.000 C 
ATOM      2  C   UNL     1       7.363   6.155  18.913  0.00  0.00    +0.000 C 
ATOM      3  O   UNL     1       7.037   5.325  19.737  0.00  0.00    +0.000 OA
ATOM      4  O   UNL     1       8.403   7.024  18.975  0.00  0.00    +0.000 OA
ATOM      5  C   UNL     1       8.036   7.661  17.716  0.00  0.00    +0.000 C 
ENDROOT
BRANCH   1   6
ATOM      6  C   UNL     1       6.886   5.770  16.365  0.00  0.00    +0.000 C 
BRANCH   6   7
ATOM      7  C   UNL     1       6.302   4.408  16.710  0.00  0.00    +0.000 C 
BRANCH   7   8
ATOM      8  C   UNL     1       4.979   4.204  15.994  0.00  0.00    +0.000 C 
BRANCH   8   9
ATOM      9  C   UNL     1       3.897   3.882  17.008  0.00  0.00    +0.000 C 
BRANCH   9  10
ATOM     10  C   UNL     1       3.362   5.166  17.611  0.00  0.00    +0.000 C 
BRANCH  10  11
ATOM     11  C   UNL     1       2.206   4.858  18.543  0.00  0.00    +0.000 C 
BRANCH  11  12
ATOM     12  C   UNL     1       1.566   3.538  18.149  0.00  0.00    +0.000 C 
BRANCH  12  13
ATOM     13  C   UNL     1       0.852   2.928  19.344  0.00  0.00    +0.000 C 
BRANCH  13  15
ATOM     14  C   UNL     1       1.728   2.855  21.678  0.00  0.00    +0.000 C 
ATOM     15  C   UNL     1       1.131   3.739  20.602  0.00  0.00    +0.000 C 
ENDBRANCH  13  15
ENDBRANCH  12  13
ENDBRANCH  11  12
ENDBRANCH  10  11
ENDBRANCH   9  10
ENDBRANCH   8   9
ENDBRANCH   7   8
ENDBRANCH   6   7
ENDBRANCH   1   6
BRANCH   5  16
ATOM     16  C   UNL     1       7.687   9.125  17.941  0.00  0.00    +0.000 C 
BRANCH  16  17
ATOM     17  C   UNL     1       8.943   9.874  18.367  0.00  0.00    +0.000 C 
BRANCH  17  18
ATOM     18  C   UNL     1       8.899  11.337  17.958  0.00  0.00    +0.000 C 
BRANCH  18  19
ATOM     19  S   UNL     1      10.417  12.141  18.440  0.00  0.00    +0.000 S 
ATOM     20  O   UNL     1      11.312  11.134  18.972  0.00  0.00    +0.000 OA
ATOM     21  O   UNL     1      10.828  13.008  17.351  0.00  0.00    +0.000 OA
BRANCH  19  22
ATOM     22  C   UNL     1       9.943  13.191  19.792  0.00  0.00    +0.000 C 
BRANCH  22  23
ATOM     23  C   UNL     1       8.546  13.698  19.498  0.00  0.00    +0.000 C 
BRANCH  23  24
ATOM     24  C   UNL     1       8.351  15.134  19.935  0.00  0.00    +0.000 C 
BRANCH  24  25
ATOM     25  N   UNL     1       7.748  15.989  18.802  0.00  0.00    +0.000 N 
ATOM     26  C   UNL     1       8.792  16.920  18.196  0.00  0.00    +0.000 C 
ATOM     27  C   UNL     1       7.167  15.087  17.719  0.00  0.00    +0.000 C 
ATOM     28  C   UNL     1       6.631  16.838  19.383  0.00  0.00    +0.000 C 
ENDBRANCH  24  25
ENDBRANCH  23  24
ENDBRANCH  22  23
ENDBRANCH  19  22
ENDBRANCH  18  19
ENDBRANCH  17  18
ENDBRANCH  16  17
ENDBRANCH   5  16
TORSDOF 17
ENDMDL
MODEL 3
REMARK VINA RESULT:      -5.9      1.594      2.151
REMARK  Name = 
REMARK  21 active torsions:
REMARK  status: ('A' for Active; 'I' for Inactive)
REMARK    1  A    between atoms: C_1  and  C_2
REMARK    2  A    between atoms: C_2  and  C_3
REMARK    3  A    between atoms: C_3  and  C_4
REMARK    4  A    between atoms: C_4  and  C_5
REMARK    5  A    between atoms: C_5  and  C_6
REMARK    6  A    between atoms: C_6  and  C_7
REMARK    7  A    between atoms: C_7  and  C_8
REMARK    8  A    between atoms: C_8  and  C_9
REMARK    9  A    between atoms: C_9  and  C_10
REMARK   10  A    between atoms: C_10  and  C_11
REMARK   11  A    between atoms: C_15  and  C_16
REMARK   12  A    between atoms: C_16  and  C_17
REMARK   13  A    between atoms: C_17  and  C_18
REMARK   14  A    between atoms: C_18  and  S_19
REMARK   15  A    between atoms: S_19  and  C_22
REMARK   16  A    between atoms: C_22  and  C_23
REMARK   17  A    between atoms: C_23  and  C_24
REMARK   18  A    between atoms: C_24  and  N_25
REMARK   19  A    between atoms: N_25  and  C_26
REMARK   20  A    between atoms: N_25  and  C_27
REMARK   21  A    between atoms: N_25  and  C_28
REMARK                            x       y       z     vdW  Elec       q    Type
REMARK                         _______ _______ _______ _____ _____    ______ ____
ROOT
ATOM      1  C   UNL     1       7.491   5.918  18.174  0.00  0.00    +0.000 C 
ATOM      2  C   UNL     1       7.038   5.397  16.796  0.00  0.00    +0.000 C 
ATOM      3  O   UNL     1       7.003   4.340  16.199  0.00  0.00    +0.000 OA
ATOM      4  O   UNL     1       6.693   6.624  16.333  0.00  0.00    +0.000 OA
ATOM      5  C   UNL     1       7.093   7.281  17.572  0.00  0.00    +0.000 C 
ENDROOT
BRANCH   1   6
ATOM      6  C   UNL     1       6.702   5.477  19.394  0.00  0.00    +0.000 C 
BRANCH   6   7
ATOM      7  C   UNL     1       5.435   4.743  18.982  0.00  0.00    +0.000 C 
BRANCH   7   8
ATOM      8  C   UNL     1       4.211   5.591  19.285  0.00  0.00    +0.000 C 
BRANCH   8   9
ATOM      9  C   UNL     1       3.405   5.792  18.014  0.00  0.00    +0.000 C 
BRANCH   9  10
ATOM     10  C   UNL     1       2.064   5.096  18.144  0.00  0.00    +0.000 C 
BRANCH  10  11
ATOM     11  C   UNL     1       2.136   3.715  17.520  0.00  0.00    +0.000 C 
BRANCH  11  12
ATOM     12  C   UNL     1       1.717   2.668  18.537  0.00  0.00    +0.000 C 
BRANCH  12  13
ATOM     13  C   UNL     1       0.884   3.311  19.632  0.00  0.00    +0.000 C 
BRANCH  13  15
ATOM     14  C   UNL     1       2.266   3.616  21.686  0.00  0.00    +0.000 C 
ATOM     15  C   UNL     1       1.250   2.732  20.991  0.00  0.00    +0.000 C 
ENDBRANCH  13  15
ENDBRANCH  12  13
ENDBRANCH  11  12
ENDBRANCH  10  11
ENDBRANCH   9  10
ENDBRANCH   8   9
ENDBRANCH   7   8
ENDBRANCH   6   7
ENDBRANCH   1   6
BRANCH   5  16
ATOM     16  C   UNL     1       8.233   8.256  17.315  0.00  0.00    +0.000 C 
BRANCH  16  17
ATOM     17  C   UNL     1       8.002   9.515  18.140  0.00  0.00    +0.000 C 
BRANCH  17  18
ATOM     18  C   UNL     1       9.186   9.834  19.036  0.00  0.00    +0.000 C 
BRANCH  18  19
ATOM     19  S   UNL     1       9.713  11.516  18.760  0.00  0.00    +0.000 S 
ATOM     20  O   UNL     1      11.161  11.532  18.706  0.00  0.00    +0.000 OA
ATOM     21  O   UNL     1       8.918  12.060  17.675  0.00  0.00    +0.000 OA
BRANCH  19  22
ATOM     22  C   UNL     1       9.232  12.372  20.240  0.00  0.00    +0.000 C 
BRANCH  22  23
ATOM     23  C   UNL     1       8.714  13.733  19.823  0.00  0.00    +0.000 C 
BRANCH  23  24
ATOM     24  C   UNL     1       8.245  14.557  21.001  0.00  0.00    +0.000 C 
BRANCH  24  25
ATOM     25  N   UNL     1       9.105  15.824  21.181  0.00  0.00    +0.000 N 
ATOM     26  C   UNL     1      10.410  15.509  21.904  0.00  0.00    +0.000 C 
ATOM     27  C   UNL     1       9.405  16.449  19.823  0.00  0.00    +0.000 C 
ATOM     28  C   UNL     1       8.324  16.822  22.018  0.00  0.00    +0.000 C 
ENDBRANCH  24  25
ENDBRANCH  23  24
ENDBRANCH  22  23
ENDBRANCH  19  22
ENDBRANCH  18  19
ENDBRANCH  17  18
ENDBRANCH  16  17
ENDBRANCH   5  16
TORSDOF 17
ENDMDL
MODEL 4
REMARK VINA RESULT:      -5.9      5.649      7.578
REMARK  Name = 
REMARK  21 active torsions:
REMARK  status: ('A' for Active; 'I' for Inactive)
REMARK    1  A    between atoms: C_1  and  C_2
REMARK    2  A    between atoms: C_2  and  C_3
REMARK    3  A    between atoms: C_3  and  C_4
REMARK    4  A    between atoms: C_4  and  C_5
REMARK    5  A    between atoms: C_5  and  C_6
REMARK    6  A    between atoms: C_6  and  C_7
REMARK    7  A    between atoms: C_7  and  C_8
REMARK    8  A    between atoms: C_8  and  C_9
REMARK    9  A    between atoms: C_9  and  C_10
REMARK   10  A    between atoms: C_10  and  C_11
REMARK   11  A    between atoms: C_15  and  C_16
REMARK   12  A    between atoms: C_16  and  C_17
REMARK   13  A    between atoms: C_17  and  C_18
REMARK   14  A    between atoms: C_18  and  S_19
REMARK   15  A    between atoms: S_19  and  C_22
REMARK   16  A    between atoms: C_22  and  C_23
REMARK   17  A    between atoms: C_23  and  C_24
REMARK   18  A    between atoms: C_24  and  N_25
REMARK   19  A    between atoms: N_25  and  C_26
REMARK   20  A    between atoms: N_25  and  C_27
REMARK   21  A    between atoms: N_25  and  C_28
REMARK                            x       y       z     vdW  Elec       q    Type
REMARK                         _______ _______ _______ _____ _____    ______ ____
ROOT
ATOM      1  C   UNL     1       1.008   4.123  20.175  0.00  0.00    +0.000 C 
ATOM      2  C   UNL     1       1.694   3.578  21.443  0.00  0.00    +0.000 C 
ATOM      3  O   UNL     1       1.622   2.598  22.157  0.00  0.00    +0.000 OA
ATOM      4  O   UNL     1       2.475   4.674  21.615  0.00  0.00    +0.000 OA
ATOM      5  C   UNL     1       1.915   5.341  20.445  0.00  0.00    +0.000 C 
ENDROOT
BRANCH   1   6
ATOM      6  C   UNL     1       1.252   3.393  18.867  0.00  0.00    +0.000 C 
BRANCH   6   7
ATOM      7  C   UNL     1       1.652   4.368  17.770  0.00  0.00    +0.000 C 
BRANCH   7   8
ATOM      8  C   UNL     1       3.108   4.167  17.389  0.00  0.00    +0.000 C 
BRANCH   8   9
ATOM      9  C   UNL     1       3.795   5.516  17.276  0.00  0.00    +0.000 C 
BRANCH   9  10
ATOM     10  C   UNL     1       5.243   5.319  16.868  0.00  0.00    +0.000 C 
BRANCH  10  11
ATOM     11  C   UNL     1       5.490   3.863  16.524  0.00  0.00    +0.000 C 
BRANCH  11  12
ATOM     12  C   UNL     1       6.381   3.768  15.297  0.00  0.00    +0.000 C 
BRANCH  12  13
ATOM     13  C   UNL     1       5.589   4.121  14.050  0.00  0.00    +0.000 C 
BRANCH  13  15
ATOM     14  C   UNL     1       5.430   2.961  11.848  0.00  0.00    +0.000 C 
ATOM     15  C   UNL     1       6.348   3.700  12.800  0.00  0.00    +0.000 C 
ENDBRANCH  13  15
ENDBRANCH  12  13
ENDBRANCH  11  12
ENDBRANCH  10  11
ENDBRANCH   9  10
ENDBRANCH   8   9
ENDBRANCH   7   8
ENDBRANCH   6   7
ENDBRANCH   1   6
BRANCH   5  16
ATOM     16  C   UNL     1       1.206   6.624  20.851  0.00  0.00    +0.000 C 
BRANCH  16  17
ATOM     17  C   UNL     1       1.901   7.806  20.188  0.00  0.00    +0.000 C 
BRANCH  17  18
ATOM     18  C   UNL     1       1.035   9.054  20.194  0.00  0.00    +0.000 C 
BRANCH  18  19
ATOM     19  S   UNL     1       1.028   9.789  18.569  0.00  0.00    +0.000 S 
ATOM     20  O   UNL     1       2.014   9.103  17.760  0.00  0.00    +0.000 OA
ATOM     21  O   UNL     1      -0.353   9.897  18.134  0.00  0.00    +0.000 OA
BRANCH  19  22
ATOM     22  C   UNL     1       1.622  11.441  18.836  0.00  0.00    +0.000 C 
BRANCH  22  23
ATOM     23  C   UNL     1       1.025  11.928  20.140  0.00  0.00    +0.000 C 
BRANCH  23  24
ATOM     24  C   UNL     1      -0.249  12.716  19.932  0.00  0.00    +0.000 C 
BRANCH  24  25
ATOM     25  N   UNL     1      -0.955  13.010  21.271  0.00  0.00    +0.000 N 
ATOM     26  C   UNL     1      -1.308  11.721  22.004  0.00  0.00    +0.000 C 
ATOM     27  C   UNL     1      -0.064  13.878  22.153  0.00  0.00    +0.000 C 
ATOM     28  C   UNL     1      -2.241  13.763  20.983  0.00  0.00    +0.000 C 
ENDBRANCH  24  25
ENDBRANCH  23  24
ENDBRANCH  22  23
ENDBRANCH  19  22
ENDBRANCH  18  19
ENDBRANCH  17  18
ENDBRANCH  16  17
ENDBRANCH   5  16
TORSDOF 17
ENDMDL
MODEL 5
REMARK VINA RESULT:      -5.9      2.011      2.595
REMARK  Name = 
REMARK  21 active torsions:
REMARK  status: ('A' for Active; 'I' for Inactive)
REMARK    1  A    between atoms: C_1  and  C_2
REMARK    2  A    between atoms: C_2  and  C_3
REMARK    3  A    between atoms: C_3  and  C_4
REMARK    4  A    between atoms: C_4  and  C_5
REMARK    5  A    between atoms: C_5  and  C_6
REMARK    6  A    between atoms: C_6  and  C_7
REMARK    7  A    between atoms: C_7  and  C_8
REMARK    8  A    between atoms: C_8  and  C_9
REMARK    9  A    between atoms: C_9  and  C_10
REMARK   10  A    between atoms: C_10  and  C_11
REMARK   11  A    between atoms: C_15  and  C_16
REMARK   12  A    between atoms: C_16  and  C_17
REMARK   13  A    between atoms: C_17  and  C_18
REMARK   14  A    between atoms: C_18  and  S_19
REMARK   15  A    between atoms: S_19  and  C_22
REMARK   16  A    between atoms: C_22  and  C_23
REMARK   17  A    between atoms: C_23  and  C_24
REMARK   18  A    between atoms: C_24  and  N_25
REMARK   19  A    between atoms: N_25  and  C_26
REMARK   20  A    between atoms: N_25  and  C_27
REMARK   21  A    between atoms: N_25  and  C_28
REMARK                            x       y       z     vdW  Elec       q    Type
REMARK                         _______ _______ _______ _____ _____    ______ ____
ROOT
ATOM      1  C   UNL     1       6.556   6.563  17.644  0.00  0.00    +0.000 C 
ATOM      2  C   UNL     1       7.234   6.043  18.927  0.00  0.00    +0.000 C 
ATOM      3  O   UNL     1       6.981   5.273  19.831  0.00  0.00    +0.000 OA
ATOM      4  O   UNL     1       8.325   6.838  18.794  0.00  0.00    +0.000 OA
ATOM      5  C   UNL     1       7.819   7.446  17.569  0.00  0.00    +0.000 C 
ENDROOT
BRANCH   1   6
ATOM      6  C   UNL     1       6.364   5.587  16.498  0.00  0.00    +0.000 C 
BRANCH   6   7
ATOM      7  C   UNL     1       4.884   5.371  16.214  0.00  0.00    +0.000 C 
BRANCH   7   8
ATOM      8  C   UNL     1       4.260   4.507  17.296  0.00  0.00    +0.000 C 
BRANCH   8   9
ATOM      9  C   UNL     1       3.140   5.274  17.975  0.00  0.00    +0.000 C 
BRANCH   9  10
ATOM     10  C   UNL     1       3.471   5.468  19.443  0.00  0.00    +0.000 C 
BRANCH  10  11
ATOM     11  C   UNL     1       2.216   5.834  20.211  0.00  0.00    +0.000 C 
BRANCH  11  12
ATOM     12  C   UNL     1       1.192   4.720  20.085  0.00  0.00    +0.000 C 
BRANCH  12  13
ATOM     13  C   UNL     1       1.600   3.537  20.947  0.00  0.00    +0.000 C 
BRANCH  13  15
ATOM     14  C   UNL     1       0.919   2.436  18.815  0.00  0.00    +0.000 C 
ATOM     15  C   UNL     1       1.696   2.273  20.105  0.00  0.00    +0.000 C 
ENDBRANCH  13  15
ENDBRANCH  12  13
ENDBRANCH  11  12
ENDBRANCH  10  11
ENDBRANCH   9  10
ENDBRANCH   8   9
ENDBRANCH   7   8
ENDBRANCH   6   7
ENDBRANCH   1   6
BRANCH   5  16
ATOM     16  C   UNL     1       7.601   8.939  17.766  0.00  0.00    +0.000 C 
BRANCH  16  17
ATOM     17  C   UNL     1       8.835   9.537  18.428  0.00  0.00    +0.000 C 
BRANCH  17  18
ATOM     18  C   UNL     1       9.029  10.998  18.058  0.00  0.00    +0.000 C 
BRANCH  18  19
ATOM     19  S   UNL     1      10.051  11.798  19.282  0.00  0.00    +0.000 S 
ATOM     20  O   UNL     1      11.403  11.300  19.136  0.00  0.00    +0.000 OA
ATOM     21  O   UNL     1       9.768  13.221  19.237  0.00  0.00    +0.000 OA
BRANCH  19  22
ATOM     22  C   UNL     1       9.430  11.191  20.832  0.00  0.00    +0.000 C 
BRANCH  22  23
ATOM     23  C   UNL     1       9.480  12.342  21.816  0.00  0.00    +0.000 C 
BRANCH  23  24
ATOM     24  C   UNL     1       8.109  12.713  22.338  0.00  0.00    +0.000 C 
BRANCH  24  25
ATOM     25  N   UNL     1       7.922  14.243  22.392  0.00  0.00    +0.000 N 
ATOM     26  C   UNL     1       9.265  14.962  22.456  0.00  0.00    +0.000 C 
ATOM     27  C   UNL     1       7.139  14.718  21.173  0.00  0.00    +0.000 C 
ATOM     28  C   UNL     1       7.135  14.587  23.644  0.00  0.00    +0.000 C 
ENDBRANCH  24  25
ENDBRANCH  23  24
ENDBRANCH  22  23
ENDBRANCH  19  22
ENDBRANCH  18  19
ENDBRANCH  17  18
ENDBRANCH  16  17
ENDBRANCH   5  16
TORSDOF 17
ENDMDL
MODEL 6
REMARK VINA RESULT:      -5.8      1.330      1.759
REMARK  Name = 
REMARK  21 active torsions:
REMARK  status: ('A' for Active; 'I' for Inactive)
REMARK    1  A    between atoms: C_1  and  C_2
REMARK    2  A    between atoms: C_2  and  C_3
REMARK    3  A    between atoms: C_3  and  C_4
REMARK    4  A    between atoms: C_4  and  C_5
REMARK    5  A    between atoms: C_5  and  C_6
REMARK    6  A    between atoms: C_6  and  C_7
REMARK    7  A    between atoms: C_7  and  C_8
REMARK    8  A    between atoms: C_8  and  C_9
REMARK    9  A    between atoms: C_9  and  C_10
REMARK   10  A    between atoms: C_10  and  C_11
REMARK   11  A    between atoms: C_15  and  C_16
REMARK   12  A    between atoms: C_16  and  C_17
REMARK   13  A    between atoms: C_17  and  C_18
REMARK   14  A    between atoms: C_18  and  S_19
REMARK   15  A    between atoms: S_19  and  C_22
REMARK   16  A    between atoms: C_22  and  C_23
REMARK   17  A    between atoms: C_23  and  C_24
REMARK   18  A    between atoms: C_24  and  N_25
REMARK   19  A    between atoms: N_25  and  C_26
REMARK   20  A    between atoms: N_25  and  C_27
REMARK   21  A    between atoms: N_25  and  C_28
REMARK                            x       y       z     vdW  Elec       q    Type
REMARK                         _______ _______ _______ _____ _____    ______ ____
ROOT
ATOM      1  C   UNL     1       6.103   5.801  17.960  0.00  0.00    +0.000 C 
ATOM      2  C   UNL     1       6.140   5.354  16.486  0.00  0.00    +0.000 C 
ATOM      3  O   UNL     1       5.965   4.335  15.848  0.00  0.00    +0.000 OA
ATOM      4  O   UNL     1       6.543   6.564  16.024  0.00  0.00    +0.000 OA
ATOM      5  C   UNL     1       6.575   7.142  17.362  0.00  0.00    +0.000 C 
ENDROOT
BRANCH   1   6
ATOM      6  C   UNL     1       4.755   5.827  18.659  0.00  0.00    +0.000 C 
BRANCH   6   7
ATOM      7  C   UNL     1       3.728   6.580  17.826  0.00  0.00    +0.000 C 
BRANCH   7   8
ATOM      8  C   UNL     1       2.335   6.380  18.398  0.00  0.00    +0.000 C 
BRANCH   8   9
ATOM      9  C   UNL     1       2.390   6.468  19.912  0.00  0.00    +0.000 C 
BRANCH   9  10
ATOM     10  C   UNL     1       1.545   5.364  20.519  0.00  0.00    +0.000 C 
BRANCH  10  11
ATOM     11  C   UNL     1       2.425   4.187  20.894  0.00  0.00    +0.000 C 
BRANCH  11  12
ATOM     12  C   UNL     1       2.156   3.023  19.955  0.00  0.00    +0.000 C 
BRANCH  12  13
ATOM     13  C   UNL     1       3.463   2.357  19.563  0.00  0.00    +0.000 C 
BRANCH  13  15
ATOM     14  C   UNL     1       2.630   2.979  17.296  0.00  0.00    +0.000 C 
ATOM     15  C   UNL     1       3.449   1.981  18.088  0.00  0.00    +0.000 C 
ENDBRANCH  13  15
ENDBRANCH  12  13
ENDBRANCH  11  12
ENDBRANCH  10  11
ENDBRANCH   9  10
ENDBRANCH   8   9
ENDBRANCH   7   8
ENDBRANCH   6   7
ENDBRANCH   1   6
BRANCH   5  16
ATOM     16  C   UNL     1       7.989   7.572  17.723  0.00  0.00    +0.000 C 
BRANCH  16  17
ATOM     17  C   UNL     1       8.021   9.087  17.879  0.00  0.00    +0.000 C 
BRANCH  17  18
ATOM     18  C   UNL     1       8.908   9.522  19.033  0.00  0.00    +0.000 C 
BRANCH  18  19
ATOM     19  S   UNL     1       9.569  11.146  18.705  0.00  0.00    +0.000 S 
ATOM     20  O   UNL     1       9.610  11.877  19.955  0.00  0.00    +0.000 OA
ATOM     21  O   UNL     1      10.760  10.986  17.891  0.00  0.00    +0.000 OA
BRANCH  19  22
ATOM     22  C   UNL     1       8.339  11.919  17.683  0.00  0.00    +0.000 C 
BRANCH  22  23
ATOM     23  C   UNL     1       8.315  13.390  18.045  0.00  0.00    +0.000 C 
BRANCH  23  24
ATOM     24  C   UNL     1       9.525  14.132  17.522  0.00  0.00    +0.000 C 
BRANCH  24  25
ATOM     25  N   UNL     1       9.885  15.329  18.424  0.00  0.00    +0.000 N 
ATOM     26  C   UNL     1       8.674  15.810  19.215  0.00  0.00    +0.000 C 
ATOM     27  C   UNL     1      11.007  14.943  19.382  0.00  0.00    +0.000 C 
ATOM     28  C   UNL     1      10.365  16.469  17.543  0.00  0.00    +0.000 C 
ENDBRANCH  24  25
ENDBRANCH  23  24
ENDBRANCH  22  23
ENDBRANCH  19  22
ENDBRANCH  18  19
ENDBRANCH  17  18
ENDBRANCH  16  17
ENDBRANCH   5  16
TORSDOF 17
ENDMDL
MODEL 7
REMARK VINA RESULT:      -5.8      0.824      1.456
REMARK  Name = 
REMARK  21 active torsions:
REMARK  status: ('A' for Active; 'I' for Inactive)
REMARK    1  A    between atoms: C_1  and  C_2
REMARK    2  A    between atoms: C_2  and  C_3
REMARK    3  A    between atoms: C_3  and  C_4
REMARK    4  A    between atoms: C_4  and  C_5
REMARK    5  A    between atoms: C_5  and  C_6
REMARK    6  A    between atoms: C_6  and  C_7
REMARK    7  A    between atoms: C_7  and  C_8
REMARK    8  A    between atoms: C_8  and  C_9
REMARK    9  A    between atoms: C_9  and  C_10
REMARK   10  A    between atoms: C_10  and  C_11
REMARK   11  A    between atoms: C_15  and  C_16
REMARK   12  A    between atoms: C_16  and  C_17
REMARK   13  A    between atoms: C_17  and  C_18
REMARK   14  A    between atoms: C_18  and  S_19
REMARK   15  A    between atoms: S_19  and  C_22
REMARK   16  A    between atoms: C_22  and  C_23
REMARK   17  A    between atoms: C_23  and  C_24
REMARK   18  A    between atoms: C_24  and  N_25
REMARK   19  A    between atoms: N_25  and  C_26
REMARK   20  A    between atoms: N_25  and  C_27
REMARK   21  A    between atoms: N_25  and  C_28
REMARK                            x       y       z     vdW  Elec       q    Type
REMARK                         _______ _______ _______ _____ _____    ______ ____
ROOT
ATOM      1  C   UNL     1       6.418   6.235  17.836  0.00  0.00    +0.000 C 
ATOM      2  C   UNL     1       7.251   5.519  16.754  0.00  0.00    +0.000 C 
ATOM      3  O   UNL     1       7.446   4.383  16.372  0.00  0.00    +0.000 OA
ATOM      4  O   UNL     1       7.847   6.656  16.317  0.00  0.00    +0.000 OA
ATOM      5  C   UNL     1       7.148   7.481  17.295  0.00  0.00    +0.000 C 
ENDROOT
BRANCH   1   6
ATOM      6  C   UNL     1       4.908   6.235  17.684  0.00  0.00    +0.000 C 
BRANCH   6   7
ATOM      7  C   UNL     1       4.232   5.891  19.004  0.00  0.00    +0.000 C 
BRANCH   7   8
ATOM      8  C   UNL     1       2.756   6.244  18.948  0.00  0.00    +0.000 C 
BRANCH   8   9
ATOM      9  C   UNL     1       2.135   6.048  20.319  0.00  0.00    +0.000 C 
BRANCH   9  10
ATOM     10  C   UNL     1       2.191   4.582  20.702  0.00  0.00    +0.000 C 
BRANCH  10  11
ATOM     11  C   UNL     1       0.878   3.907  20.355  0.00  0.00    +0.000 C 
BRANCH  11  12
ATOM     12  C   UNL     1       1.119   2.799  19.344  0.00  0.00    +0.000 C 
BRANCH  12  13
ATOM     13  C   UNL     1       2.545   2.289  19.462  0.00  0.00    +0.000 C 
BRANCH  13  15
ATOM     14  C   UNL     1       2.601   3.056  17.090  0.00  0.00    +0.000 C 
ATOM     15  C   UNL     1       3.141   2.048  18.083  0.00  0.00    +0.000 C 
ENDBRANCH  13  15
ENDBRANCH  12  13
ENDBRANCH  11  12
ENDBRANCH  10  11
ENDBRANCH   9  10
ENDBRANCH   8   9
ENDBRANCH   7   8
ENDBRANCH   6   7
ENDBRANCH   1   6
BRANCH   5  16
ATOM     16  C   UNL     1       8.140   8.138  18.244  0.00  0.00    +0.000 C 
BRANCH  16  17
ATOM     17  C   UNL     1       8.042   9.651  18.092  0.00  0.00    +0.000 C 
BRANCH  17  18
ATOM     18  C   UNL     1       9.396  10.284  17.821  0.00  0.00    +0.000 C 
BRANCH  18  19
ATOM     19  S   UNL     1       9.486  11.876  18.622  0.00  0.00    +0.000 S 
ATOM     20  O   UNL     1       8.951  11.738  19.961  0.00  0.00    +0.000 OA
ATOM     21  O   UNL     1      10.816  12.412  18.399  0.00  0.00    +0.000 OA
BRANCH  19  22
ATOM     22  C   UNL     1       8.354  12.890  17.704  0.00  0.00    +0.000 C 
BRANCH  22  23
ATOM     23  C   UNL     1       8.434  14.288  18.283  0.00  0.00    +0.000 C 
BRANCH  23  24
ATOM     24  C   UNL     1       7.071  14.843  18.638  0.00  0.00    +0.000 C 
BRANCH  24  25
ATOM     25  N   UNL     1       7.162  16.317  19.082  0.00  0.00    +0.000 N 
ATOM     26  C   UNL     1       8.289  17.044  18.358  0.00  0.00    +0.000 C 
ATOM     27  C   UNL     1       5.837  17.024  18.818  0.00  0.00    +0.000 C 
ATOM     28  C   UNL     1       7.448  16.354  20.573  0.00  0.00    +0.000 C 
ENDBRANCH  24  25
ENDBRANCH  23  24
ENDBRANCH  22  23
ENDBRANCH  19  22
ENDBRANCH  18  19
ENDBRANCH  17  18
ENDBRANCH  16  17
ENDBRANCH   5  16
TORSDOF 17
ENDMDL
MODEL 8
REMARK VINA RESULT:      -5.7      1.832      2.492
REMARK  Name = 
REMARK  21 active torsions:
REMARK  status: ('A' for Active; 'I' for Inactive)
REMARK    1  A    between atoms: C_1  and  C_2
REMARK    2  A    between atoms: C_2  and  C_3
REMARK    3  A    between atoms: C_3  and  C_4
REMARK    4  A    between atoms: C_4  and  C_5
REMARK    5  A    between atoms: C_5  and  C_6
REMARK    6  A    between atoms: C_6  and  C_7
REMARK    7  A    between atoms: C_7  and  C_8
REMARK    8  A    between atoms: C_8  and  C_9
REMARK    9  A    between atoms: C_9  and  C_10
REMARK   10  A    between atoms: C_10  and  C_11
REMARK   11  A    between atoms: C_15  and  C_16
REMARK   12  A    between atoms: C_16  and  C_17
REMARK   13  A    between atoms: C_17  and  C_18
REMARK   14  A    between atoms: C_18  and  S_19
REMARK   15  A    between atoms: S_19  and  C_22
REMARK   16  A    between atoms: C_22  and  C_23
REMARK   17  A    between atoms: C_23  and  C_24
REMARK   18  A    between atoms: C_24  and  N_25
REMARK   19  A    between atoms: N_25  and  C_26
REMARK   20  A    between atoms: N_25  and  C_27
REMARK   21  A    between atoms: N_25  and  C_28
REMARK                            x       y       z     vdW  Elec       q    Type
REMARK                         _______ _______ _______ _____ _____    ______ ____
ROOT
ATOM      1  C   UNL     1       7.030   6.007  18.323  0.00  0.00    +0.000 C 
ATOM      2  C   UNL     1       7.522   5.539  16.939  0.00  0.00    +0.000 C 
ATOM      3  O   UNL     1       7.752   4.491  16.371  0.00  0.00    +0.000 OA
ATOM      4  O   UNL     1       7.722   6.797  16.473  0.00  0.00    +0.000 OA
ATOM      5  C   UNL     1       7.296   7.405  17.728  0.00  0.00    +0.000 C 
ENDROOT
BRANCH   1   6
ATOM      6  C   UNL     1       5.589   5.711  18.700  0.00  0.00    +0.000 C 
BRANCH   6   7
ATOM      7  C   UNL     1       4.648   6.064  17.557  0.00  0.00    +0.000 C 
BRANCH   7   8
ATOM      8  C   UNL     1       3.478   6.885  18.071  0.00  0.00    +0.000 C 
BRANCH   8   9
ATOM      9  C   UNL     1       2.307   5.967  18.373  0.00  0.00    +0.000 C 
BRANCH   9  10
ATOM     10  C   UNL     1       2.394   4.726  17.505  0.00  0.00    +0.000 C 
BRANCH  10  11
ATOM     11  C   UNL     1       1.291   3.756  17.880  0.00  0.00    +0.000 C 
BRANCH  11  12
ATOM     12  C   UNL     1       1.889   2.398  18.206  0.00  0.00    +0.000 C 
BRANCH  12  13
ATOM     13  C   UNL     1       2.370   2.373  19.647  0.00  0.00    +0.000 C 
BRANCH  13  15
ATOM     14  C   UNL     1       1.628   2.652  22.012  0.00  0.00    +0.000 C 
ATOM     15  C   UNL     1       1.329   2.994  20.567  0.00  0.00    +0.000 C 
ENDBRANCH  13  15
ENDBRANCH  12  13
ENDBRANCH  11  12
ENDBRANCH  10  11
ENDBRANCH   9  10
ENDBRANCH   8   9
ENDBRANCH   7   8
ENDBRANCH   6   7
ENDBRANCH   1   6
BRANCH   5  16
ATOM     16  C   UNL     1       8.439   8.189  18.356  0.00  0.00    +0.000 C 
BRANCH  16  17
ATOM     17  C   UNL     1       8.143   9.678  18.234  0.00  0.00    +0.000 C 
BRANCH  17  18
ATOM     18  C   UNL     1       9.350  10.461  17.747  0.00  0.00    +0.000 C 
BRANCH  18  19
ATOM     19  S   UNL     1       9.716  11.777  18.894  0.00  0.00    +0.000 S 
ATOM     20  O   UNL     1      11.144  12.021  18.860  0.00  0.00    +0.000 OA
ATOM     21  O   UNL     1       8.768  12.851  18.658  0.00  0.00    +0.000 OA
BRANCH  19  22
ATOM     22  C   UNL     1       9.337  11.086  20.485  0.00  0.00    +0.000 C 
BRANCH  22  23
ATOM     23  C   UNL     1       9.797  12.084  21.528  0.00  0.00    +0.000 C 
BRANCH  23  24
ATOM     24  C   UNL     1       8.639  12.750  22.239  0.00  0.00    +0.000 C 
BRANCH  24  25
ATOM     25  N   UNL     1       8.778  14.286  22.225  0.00  0.00    +0.000 N 
ATOM     26  C   UNL     1       8.694  14.861  23.634  0.00  0.00    +0.000 C 
ATOM     27  C   UNL     1      10.102  14.685  21.583  0.00  0.00    +0.000 C 
ATOM     28  C   UNL     1       7.640  14.865  21.404  0.00  0.00    +0.000 C 
ENDBRANCH  24  25
ENDBRANCH  23  24
ENDBRANCH  22  23
ENDBRANCH  19  22
ENDBRANCH  18  19
ENDBRANCH  17  18
ENDBRANCH  16  17
ENDBRANCH   5  16
TORSDOF 17
ENDMDL
MODEL 9
REMARK VINA RESULT:      -5.7      5.278      6.766
REMARK  Name = 
REMARK  21 active torsions:
REMARK  status: ('A' for Active; 'I' for Inactive)
REMARK    1  A    between atoms: C_1  and  C_2
REMARK    2  A    between atoms: C_2  and  C_3
REMARK    3  A    between atoms: C_3  and  C_4
REMARK    4  A    between atoms: C_4  and  C_5
REMARK    5  A    between atoms: C_5  and  C_6
REMARK    6  A    between atoms: C_6  and  C_7
REMARK    7  A    between atoms: C_7  and  C_8
REMARK    8  A    between atoms: C_8  and  C_9
REMARK    9  A    between atoms: C_9  and  C_10
REMARK   10  A    between atoms: C_10  and  C_11
REMARK   11  A    between atoms: C_15  and  C_16
REMARK   12  A    between atoms: C_16  and  C_17
REMARK   13  A    between atoms: C_17  and  C_18
REMARK   14  A    between atoms: C_18  and  S_19
REMARK   15  A    between atoms: S_19  and  C_22
REMARK   16  A    between atoms: C_22  and  C_23
REMARK   17  A    between atoms: C_23  and  C_24
REMARK   18  A    between atoms: C_24  and  N_25
REMARK   19  A    between atoms: N_25  and  C_26
REMARK   20  A    between atoms: N_25  and  C_27
REMARK   21  A    between atoms: N_25  and  C_28
REMARK                            x       y       z     vdW  Elec       q    Type
REMARK                         _______ _______ _______ _____ _____    ______ ____
ROOT
ATOM      1  C   UNL     1       5.155   5.763  17.947  0.00  0.00    +0.000 C 
ATOM      2  C   UNL     1       6.336   6.222  17.068  0.00  0.00    +0.000 C 
ATOM      3  O   UNL     1       7.540   6.069  17.026  0.00  0.00    +0.000 OA
ATOM      4  O   UNL     1       5.570   7.011  16.274  0.00  0.00    +0.000 OA
ATOM      5  C   UNL     1       4.353   6.692  17.012  0.00  0.00    +0.000 C 
ENDROOT
BRANCH   1   6
ATOM      6  C   UNL     1       4.771   4.295  17.908  0.00  0.00    +0.000 C 
BRANCH   6   7
ATOM      7  C   UNL     1       3.944   3.985  16.670  0.00  0.00    +0.000 C 
BRANCH   7   8
ATOM      8  C   UNL     1       2.768   3.093  17.029  0.00  0.00    +0.000 C 
BRANCH   8   9
ATOM      9  C   UNL     1       3.240   1.974  17.940  0.00  0.00    +0.000 C 
BRANCH   9  10
ATOM     10  C   UNL     1       2.159   1.649  18.953  0.00  0.00    +0.000 C 
BRANCH  10  11
ATOM     11  C   UNL     1       0.938   2.513  18.701  0.00  0.00    +0.000 C 
BRANCH  11  12
ATOM     12  C   UNL     1       0.584   3.284  19.961  0.00  0.00    +0.000 C 
BRANCH  12  13
ATOM     13  C   UNL     1       1.420   2.786  21.128  0.00  0.00    +0.000 C 
BRANCH  13  15
ATOM     14  C   UNL     1       2.396   5.036  20.673  0.00  0.00    +0.000 C 
ATOM     15  C   UNL     1       2.286   3.910  21.680  0.00  0.00    +0.000 C 
ENDBRANCH  13  15
ENDBRANCH  12  13
ENDBRANCH  11  12
ENDBRANCH  10  11
ENDBRANCH   9  10
ENDBRANCH   8   9
ENDBRANCH   7   8
ENDBRANCH   6   7
ENDBRANCH   1   6
BRANCH   5  16
ATOM     16  C   UNL     1       3.775   7.945  17.653  0.00  0.00    +0.000 C 
BRANCH  16  17
ATOM     17  C   UNL     1       2.306   7.703  17.974  0.00  0.00    +0.000 C 
BRANCH  17  18
ATOM     18  C   UNL     1       1.426   8.856  17.521  0.00  0.00    +0.000 C 
BRANCH  18  19
ATOM     19  S   UNL     1       1.073   9.923  18.906  0.00  0.00    +0.000 S 
ATOM     20  O   UNL     1       1.001   9.106  20.099  0.00  0.00    +0.000 OA
ATOM     21  O   UNL     1       1.971  11.062  18.831  0.00  0.00    +0.000 OA
BRANCH  19  22
ATOM     22  C   UNL     1      -0.565  10.529  18.583  0.00  0.00    +0.000 C 
BRANCH  22  23
ATOM     23  C   UNL     1      -1.059  11.185  19.856  0.00  0.00    +0.000 C 
BRANCH  23  24
ATOM     24  C   UNL     1      -2.292  12.032  19.626  0.00  0.00    +0.000 C 
BRANCH  24  25
ATOM     25  N   UNL     1      -2.457  13.097  20.729  0.00  0.00    +0.000 N 
ATOM     26  C   UNL     1      -1.642  14.347  20.417  0.00  0.00    +0.000 C 
ATOM     27  C   UNL     1      -3.929  13.466  20.883  0.00  0.00    +0.000 C 
ATOM     28  C   UNL     1      -1.959  12.515  22.039  0.00  0.00    +0.000 C 
ENDBRANCH  24  25
ENDBRANCH  23  24
ENDBRANCH  22  23
ENDBRANCH  19  22
ENDBRANCH  18  19
ENDBRANCH  17  18
ENDBRANCH  16  17
ENDBRANCH   5  16
TORSDOF 17
ENDMDL
