MODEL 1
REMARK VINA RESULT:      -8.1      0.000      0.000
REMARK  Name = 
REMARK  5 active torsions:
REMARK  status: ('A' for Active; 'I' for Inactive)
REMARK    1  A    between atoms: C_2  and  O_3
REMARK    2  A    between atoms: C_2  and  C_10
REMARK    3  A    between atoms: O_3  and  C_4
REMARK    4  A    between atoms: C_12  and  S_13
REMARK    5  A    between atoms: S_13  and  N_16
REMARK                            x       y       z     vdW  Elec       q    Type
REMARK                         _______ _______ _______ _____ _____    ______ ____
ROOT
ATOM      1  C   UNL     1       5.962   5.509  16.953  0.00  0.00    +0.000 A 
ATOM      2  C   UNL     1       4.927   4.558  17.090  0.00  0.00    +0.000 A 
ATOM      3  C   UNL     1       3.663   4.944  17.559  0.00  0.00    +0.000 A 
ATOM      4  C   UNL     1       3.417   6.280  17.887  0.00  0.00    +0.000 A 
ATOM      5  C   UNL     1       4.449   7.217  17.782  0.00  0.00    +0.000 A 
ATOM      6  C   UNL     1       5.721   6.841  17.323  0.00  0.00    +0.000 A 
ATOM      7 CL   UNL     1       6.923   8.080  17.301  0.00  0.00    +0.000 Cl
ENDROOT
BRANCH   3   8
ATOM      8  S   UNL     1       2.300   3.774  17.522  0.00  0.00    +0.000 S 
ATOM      9  O   UNL     1       1.104   4.548  17.269  0.00  0.00    +0.000 OA
ATOM     10  O   UNL     1       2.702   2.705  16.630  0.00  0.00    +0.000 OA
BRANCH   8  11
ATOM     11  N   UNL     1       2.206   3.145  19.106  0.00  0.00    +0.000 NA
ATOM     12  C   UNL     1       3.501   2.996  19.813  0.00  0.00    +0.000 C 
ATOM     13  C   UNL     1       3.348   2.231  21.123  0.00  0.00    +0.000 C 
ATOM     14  C   UNL     1       2.271   2.854  21.997  0.00  0.00    +0.000 C 
ATOM     15  C   UNL     1       0.952   2.847  21.241  0.00  0.00    +0.000 C 
ATOM     16  C   UNL     1       1.066   3.621  19.929  0.00  0.00    +0.000 C 
ENDBRANCH   8  11
ENDBRANCH   3   8
BRANCH   1  18
ATOM     17  O   UNL     1       7.938   4.206  17.097  0.00  0.00    +0.000 OA
ATOM     18  C   UNL     1       7.270   5.003  16.456  0.00  0.00    +0.000 C 
BRANCH  18  19
ATOM     19  O   UNL     1       7.544   5.501  15.192  0.00  0.00    +0.000 OA
BRANCH  19  20
ATOM     20  C   UNL     1       7.136   4.801  14.043  0.00  0.00    +0.000 A 
ATOM     21  C   UNL     1       6.069   3.911  14.013  0.00  0.00    +0.000 A 
ATOM     22  C   UNL     1       5.737   3.297  12.805  0.00  0.00    +0.000 A 
ATOM     23  C   UNL     1       6.477   3.615  11.673  0.00  0.00    +0.000 A 
ATOM     24  N   UNL     1       7.501   4.496  11.668  0.00  0.00    +0.000 NA
ATOM     25  C   UNL     1       7.804   5.076  12.855  0.00  0.00    +0.000 A 
ENDBRANCH  19  20
ENDBRANCH  18  19
ENDBRANCH   1  18
TORSDOF 5
ENDMDL
MODEL 2
REMARK VINA RESULT:      -7.5      5.179      6.793
REMARK  Name = 
REMARK  5 active torsions:
REMARK  status: ('A' for Active; 'I' for Inactive)
REMARK    1  A    between atoms: C_2  and  O_3
REMARK    2  A    between atoms: C_2  and  C_10
REMARK    3  A    between atoms: O_3  and  C_4
REMARK    4  A    between atoms: C_12  and  S_13
REMARK    5  A    between atoms: S_13  and  N_16
REMARK                            x       y       z     vdW  Elec       q    Type
REMARK                         _______ _______ _______ _____ _____    ______ ____
ROOT
ATOM      1  C   UNL     1       2.271   7.025  19.111  0.00  0.00    +0.000 A 
ATOM      2  C   UNL     1       1.947   8.337  18.704  0.00  0.00    +0.000 A 
ATOM      3  C   UNL     1       1.268   9.205  19.572  0.00  0.00    +0.000 A 
ATOM      4  C   UNL     1       0.915   8.777  20.854  0.00  0.00    +0.000 A 
ATOM      5  C   UNL     1       1.207   7.467  21.248  0.00  0.00    +0.000 A 
ATOM      6  C   UNL     1       1.877   6.586  20.385  0.00  0.00    +0.000 A 
ATOM      7 CL   UNL     1       2.119   4.980  20.969  0.00  0.00    +0.000 Cl
ENDROOT
BRANCH   3   8
ATOM      8  S   UNL     1       1.057  10.932  19.124  0.00  0.00    +0.000 S 
ATOM      9  O   UNL     1       1.098  11.684  20.361  0.00  0.00    +0.000 OA
ATOM     10  O   UNL     1       2.001  11.197  18.057  0.00  0.00    +0.000 OA
BRANCH   8  11
ATOM     11  N   UNL     1      -0.522  11.040  18.484  0.00  0.00    +0.000 NA
ATOM     12  C   UNL     1      -0.916   9.943  17.567  0.00  0.00    +0.000 C 
ATOM     13  C   UNL     1      -2.245  10.230  16.877  0.00  0.00    +0.000 C 
ATOM     14  C   UNL     1      -3.328  10.563  17.893  0.00  0.00    +0.000 C 
ATOM     15  C   UNL     1      -2.894  11.776  18.700  0.00  0.00    +0.000 C 
ATOM     16  C   UNL     1      -1.573  11.516  19.419  0.00  0.00    +0.000 C 
ENDBRANCH   8  11
ENDBRANCH   3   8
BRANCH   1  18
ATOM     17  O   UNL     1       2.499   5.137  17.695  0.00  0.00    +0.000 OA
ATOM     18  C   UNL     1       2.984   6.175  18.119  0.00  0.00    +0.000 C 
BRANCH  18  19
ATOM     19  O   UNL     1       4.175   6.765  17.728  0.00  0.00    +0.000 OA
BRANCH  19  20
ATOM     20  C   UNL     1       5.338   5.993  17.569  0.00  0.00    +0.000 A 
ATOM     21  C   UNL     1       5.964   5.771  16.347  0.00  0.00    +0.000 A 
ATOM     22  C   UNL     1       7.132   5.010  16.316  0.00  0.00    +0.000 A 
ATOM     23  C   UNL     1       7.637   4.519  17.513  0.00  0.00    +0.000 A 
ATOM     24  N   UNL     1       7.065   4.741  18.716  0.00  0.00    +0.000 NA
ATOM     25  C   UNL     1       5.930   5.480  18.718  0.00  0.00    +0.000 A 
ENDBRANCH  19  20
ENDBRANCH  18  19
ENDBRANCH   1  18
TORSDOF 5
ENDMDL
MODEL 3
REMARK VINA RESULT:      -7.5      5.104      6.544
REMARK  Name = 
REMARK  5 active torsions:
REMARK  status: ('A' for Active; 'I' for Inactive)
REMARK    1  A    between atoms: C_2  and  O_3
REMARK    2  A    between atoms: C_2  and  C_10
REMARK    3  A    between atoms: O_3  and  C_4
REMARK    4  A    between atoms: C_12  and  S_13
REMARK    5  A    between atoms: S_13  and  N_16
REMARK                            x       y       z     vdW  Elec       q    Type
REMARK                         _______ _______ _______ _____ _____    ______ ____
ROOT
ATOM      1  C   UNL     1       2.348   7.036  19.092  0.00  0.00    +0.000 A 
ATOM      2  C   UNL     1       2.006   8.344  18.688  0.00  0.00    +0.000 A 
ATOM      3  C   UNL     1       1.297   9.194  19.549  0.00  0.00    +0.000 A 
ATOM      4  C   UNL     1       0.931   8.751  20.823  0.00  0.00    +0.000 A 
ATOM      5  C   UNL     1       1.241   7.445  21.214  0.00  0.00    +0.000 A 
ATOM      6  C   UNL     1       1.941   6.582  20.356  0.00  0.00    +0.000 A 
ATOM      7 CL   UNL     1       2.203   4.976  20.934  0.00  0.00    +0.000 Cl
ENDROOT
BRANCH   3   8
ATOM      8  S   UNL     1       1.061  10.920  19.109  0.00  0.00    +0.000 S 
ATOM      9  O   UNL     1       1.081  11.665  20.349  0.00  0.00    +0.000 OA
ATOM     10  O   UNL     1       2.008  11.205  18.050  0.00  0.00    +0.000 OA
BRANCH   8  11
ATOM     11  N   UNL     1      -0.515  11.005  18.458  0.00  0.00    +0.000 NA
ATOM     12  C   UNL     1      -0.899   9.885  17.565  0.00  0.00    +0.000 C 
ATOM     13  C   UNL     1      -2.225  10.150  16.861  0.00  0.00    +0.000 C 
ATOM     14  C   UNL     1      -3.315  10.501  17.863  0.00  0.00    +0.000 C 
ATOM     15  C   UNL     1      -2.892  11.735  18.644  0.00  0.00    +0.000 C 
ATOM     16  C   UNL     1      -1.572  11.498  19.376  0.00  0.00    +0.000 C 
ENDBRANCH   8  11
ENDBRANCH   3   8
BRANCH   1  18
ATOM     17  O   UNL     1       2.644   5.149  17.686  0.00  0.00    +0.000 OA
ATOM     18  C   UNL     1       3.092   6.206  18.106  0.00  0.00    +0.000 C 
BRANCH  18  19
ATOM     19  O   UNL     1       4.264   6.834  17.717  0.00  0.00    +0.000 OA
BRANCH  19  20
ATOM     20  C   UNL     1       5.276   6.115  17.057  0.00  0.00    +0.000 A 
ATOM     21  C   UNL     1       6.199   5.301  17.702  0.00  0.00    +0.000 A 
ATOM     22  C   UNL     1       7.141   4.612  16.937  0.00  0.00    +0.000 A 
ATOM     23  C   UNL     1       7.106   4.753  15.556  0.00  0.00    +0.000 A 
ATOM     24  N   UNL     1       6.204   5.516  14.901  0.00  0.00    +0.000 NA
ATOM     25  C   UNL     1       5.303   6.176  15.668  0.00  0.00    +0.000 A 
ENDBRANCH  19  20
ENDBRANCH  18  19
ENDBRANCH   1  18
TORSDOF 5
ENDMDL
MODEL 4
REMARK VINA RESULT:      -7.5      3.706      7.085
REMARK  Name = 
REMARK  5 active torsions:
REMARK  status: ('A' for Active; 'I' for Inactive)
REMARK    1  A    between atoms: C_2  and  O_3
REMARK    2  A    between atoms: C_2  and  C_10
REMARK    3  A    between atoms: O_3  and  C_4
REMARK    4  A    between atoms: C_12  and  S_13
REMARK    5  A    between atoms: S_13  and  N_16
REMARK                            x       y       z     vdW  Elec       q    Type
REMARK                         _______ _______ _______ _____ _____    ______ ____
ROOT
ATOM      1  C   UNL     1       2.508   4.505  18.891  0.00  0.00    +0.000 A 
ATOM      2  C   UNL     1       3.693   4.902  18.235  0.00  0.00    +0.000 A 
ATOM      3  C   UNL     1       4.228   4.124  17.198  0.00  0.00    +0.000 A 
ATOM      4  C   UNL     1       3.583   2.950  16.801  0.00  0.00    +0.000 A 
ATOM      5  C   UNL     1       2.426   2.539  17.470  0.00  0.00    +0.000 A 
ATOM      6  C   UNL     1       1.887   3.304  18.516  0.00  0.00    +0.000 A 
ATOM      7 CL   UNL     1       0.495   2.652  19.301  0.00  0.00    +0.000 Cl
ENDROOT
BRANCH   3   8
ATOM      8  S   UNL     1       5.607   4.750  16.230  0.00  0.00    +0.000 S 
ATOM      9  O   UNL     1       6.474   3.619  15.976  0.00  0.00    +0.000 OA
ATOM     10  O   UNL     1       5.030   5.510  15.139  0.00  0.00    +0.000 OA
BRANCH   8  11
ATOM     11  N   UNL     1       6.427   5.832  17.265  0.00  0.00    +0.000 NA
ATOM     12  C   UNL     1       7.423   5.216  18.174  0.00  0.00    +0.000 C 
ATOM     13  C   UNL     1       7.944   6.213  19.204  0.00  0.00    +0.000 C 
ATOM     14  C   UNL     1       8.466   7.473  18.529  0.00  0.00    +0.000 C 
ATOM     15  C   UNL     1       7.342   8.105  17.724  0.00  0.00    +0.000 C 
ATOM     16  C   UNL     1       6.808   7.138  16.670  0.00  0.00    +0.000 C 
ENDBRANCH   8  11
ENDBRANCH   3   8
BRANCH   1  18
ATOM     17  O   UNL     1       1.176   5.019  20.785  0.00  0.00    +0.000 OA
ATOM     18  C   UNL     1       2.022   5.391  19.984  0.00  0.00    +0.000 C 
BRANCH  18  19
ATOM     19  O   UNL     1       2.704   6.597  19.984  0.00  0.00    +0.000 OA
BRANCH  19  20
ATOM     20  C   UNL     1       2.075   7.775  19.545  0.00  0.00    +0.000 A 
ATOM     21  C   UNL     1       2.090   8.221  18.229  0.00  0.00    +0.000 A 
ATOM     22  C   UNL     1       1.403   9.392  17.906  0.00  0.00    +0.000 A 
ATOM     23  C   UNL     1       0.713  10.056  18.912  0.00  0.00    +0.000 A 
ATOM     24  N   UNL     1       0.658   9.630  20.193  0.00  0.00    +0.000 NA
ATOM     25  C   UNL     1       1.337   8.492  20.480  0.00  0.00    +0.000 A 
ENDBRANCH  19  20
ENDBRANCH  18  19
ENDBRANCH   1  18
TORSDOF 5
ENDMDL
MODEL 5
REMARK VINA RESULT:      -7.4      3.722      7.091
REMARK  Name = 
REMARK  5 active torsions:
REMARK  status: ('A' for Active; 'I' for Inactive)
REMARK    1  A    between atoms: C_2  and  O_3
REMARK    2  A    between atoms: C_2  and  C_10
REMARK    3  A    between atoms: O_3  and  C_4
REMARK    4  A    between atoms: C_12  and  S_13
REMARK    5  A    between atoms: S_13  and  N_16
REMARK                            x       y       z     vdW  Elec       q    Type
REMARK                         _______ _______ _______ _____ _____    ______ ____
ROOT
ATOM      1  C   UNL     1       2.524   4.785  18.824  0.00  0.00    +0.000 A 
ATOM      2  C   UNL     1       3.623   5.247  18.069  0.00  0.00    +0.000 A 
ATOM      3  C   UNL     1       4.140   4.476  17.017  0.00  0.00    +0.000 A 
ATOM      4  C   UNL     1       3.560   3.244  16.704  0.00  0.00    +0.000 A 
ATOM      5  C   UNL     1       2.491   2.770  17.470  0.00  0.00    +0.000 A 
ATOM      6  C   UNL     1       1.972   3.528  18.532  0.00  0.00    +0.000 A 
ATOM      7 CL   UNL     1       0.696   2.801  19.438  0.00  0.00    +0.000 Cl
ENDROOT
BRANCH   3   8
ATOM      8  S   UNL     1       5.391   5.169  15.931  0.00  0.00    +0.000 S 
ATOM      9  O   UNL     1       5.862   4.080  15.102  0.00  0.00    +0.000 OA
ATOM     10  O   UNL     1       4.810   6.359  15.342  0.00  0.00    +0.000 OA
BRANCH   8  11
ATOM     11  N   UNL     1       6.666   5.647  16.961  0.00  0.00    +0.000 NA
ATOM     12  C   UNL     1       6.698   7.088  17.311  0.00  0.00    +0.000 C 
ATOM     13  C   UNL     1       7.979   7.465  18.047  0.00  0.00    +0.000 C 
ATOM     14  C   UNL     1       8.202   6.563  19.252  0.00  0.00    +0.000 C 
ATOM     15  C   UNL     1       8.283   5.119  18.784  0.00  0.00    +0.000 C 
ATOM     16  C   UNL     1       7.007   4.704  18.055  0.00  0.00    +0.000 C 
ENDBRANCH   8  11
ENDBRANCH   3   8
BRANCH   1  18
ATOM     17  O   UNL     1       1.268   5.274  20.775  0.00  0.00    +0.000 OA
ATOM     18  C   UNL     1       2.052   5.669  19.925  0.00  0.00    +0.000 C 
BRANCH  18  19
ATOM     19  O   UNL     1       2.673   6.906  19.866  0.00  0.00    +0.000 OA
BRANCH  19  20
ATOM     20  C   UNL     1       1.950   8.054  19.500  0.00  0.00    +0.000 A 
ATOM     21  C   UNL     1       1.863   8.538  18.200  0.00  0.00    +0.000 A 
ATOM     22  C   UNL     1       1.089   9.671  17.953  0.00  0.00    +0.000 A 
ATOM     23  C   UNL     1       0.417  10.262  19.016  0.00  0.00    +0.000 A 
ATOM     24  N   UNL     1       0.462   9.798  20.283  0.00  0.00    +0.000 NA
ATOM     25  C   UNL     1       1.224   8.697  20.497  0.00  0.00    +0.000 A 
ENDBRANCH  19  20
ENDBRANCH  18  19
ENDBRANCH   1  18
TORSDOF 5
ENDMDL
MODEL 6
REMARK VINA RESULT:      -7.4      4.213      7.301
REMARK  Name = 
REMARK  5 active torsions:
REMARK  status: ('A' for Active; 'I' for Inactive)
REMARK    1  A    between atoms: C_2  and  O_3
REMARK    2  A    between atoms: C_2  and  C_10
REMARK    3  A    between atoms: O_3  and  C_4
REMARK    4  A    between atoms: C_12  and  S_13
REMARK    5  A    between atoms: S_13  and  N_16
REMARK                            x       y       z     vdW  Elec       q    Type
REMARK                         _______ _______ _______ _____ _____    ______ ____
ROOT
ATOM      1  C   UNL     1       2.144   7.285  19.018  0.00  0.00    +0.000 A 
ATOM      2  C   UNL     1       2.672   6.197  18.289  0.00  0.00    +0.000 A 
ATOM      3  C   UNL     1       2.790   4.932  18.884  0.00  0.00    +0.000 A 
ATOM      4  C   UNL     1       2.377   4.739  20.205  0.00  0.00    +0.000 A 
ATOM      5  C   UNL     1       1.884   5.823  20.938  0.00  0.00    +0.000 A 
ATOM      6  C   UNL     1       1.770   7.095  20.357  0.00  0.00    +0.000 A 
ATOM      7 CL   UNL     1       1.207   8.359  21.390  0.00  0.00    +0.000 Cl
ENDROOT
BRANCH   3   8
ATOM      8  S   UNL     1       3.256   3.514  17.884  0.00  0.00    +0.000 S 
ATOM      9  O   UNL     1       3.374   2.394  18.792  0.00  0.00    +0.000 OA
ATOM     10  O   UNL     1       2.330   3.478  16.769  0.00  0.00    +0.000 OA
BRANCH   8  11
ATOM     11  N   UNL     1       4.810   3.881  17.280  0.00  0.00    +0.000 NA
ATOM     12  C   UNL     1       4.849   4.396  15.890  0.00  0.00    +0.000 C 
ATOM     13  C   UNL     1       6.276   4.488  15.359  0.00  0.00    +0.000 C 
ATOM     14  C   UNL     1       7.160   5.287  16.306  0.00  0.00    +0.000 C 
ATOM     15  C   UNL     1       7.160   4.615  17.670  0.00  0.00    +0.000 C 
ATOM     16  C   UNL     1       5.746   4.521  18.238  0.00  0.00    +0.000 C 
ENDBRANCH   8  11
ENDBRANCH   3   8
BRANCH   1  18
ATOM     17  O   UNL     1       2.506   8.732  17.175  0.00  0.00    +0.000 OA
ATOM     18  C   UNL     1       2.066   8.590  18.306  0.00  0.00    +0.000 C 
BRANCH  18  19
ATOM     19  O   UNL     1       1.384   9.527  19.065  0.00  0.00    +0.000 OA
BRANCH  19  20
ATOM     20  C   UNL     1       0.268  10.200  18.539  0.00  0.00    +0.000 A 
ATOM     21  C   UNL     1      -0.732   9.585  17.795  0.00  0.00    +0.000 A 
ATOM     22  C   UNL     1      -1.809  10.352  17.349  0.00  0.00    +0.000 A 
ATOM     23  C   UNL     1      -1.849  11.699  17.685  0.00  0.00    +0.000 A 
ATOM     24  N   UNL     1      -0.906  12.316  18.430  0.00  0.00    +0.000 NA
ATOM     25  C   UNL     1       0.131  11.549  18.846  0.00  0.00    +0.000 A 
ENDBRANCH  19  20
ENDBRANCH  18  19
ENDBRANCH   1  18
TORSDOF 5
ENDMDL
MODEL 7
REMARK VINA RESULT:      -7.3      3.443      7.635
REMARK  Name = 
REMARK  5 active torsions:
REMARK  status: ('A' for Active; 'I' for Inactive)
REMARK    1  A    between atoms: C_2  and  O_3
REMARK    2  A    between atoms: C_2  and  C_10
REMARK    3  A    between atoms: O_3  and  C_4
REMARK    4  A    between atoms: C_12  and  S_13
REMARK    5  A    between atoms: S_13  and  N_16
REMARK                            x       y       z     vdW  Elec       q    Type
REMARK                         _______ _______ _______ _____ _____    ______ ____
ROOT
ATOM      1  C   UNL     1       3.328   5.968  18.005  0.00  0.00    +0.000 A 
ATOM      2  C   UNL     1       4.658   6.160  17.574  0.00  0.00    +0.000 A 
ATOM      3  C   UNL     1       5.383   5.102  17.007  0.00  0.00    +0.000 A 
ATOM      4  C   UNL     1       4.787   3.847  16.856  0.00  0.00    +0.000 A 
ATOM      5  C   UNL     1       3.480   3.646  17.311  0.00  0.00    +0.000 A 
ATOM      6  C   UNL     1       2.748   4.694  17.890  0.00  0.00    +0.000 A 
ATOM      7 CL   UNL     1       1.171   4.297  18.468  0.00  0.00    +0.000 Cl
ENDROOT
BRANCH   3   8
ATOM      8  S   UNL     1       6.990   5.414  16.267  0.00  0.00    +0.000 S 
ATOM      9  O   UNL     1       7.238   6.833  16.410  0.00  0.00    +0.000 OA
ATOM     10  O   UNL     1       7.899   4.436  16.833  0.00  0.00    +0.000 OA
BRANCH   8  11
ATOM     11  N   UNL     1       6.795   5.069  14.606  0.00  0.00    +0.000 NA
ATOM     12  C   UNL     1       7.926   5.467  13.734  0.00  0.00    +0.000 C 
ATOM     13  C   UNL     1       7.581   5.324  12.256  0.00  0.00    +0.000 C 
ATOM     14  C   UNL     1       7.066   3.926  11.948  0.00  0.00    +0.000 C 
ATOM     15  C   UNL     1       5.833   3.654  12.794  0.00  0.00    +0.000 C 
ATOM     16  C   UNL     1       6.148   3.773  14.283  0.00  0.00    +0.000 C 
ENDBRANCH   8  11
ENDBRANCH   3   8
BRANCH   1  18
ATOM     17  O   UNL     1       2.404   7.214  19.798  0.00  0.00    +0.000 OA
ATOM     18  C   UNL     1       2.642   7.146  18.602  0.00  0.00    +0.000 C 
BRANCH  18  19
ATOM     19  O   UNL     1       2.408   8.119  17.643  0.00  0.00    +0.000 OA
BRANCH  19  20
ATOM     20  C   UNL     1       1.783   9.330  17.989  0.00  0.00    +0.000 A 
ATOM     21  C   UNL     1       2.457  10.534  18.154  0.00  0.00    +0.000 A 
ATOM     22  C   UNL     1       1.726  11.679  18.469  0.00  0.00    +0.000 A 
ATOM     23  C   UNL     1       0.346  11.573  18.587  0.00  0.00    +0.000 A 
ATOM     24  N   UNL     1      -0.338  10.423  18.406  0.00  0.00    +0.000 NA
ATOM     25  C   UNL     1       0.398   9.325  18.104  0.00  0.00    +0.000 A 
ENDBRANCH  19  20
ENDBRANCH  18  19
ENDBRANCH   1  18
TORSDOF 5
ENDMDL
MODEL 8
REMARK VINA RESULT:      -7.3      4.342      7.470
REMARK  Name = 
REMARK  5 active torsions:
REMARK  status: ('A' for Active; 'I' for Inactive)
REMARK    1  A    between atoms: C_2  and  O_3
REMARK    2  A    between atoms: C_2  and  C_10
REMARK    3  A    between atoms: O_3  and  C_4
REMARK    4  A    between atoms: C_12  and  S_13
REMARK    5  A    between atoms: S_13  and  N_16
REMARK                            x       y       z     vdW  Elec       q    Type
REMARK                         _______ _______ _______ _____ _____    ______ ____
ROOT
ATOM      1  C   UNL     1       2.079   7.493  19.028  0.00  0.00    +0.000 A 
ATOM      2  C   UNL     1       2.701   6.462  18.293  0.00  0.00    +0.000 A 
ATOM      3  C   UNL     1       2.865   5.186  18.853  0.00  0.00    +0.000 A 
ATOM      4  C   UNL     1       2.403   4.926  20.146  0.00  0.00    +0.000 A 
ATOM      5  C   UNL     1       1.814   5.955  20.888  0.00  0.00    +0.000 A 
ATOM      6  C   UNL     1       1.654   7.238  20.341  0.00  0.00    +0.000 A 
ATOM      7 CL   UNL     1       0.972   8.433  21.384  0.00  0.00    +0.000 Cl
ENDROOT
BRANCH   3   8
ATOM      8  S   UNL     1       3.457   3.831  17.834  0.00  0.00    +0.000 S 
ATOM      9  O   UNL     1       3.994   2.840  18.741  0.00  0.00    +0.000 OA
ATOM     10  O   UNL     1       2.379   3.502  16.922  0.00  0.00    +0.000 OA
BRANCH   8  11
ATOM     11  N   UNL     1       4.748   4.482  16.926  0.00  0.00    +0.000 NA
ATOM     12  C   UNL     1       6.033   4.624  17.654  0.00  0.00    +0.000 C 
ATOM     13  C   UNL     1       7.060   5.408  16.844  0.00  0.00    +0.000 C 
ATOM     14  C   UNL     1       7.235   4.809  15.457  0.00  0.00    +0.000 C 
ATOM     15  C   UNL     1       5.895   4.822  14.739  0.00  0.00    +0.000 C 
ATOM     16  C   UNL     1       4.846   4.030  15.516  0.00  0.00    +0.000 C 
ENDBRANCH   8  11
ENDBRANCH   3   8
BRANCH   1  18
ATOM     17  O   UNL     1       2.462   9.027  17.260  0.00  0.00    +0.000 OA
ATOM     18  C   UNL     1       1.958   8.814  18.353  0.00  0.00    +0.000 C 
BRANCH  18  19
ATOM     19  O   UNL     1       1.164   9.676  19.093  0.00  0.00    +0.000 OA
BRANCH  19  20
ATOM     20  C   UNL     1       0.041  10.290  18.513  0.00  0.00    +0.000 A 
ATOM     21  C   UNL     1      -0.895   9.623  17.732  0.00  0.00    +0.000 A 
ATOM     22  C   UNL     1      -1.988  10.332  17.234  0.00  0.00    +0.000 A 
ATOM     23  C   UNL     1      -2.107  11.678  17.555  0.00  0.00    +0.000 A 
ATOM     24  N   UNL     1      -1.228  12.346  18.333  0.00  0.00    +0.000 NA
ATOM     25  C   UNL     1      -0.175  11.634  18.801  0.00  0.00    +0.000 A 
ENDBRANCH  19  20
ENDBRANCH  18  19
ENDBRANCH   1  18
TORSDOF 5
ENDMDL
MODEL 9
REMARK VINA RESULT:      -7.3      5.174      6.620
REMARK  Name = 
REMARK  5 active torsions:
REMARK  status: ('A' for Active; 'I' for Inactive)
REMARK    1  A    between atoms: C_2  and  O_3
REMARK    2  A    between atoms: C_2  and  C_10
REMARK    3  A    between atoms: O_3  and  C_4
REMARK    4  A    between atoms: C_12  and  S_13
REMARK    5  A    between atoms: S_13  and  N_16
REMARK                            x       y       z     vdW  Elec       q    Type
REMARK                         _______ _______ _______ _____ _____    ______ ____
ROOT
ATOM      1  C   UNL     1       2.348   6.819  19.124  0.00  0.00    +0.000 A 
ATOM      2  C   UNL     1       1.953   8.120  18.744  0.00  0.00    +0.000 A 
ATOM      3  C   UNL     1       1.274   8.951  19.647  0.00  0.00    +0.000 A 
ATOM      4  C   UNL     1       0.991   8.496  20.938  0.00  0.00    +0.000 A 
ATOM      5  C   UNL     1       1.352   7.197  21.306  0.00  0.00    +0.000 A 
ATOM      6  C   UNL     1       2.023   6.353  20.407  0.00  0.00    +0.000 A 
ATOM      7 CL   UNL     1       2.355   4.753  20.964  0.00  0.00    +0.000 Cl
ENDROOT
BRANCH   3   8
ATOM      8  S   UNL     1       0.973  10.671  19.227  0.00  0.00    +0.000 S 
ATOM      9  O   UNL     1       1.198  11.434  20.437  0.00  0.00    +0.000 OA
ATOM     10  O   UNL     1       1.734  10.938  18.023  0.00  0.00    +0.000 OA
BRANCH   8  11
ATOM     11  N   UNL     1      -0.688  10.756  18.842  0.00  0.00    +0.000 NA
ATOM     12  C   UNL     1      -1.333  12.070  19.079  0.00  0.00    +0.000 C 
ATOM     13  C   UNL     1      -2.848  11.996  18.919  0.00  0.00    +0.000 C 
ATOM     14  C   UNL     1      -3.226  11.391  17.575  0.00  0.00    +0.000 C 
ATOM     15  C   UNL     1      -2.629   9.996  17.474  0.00  0.00    +0.000 C 
ATOM     16  C   UNL     1      -1.109  10.036  17.614  0.00  0.00    +0.000 C 
ENDBRANCH   8  11
ENDBRANCH   3   8
BRANCH   1  18
ATOM     17  O   UNL     1       2.567   4.990  17.632  0.00  0.00    +0.000 OA
ATOM     18  C   UNL     1       3.055   6.009  18.095  0.00  0.00    +0.000 C 
BRANCH  18  19
ATOM     19  O   UNL     1       4.246   6.613  17.724  0.00  0.00    +0.000 OA
BRANCH  19  20
ATOM     20  C   UNL     1       5.199   5.911  16.966  0.00  0.00    +0.000 A 
ATOM     21  C   UNL     1       5.240   5.909  15.577  0.00  0.00    +0.000 A 
ATOM     22  C   UNL     1       6.253   5.198  14.933  0.00  0.00    +0.000 A 
ATOM     23  C   UNL     1       7.194   4.534  15.709  0.00  0.00    +0.000 A 
ATOM     24  N   UNL     1       7.194   4.541  17.060  0.00  0.00    +0.000 NA
ATOM     25  C   UNL     1       6.198   5.236  17.659  0.00  0.00    +0.000 A 
ENDBRANCH  19  20
ENDBRANCH  18  19
ENDBRANCH   1  18
TORSDOF 5
ENDMDL
