MODEL 1
REMARK VINA RESULT:      -8.2      0.000      0.000
REMARK  Name = 
REMARK  5 active torsions:
REMARK  status: ('A' for Active; 'I' for Inactive)
REMARK    1  A    between atoms: C_1  and  C_2
REMARK    2  A    between atoms: N_4  and  C_5
REMARK    3  A    between atoms: C_5  and  C_6
REMARK    4  A    between atoms: C_14  and  C_15
REMARK    5  A    between atoms: N_17  and  C_18
REMARK                            x       y       z     vdW  Elec       q    Type
REMARK                         _______ _______ _______ _____ _____    ______ ____
ROOT
ATOM      1  C   UNL     1       2.407   2.870  21.537  0.00  0.00    +0.000 C 
ATOM      2  C   UNL     1       2.758   3.835  20.474  0.00  0.00    +0.000 A 
ATOM      3  N   UNL     1       3.555   3.484  19.430  0.00  0.00    +0.000 NA
ATOM      4  N   UNL     1       3.555   4.673  18.730  0.00  0.00    +0.000 N 
ATOM      5  C   UNL     1       2.831   5.671  19.305  0.00  0.00    +0.000 A 
ATOM      6  N   UNL     1       2.559   6.956  19.037  0.00  0.00    +0.000 NA
ATOM      7  C   UNL     1       1.811   7.303  20.081  0.00  0.00    +0.000 A 
ATOM      8  N   UNL     1       1.636   6.250  20.977  0.00  0.00    +0.000 N 
ATOM      9  C   UNL     1       2.312   5.189  20.446  0.00  0.00    +0.000 A 
ATOM     10  H   UNL     1       1.122   6.279  21.846  0.00  0.00    +0.000 HD
ENDROOT
BRANCH   7  11
ATOM     11  C   UNL     1       1.236   8.671  20.283  0.00  0.00    +0.000 A 
ATOM     12  N   UNL     1       0.639   9.023  21.438  0.00  0.00    +0.000 NA
ATOM     13  N   UNL     1       0.305  10.315  21.233  0.00  0.00    +0.000 N 
ATOM     14  C   UNL     1      -0.317  11.086  22.284  0.00  0.00    +0.000 C 
ATOM     15  C   UNL     1       0.623  10.779  19.993  0.00  0.00    +0.000 A 
ATOM     16  C   UNL     1       1.240   9.737  19.348  0.00  0.00    +0.000 A 
ATOM     17 CL   UNL     1       1.850   9.764  17.766  0.00  0.00    +0.000 Cl
ENDBRANCH   7  11
BRANCH   4  18
ATOM     18  C   UNL     1       4.381   4.874  17.555  0.00  0.00    +0.000 C 
BRANCH  18  19
ATOM     19  C   UNL     1       5.655   5.612  17.879  0.00  0.00    +0.000 A 
ATOM     20  C   UNL     1       6.502   5.166  18.906  0.00  0.00    +0.000 A 
ATOM     21  C   UNL     1       7.685   5.849  19.191  0.00  0.00    +0.000 A 
ATOM     22  C   UNL     1       8.032   6.984  18.459  0.00  0.00    +0.000 A 
ATOM     23  C   UNL     1       7.191   7.443  17.447  0.00  0.00    +0.000 A 
ATOM     24  C   UNL     1       6.006   6.763  17.160  0.00  0.00    +0.000 A 
ENDBRANCH  18  19
ENDBRANCH   4  18
TORSDOF 3
ENDMDL
MODEL 2
REMARK VINA RESULT:      -8.1      0.187      1.023
REMARK  Name = 
REMARK  5 active torsions:
REMARK  status: ('A' for Active; 'I' for Inactive)
REMARK    1  A    between atoms: C_1  and  C_2
REMARK    2  A    between atoms: N_4  and  C_5
REMARK    3  A    between atoms: C_5  and  C_6
REMARK    4  A    between atoms: C_14  and  C_15
REMARK    5  A    between atoms: N_17  and  C_18
REMARK                            x       y       z     vdW  Elec       q    Type
REMARK                         _______ _______ _______ _____ _____    ______ ____
ROOT
ATOM      1  C   UNL     1       2.528   2.735  21.548  0.00  0.00    +0.000 C 
ATOM      2  C   UNL     1       2.875   3.688  20.473  0.00  0.00    +0.000 A 
ATOM      3  N   UNL     1       3.673   3.327  19.434  0.00  0.00    +0.000 NA
ATOM      4  N   UNL     1       3.669   4.506  18.718  0.00  0.00    +0.000 N 
ATOM      5  C   UNL     1       2.941   5.509  19.280  0.00  0.00    +0.000 A 
ATOM      6  N   UNL     1       2.664   6.789  18.996  0.00  0.00    +0.000 NA
ATOM      7  C   UNL     1       1.915   7.147  20.034  0.00  0.00    +0.000 A 
ATOM      8  N   UNL     1       1.743   6.105  20.944  0.00  0.00    +0.000 N 
ATOM      9  C   UNL     1       2.423   5.040  20.427  0.00  0.00    +0.000 A 
ATOM     10  H   UNL     1       1.229   6.143  21.813  0.00  0.00    +0.000 HD
ENDROOT
BRANCH   7  11
ATOM     11  C   UNL     1       1.334   8.514  20.219  0.00  0.00    +0.000 A 
ATOM     12  N   UNL     1       0.792   8.900  21.390  0.00  0.00    +0.000 NA
ATOM     13  N   UNL     1       0.432  10.181  21.158  0.00  0.00    +0.000 N 
ATOM     14  C   UNL     1      -0.145  10.981  22.212  0.00  0.00    +0.000 C 
ATOM     15  C   UNL     1       0.683  10.606  19.889  0.00  0.00    +0.000 A 
ATOM     16  C   UNL     1       1.279   9.548  19.249  0.00  0.00    +0.000 A 
ATOM     17 CL   UNL     1       1.809   9.527  17.639  0.00  0.00    +0.000 Cl
ENDBRANCH   7  11
BRANCH   4  18
ATOM     18  C   UNL     1       4.495   4.695  17.541  0.00  0.00    +0.000 C 
BRANCH  18  19
ATOM     19  C   UNL     1       5.714   5.531  17.833  0.00  0.00    +0.000 A 
ATOM     20  C   UNL     1       5.954   6.722  17.131  0.00  0.00    +0.000 A 
ATOM     21  C   UNL     1       7.079   7.496  17.416  0.00  0.00    +0.000 A 
ATOM     22  C   UNL     1       7.979   7.086  18.400  0.00  0.00    +0.000 A 
ATOM     23  C   UNL     1       7.757   5.898  19.094  0.00  0.00    +0.000 A 
ATOM     24  C   UNL     1       6.633   5.121  18.810  0.00  0.00    +0.000 A 
ENDBRANCH  18  19
ENDBRANCH   4  18
TORSDOF 3
ENDMDL
MODEL 3
REMARK VINA RESULT:      -8.0      1.423      1.903
REMARK  Name = 
REMARK  5 active torsions:
REMARK  status: ('A' for Active; 'I' for Inactive)
REMARK    1  A    between atoms: C_1  and  C_2
REMARK    2  A    between atoms: N_4  and  C_5
REMARK    3  A    between atoms: C_5  and  C_6
REMARK    4  A    between atoms: C_14  and  C_15
REMARK    5  A    between atoms: N_17  and  C_18
REMARK                            x       y       z     vdW  Elec       q    Type
REMARK                         _______ _______ _______ _____ _____    ______ ____
ROOT
ATOM      1  C   UNL     1       2.081   3.372  21.621  0.00  0.00    +0.000 C 
ATOM      2  C   UNL     1       2.490   4.261  20.514  0.00  0.00    +0.000 A 
ATOM      3  N   UNL     1       3.256   3.810  19.485  0.00  0.00    +0.000 NA
ATOM      4  N   UNL     1       3.332   4.963  18.731  0.00  0.00    +0.000 N 
ATOM      5  C   UNL     1       2.680   6.033  19.261  0.00  0.00    +0.000 A 
ATOM      6  N   UNL     1       2.494   7.319  18.936  0.00  0.00    +0.000 NA
ATOM      7  C   UNL     1       1.777   7.764  19.964  0.00  0.00    +0.000 A 
ATOM      8  N   UNL     1       1.536   6.767  20.908  0.00  0.00    +0.000 N 
ATOM      9  C   UNL     1       2.136   5.640  20.425  0.00  0.00    +0.000 A 
ATOM     10  H   UNL     1       1.031   6.870  21.776  0.00  0.00    +0.000 HD
ENDROOT
BRANCH   7  11
ATOM     11  C   UNL     1       1.297   9.175  20.105  0.00  0.00    +0.000 A 
ATOM     12  N   UNL     1       1.202   9.999  19.045  0.00  0.00    +0.000 NA
ATOM     13  N   UNL     1       0.702  11.134  19.577  0.00  0.00    +0.000 N 
ATOM     14  C   UNL     1       0.394  12.265  18.734  0.00  0.00    +0.000 C 
ATOM     15  C   UNL     1       0.518  11.079  20.925  0.00  0.00    +0.000 A 
ATOM     16  C   UNL     1       0.887   9.813  21.304  0.00  0.00    +0.000 A 
ATOM     17 CL   UNL     1       0.853   9.194  22.882  0.00  0.00    +0.000 Cl
ENDBRANCH   7  11
BRANCH   4  18
ATOM     18  C   UNL     1       4.163   5.054  17.546  0.00  0.00    +0.000 C 
BRANCH  18  19
ATOM     19  C   UNL     1       5.490   5.708  17.835  0.00  0.00    +0.000 A 
ATOM     20  C   UNL     1       5.883   6.868  17.150  0.00  0.00    +0.000 A 
ATOM     21  C   UNL     1       7.109   7.473  17.431  0.00  0.00    +0.000 A 
ATOM     22  C   UNL     1       7.955   6.925  18.394  0.00  0.00    +0.000 A 
ATOM     23  C   UNL     1       7.580   5.765  19.070  0.00  0.00    +0.000 A 
ATOM     24  C   UNL     1       6.356   5.157  18.790  0.00  0.00    +0.000 A 
ENDBRANCH  18  19
ENDBRANCH   4  18
TORSDOF 3
ENDMDL
MODEL 4
REMARK VINA RESULT:      -8.0      4.009      7.866
REMARK  Name = 
REMARK  5 active torsions:
REMARK  status: ('A' for Active; 'I' for Inactive)
REMARK    1  A    between atoms: C_1  and  C_2
REMARK    2  A    between atoms: N_4  and  C_5
REMARK    3  A    between atoms: C_5  and  C_6
REMARK    4  A    between atoms: C_14  and  C_15
REMARK    5  A    between atoms: N_17  and  C_18
REMARK                            x       y       z     vdW  Elec       q    Type
REMARK                         _______ _______ _______ _____ _____    ______ ____
ROOT
ATOM      1  C   UNL     1       7.941   5.426  19.589  0.00  0.00    +0.000 C 
ATOM      2  C   UNL     1       6.737   5.562  18.743  0.00  0.00    +0.000 A 
ATOM      3  N   UNL     1       5.580   6.082  19.231  0.00  0.00    +0.000 NA
ATOM      4  N   UNL     1       4.803   6.027  18.092  0.00  0.00    +0.000 N 
ATOM      5  C   UNL     1       5.428   5.503  17.003  0.00  0.00    +0.000 A 
ATOM      6  N   UNL     1       5.103   5.226  15.733  0.00  0.00    +0.000 NA
ATOM      7  C   UNL     1       6.226   4.682  15.272  0.00  0.00    +0.000 A 
ATOM      8  N   UNL     1       7.220   4.620  16.248  0.00  0.00    +0.000 N 
ATOM      9  C   UNL     1       6.674   5.166  17.374  0.00  0.00    +0.000 A 
ATOM     10  H   UNL     1       8.147   4.236  16.138  0.00  0.00    +0.000 HD
ENDROOT
BRANCH   7  11
ATOM     11  C   UNL     1       6.402   4.179  13.873  0.00  0.00    +0.000 A 
ATOM     12  N   UNL     1       5.669   3.157  13.392  0.00  0.00    +0.000 NA
ATOM     13  N   UNL     1       6.094   3.044  12.116  0.00  0.00    +0.000 N 
ATOM     14  C   UNL     1       5.495   2.077  11.227  0.00  0.00    +0.000 C 
ATOM     15  C   UNL     1       7.087   3.915  11.783  0.00  0.00    +0.000 A 
ATOM     16  C   UNL     1       7.308   4.677  12.903  0.00  0.00    +0.000 A 
ATOM     17 CL   UNL     1       8.442   5.930  13.048  0.00  0.00    +0.000 Cl
ENDBRANCH   7  11
BRANCH   4  18
ATOM     18  C   UNL     1       3.393   6.366  18.105  0.00  0.00    +0.000 C 
BRANCH  18  19
ATOM     19  C   UNL     1       2.553   5.268  18.705  0.00  0.00    +0.000 A 
ATOM     20  C   UNL     1       2.198   5.295  20.062  0.00  0.00    +0.000 A 
ATOM     21  C   UNL     1       1.410   4.280  20.606  0.00  0.00    +0.000 A 
ATOM     22  C   UNL     1       0.973   3.226  19.804  0.00  0.00    +0.000 A 
ATOM     23  C   UNL     1       1.332   3.183  18.458  0.00  0.00    +0.000 A 
ATOM     24  C   UNL     1       2.121   4.196  17.911  0.00  0.00    +0.000 A 
ENDBRANCH  18  19
ENDBRANCH   4  18
TORSDOF 3
ENDMDL
MODEL 5
REMARK VINA RESULT:      -7.9      4.040      7.931
REMARK  Name = 
REMARK  5 active torsions:
REMARK  status: ('A' for Active; 'I' for Inactive)
REMARK    1  A    between atoms: C_1  and  C_2
REMARK    2  A    between atoms: N_4  and  C_5
REMARK    3  A    between atoms: C_5  and  C_6
REMARK    4  A    between atoms: C_14  and  C_15
REMARK    5  A    between atoms: N_17  and  C_18
REMARK                            x       y       z     vdW  Elec       q    Type
REMARK                         _______ _______ _______ _____ _____    ______ ____
ROOT
ATOM      1  C   UNL     1       7.873   5.691  19.468  0.00  0.00    +0.000 C 
ATOM      2  C   UNL     1       6.650   5.683  18.638  0.00  0.00    +0.000 A 
ATOM      3  N   UNL     1       5.456   6.109  19.128  0.00  0.00    +0.000 NA
ATOM      4  N   UNL     1       4.672   5.940  18.005  0.00  0.00    +0.000 N 
ATOM      5  C   UNL     1       5.329   5.440  16.924  0.00  0.00    +0.000 A 
ATOM      6  N   UNL     1       5.015   5.089  15.669  0.00  0.00    +0.000 NA
ATOM      7  C   UNL     1       6.178   4.638  15.208  0.00  0.00    +0.000 A 
ATOM      8  N   UNL     1       7.186   4.705  16.169  0.00  0.00    +0.000 N 
ATOM      9  C   UNL     1       6.606   5.236  17.285  0.00  0.00    +0.000 A 
ATOM     10  H   UNL     1       8.144   4.406  16.056  0.00  0.00    +0.000 HD
ENDROOT
BRANCH   7  11
ATOM     11  C   UNL     1       6.383   4.105  13.825  0.00  0.00    +0.000 A 
ATOM     12  N   UNL     1       5.660   3.072  13.351  0.00  0.00    +0.000 NA
ATOM     13  N   UNL     1       6.110   2.933  12.086  0.00  0.00    +0.000 N 
ATOM     14  C   UNL     1       5.529   1.947  11.206  0.00  0.00    +0.000 C 
ATOM     15  C   UNL     1       7.109   3.796  11.755  0.00  0.00    +0.000 A 
ATOM     16  C   UNL     1       7.308   4.583  12.862  0.00  0.00    +0.000 A 
ATOM     17 CL   UNL     1       8.439   5.838  13.004  0.00  0.00    +0.000 Cl
ENDBRANCH   7  11
BRANCH   4  18
ATOM     18  C   UNL     1       3.237   6.145  18.030  0.00  0.00    +0.000 C 
BRANCH  18  19
ATOM     19  C   UNL     1       2.515   5.011  18.713  0.00  0.00    +0.000 A 
ATOM     20  C   UNL     1       2.327   3.783  18.060  0.00  0.00    +0.000 A 
ATOM     21  C   UNL     1       1.667   2.735  18.704  0.00  0.00    +0.000 A 
ATOM     22  C   UNL     1       1.185   2.904  20.002  0.00  0.00    +0.000 A 
ATOM     23  C   UNL     1       1.355   4.124  20.653  0.00  0.00    +0.000 A 
ATOM     24  C   UNL     1       2.013   5.175  20.011  0.00  0.00    +0.000 A 
ENDBRANCH  18  19
ENDBRANCH   4  18
TORSDOF 3
ENDMDL
MODEL 6
REMARK VINA RESULT:      -7.9      1.429      1.615
REMARK  Name = 
REMARK  5 active torsions:
REMARK  status: ('A' for Active; 'I' for Inactive)
REMARK    1  A    between atoms: C_1  and  C_2
REMARK    2  A    between atoms: N_4  and  C_5
REMARK    3  A    between atoms: C_5  and  C_6
REMARK    4  A    between atoms: C_14  and  C_15
REMARK    5  A    between atoms: N_17  and  C_18
REMARK                            x       y       z     vdW  Elec       q    Type
REMARK                         _______ _______ _______ _____ _____    ______ ____
ROOT
ATOM      1  C   UNL     1       2.081   3.348  21.272  0.00  0.00    +0.000 C 
ATOM      2  C   UNL     1       2.526   4.303  20.236  0.00  0.00    +0.000 A 
ATOM      3  N   UNL     1       3.352   3.922  19.226  0.00  0.00    +0.000 NA
ATOM      4  N   UNL     1       3.442   5.115  18.538  0.00  0.00    +0.000 N 
ATOM      5  C   UNL     1       2.741   6.142  19.089  0.00  0.00    +0.000 A 
ATOM      6  N   UNL     1       2.543   7.440  18.822  0.00  0.00    +0.000 NA
ATOM      7  C   UNL     1       1.767   7.816  19.834  0.00  0.00    +0.000 A 
ATOM      8  N   UNL     1       1.500   6.765  20.711  0.00  0.00    +0.000 N 
ATOM      9  C   UNL     1       2.147   5.677  20.201  0.00  0.00    +0.000 A 
ATOM     10  H   UNL     1       0.949   6.813  21.556  0.00  0.00    +0.000 HD
ENDROOT
BRANCH   7  11
ATOM     11  C   UNL     1       1.249   9.208  20.024  0.00  0.00    +0.000 A 
ATOM     12  N   UNL     1       1.067  10.043  18.984  0.00  0.00    +0.000 NA
ATOM     13  N   UNL     1       0.562  11.153  19.561  0.00  0.00    +0.000 N 
ATOM     14  C   UNL     1       0.169  12.285  18.754  0.00  0.00    +0.000 C 
ATOM     15  C   UNL     1       0.457  11.074  20.916  0.00  0.00    +0.000 A 
ATOM     16  C   UNL     1       0.888   9.816  21.254  0.00  0.00    +0.000 A 
ATOM     17 CL   UNL     1       0.965   9.175  22.822  0.00  0.00    +0.000 Cl
ENDBRANCH   7  11
BRANCH   4  18
ATOM     18  C   UNL     1       4.330   5.284  17.404  0.00  0.00    +0.000 C 
BRANCH  18  19
ATOM     19  C   UNL     1       5.664   5.855  17.811  0.00  0.00    +0.000 A 
ATOM     20  C   UNL     1       6.416   5.264  18.838  0.00  0.00    +0.000 A 
ATOM     21  C   UNL     1       7.655   5.793  19.200  0.00  0.00    +0.000 A 
ATOM     22  C   UNL     1       8.154   6.920  18.546  0.00  0.00    +0.000 A 
ATOM     23  C   UNL     1       7.409   7.522  17.534  0.00  0.00    +0.000 A 
ATOM     24  C   UNL     1       6.168   6.996  17.170  0.00  0.00    +0.000 A 
ENDBRANCH  18  19
ENDBRANCH   4  18
TORSDOF 3
ENDMDL
MODEL 7
REMARK VINA RESULT:      -7.8      2.649      7.470
REMARK  Name = 
REMARK  5 active torsions:
REMARK  status: ('A' for Active; 'I' for Inactive)
REMARK    1  A    between atoms: C_1  and  C_2
REMARK    2  A    between atoms: N_4  and  C_5
REMARK    3  A    between atoms: C_5  and  C_6
REMARK    4  A    between atoms: C_14  and  C_15
REMARK    5  A    between atoms: N_17  and  C_18
REMARK                            x       y       z     vdW  Elec       q    Type
REMARK                         _______ _______ _______ _____ _____    ______ ____
ROOT
ATOM      1  C   UNL     1      -0.009   9.600  23.452  0.00  0.00    +0.000 C 
ATOM      2  C   UNL     1       0.282   9.704  22.007  0.00  0.00    +0.000 A 
ATOM      3  N   UNL     1      -0.101  10.788  21.281  0.00  0.00    +0.000 NA
ATOM      4  N   UNL     1       0.410  10.434  20.049  0.00  0.00    +0.000 N 
ATOM      5  C   UNL     1       1.040   9.229  20.021  0.00  0.00    +0.000 A 
ATOM      6  N   UNL     1       1.648   8.469  19.100  0.00  0.00    +0.000 NA
ATOM      7  C   UNL     1       1.986   7.394  19.807  0.00  0.00    +0.000 A 
ATOM      8  N   UNL     1       1.583   7.492  21.138  0.00  0.00    +0.000 N 
ATOM      9  C   UNL     1       0.967   8.705  21.256  0.00  0.00    +0.000 A 
ATOM     10  H   UNL     1       1.714   6.796  21.859  0.00  0.00    +0.000 HD
ENDROOT
BRANCH   7  11
ATOM     11  C   UNL     1       2.700   6.207  19.240  0.00  0.00    +0.000 A 
ATOM     12  N   UNL     1       3.747   6.344  18.405  0.00  0.00    +0.000 NA
ATOM     13  N   UNL     1       4.122   5.069  18.165  0.00  0.00    +0.000 N 
ATOM     14  C   UNL     1       5.274   4.787  17.341  0.00  0.00    +0.000 C 
ATOM     15  C   UNL     1       3.337   4.138  18.772  0.00  0.00    +0.000 A 
ATOM     16  C   UNL     1       2.403   4.842  19.490  0.00  0.00    +0.000 A 
ATOM     17 CL   UNL     1       1.171   4.178  20.447  0.00  0.00    +0.000 Cl
ENDBRANCH   7  11
BRANCH   4  18
ATOM     18  C   UNL     1       0.163  11.223  18.858  0.00  0.00    +0.000 C 
BRANCH  18  19
ATOM     19  C   UNL     1      -1.211  10.976  18.290  0.00  0.00    +0.000 A 
ATOM     20  C   UNL     1      -1.427   9.954  17.353  0.00  0.00    +0.000 A 
ATOM     21  C   UNL     1      -2.705   9.725  16.841  0.00  0.00    +0.000 A 
ATOM     22  C   UNL     1      -3.777  10.515  17.254  0.00  0.00    +0.000 A 
ATOM     23  C   UNL     1      -3.570  11.541  18.175  0.00  0.00    +0.000 A 
ATOM     24  C   UNL     1      -2.293  11.774  18.688  0.00  0.00    +0.000 A 
ENDBRANCH  18  19
ENDBRANCH   4  18
TORSDOF 3
ENDMDL
MODEL 8
REMARK VINA RESULT:      -7.8      1.247      1.324
REMARK  Name = 
REMARK  5 active torsions:
REMARK  status: ('A' for Active; 'I' for Inactive)
REMARK    1  A    between atoms: C_1  and  C_2
REMARK    2  A    between atoms: N_4  and  C_5
REMARK    3  A    between atoms: C_5  and  C_6
REMARK    4  A    between atoms: C_14  and  C_15
REMARK    5  A    between atoms: N_17  and  C_18
REMARK                            x       y       z     vdW  Elec       q    Type
REMARK                         _______ _______ _______ _____ _____    ______ ____
ROOT
ATOM      1  C   UNL     1       2.344   1.912  18.984  0.00  0.00    +0.000 C 
ATOM      2  C   UNL     1       2.912   3.171  18.457  0.00  0.00    +0.000 A 
ATOM      3  N   UNL     1       3.863   3.170  17.487  0.00  0.00    +0.000 NA
ATOM      4  N   UNL     1       4.033   4.530  17.327  0.00  0.00    +0.000 N 
ATOM      5  C   UNL     1       3.260   5.298  18.142  0.00  0.00    +0.000 A 
ATOM      6  N   UNL     1       3.090   6.607  18.374  0.00  0.00    +0.000 NA
ATOM      7  C   UNL     1       2.187   6.600  19.351  0.00  0.00    +0.000 A 
ATOM      8  N   UNL     1       1.817   5.306  19.716  0.00  0.00    +0.000 N 
ATOM      9  C   UNL     1       2.532   4.469  18.909  0.00  0.00    +0.000 A 
ATOM     10  H   UNL     1       1.161   5.051  20.441  0.00  0.00    +0.000 HD
ENDROOT
BRANCH   7  11
ATOM     11  C   UNL     1       1.640   7.834  19.997  0.00  0.00    +0.000 A 
ATOM     12  N   UNL     1       1.307   7.860  21.302  0.00  0.00    +0.000 NA
ATOM     13  N   UNL     1       0.907   9.135  21.494  0.00  0.00    +0.000 N 
ATOM     14  C   UNL     1       0.517   9.590  22.808  0.00  0.00    +0.000 C 
ATOM     15  C   UNL     1       0.930   9.899  20.368  0.00  0.00    +0.000 A 
ATOM     16  C   UNL     1       1.412   9.086  19.372  0.00  0.00    +0.000 A 
ATOM     17 CL   UNL     1       1.653   9.528  17.753  0.00  0.00    +0.000 Cl
ENDBRANCH   7  11
BRANCH   4  18
ATOM     18  C   UNL     1       5.058   5.082  16.463  0.00  0.00    +0.000 C 
BRANCH  18  19
ATOM     19  C   UNL     1       6.159   5.749  17.245  0.00  0.00    +0.000 A 
ATOM     20  C   UNL     1       6.826   5.066  18.274  0.00  0.00    +0.000 A 
ATOM     21  C   UNL     1       7.852   5.688  18.986  0.00  0.00    +0.000 A 
ATOM     22  C   UNL     1       8.219   6.999  18.683  0.00  0.00    +0.000 A 
ATOM     23  C   UNL     1       7.553   7.691  17.673  0.00  0.00    +0.000 A 
ATOM     24  C   UNL     1       6.526   7.072  16.960  0.00  0.00    +0.000 A 
ENDBRANCH  18  19
ENDBRANCH   4  18
TORSDOF 3
ENDMDL
MODEL 9
REMARK VINA RESULT:      -7.8      3.987      7.862
REMARK  Name = 
REMARK  5 active torsions:
REMARK  status: ('A' for Active; 'I' for Inactive)
REMARK    1  A    between atoms: C_1  and  C_2
REMARK    2  A    between atoms: N_4  and  C_5
REMARK    3  A    between atoms: C_5  and  C_6
REMARK    4  A    between atoms: C_14  and  C_15
REMARK    5  A    between atoms: N_17  and  C_18
REMARK                            x       y       z     vdW  Elec       q    Type
REMARK                         _______ _______ _______ _____ _____    ______ ____
ROOT
ATOM      1  C   UNL     1       8.307   7.069  18.957  0.00  0.00    +0.000 C 
ATOM      2  C   UNL     1       7.354   5.990  18.623  0.00  0.00    +0.000 A 
ATOM      3  N   UNL     1       6.622   5.366  19.583  0.00  0.00    +0.000 NA
ATOM      4  N   UNL     1       5.895   4.498  18.793  0.00  0.00    +0.000 N 
ATOM      5  C   UNL     1       6.171   4.577  17.463  0.00  0.00    +0.000 A 
ATOM      6  N   UNL     1       5.768   3.954  16.347  0.00  0.00    +0.000 NA
ATOM      7  C   UNL     1       6.515   4.542  15.417  0.00  0.00    +0.000 A 
ATOM      8  N   UNL     1       7.367   5.504  15.957  0.00  0.00    +0.000 N 
ATOM      9  C   UNL     1       7.122   5.510  17.300  0.00  0.00    +0.000 A 
ATOM     10  H   UNL     1       8.036   6.067  15.451  0.00  0.00    +0.000 HD
ENDROOT
BRANCH   7  11
ATOM     11  C   UNL     1       6.463   4.203  13.960  0.00  0.00    +0.000 A 
ATOM     12  N   UNL     1       5.546   3.350  13.465  0.00  0.00    +0.000 NA
ATOM     13  N   UNL     1       5.806   3.350  12.140  0.00  0.00    +0.000 N 
ATOM     14  C   UNL     1       4.983   2.586  11.232  0.00  0.00    +0.000 C 
ATOM     15  C   UNL     1       6.866   4.126  11.783  0.00  0.00    +0.000 A 
ATOM     16  C   UNL     1       7.315   4.705  12.943  0.00  0.00    +0.000 A 
ATOM     17 CL   UNL     1       8.621   5.778  13.082  0.00  0.00    +0.000 Cl
ENDBRANCH   7  11
BRANCH   4  18
ATOM     18  C   UNL     1       5.020   3.491  19.360  0.00  0.00    +0.000 C 
BRANCH  18  19
ATOM     19  C   UNL     1       3.680   4.060  19.750  0.00  0.00    +0.000 A 
ATOM     20  C   UNL     1       3.431   5.438  19.661  0.00  0.00    +0.000 A 
ATOM     21  C   UNL     1       2.184   5.955  20.014  0.00  0.00    +0.000 A 
ATOM     22  C   UNL     1       1.176   5.103  20.464  0.00  0.00    +0.000 A 
ATOM     23  C   UNL     1       1.417   3.734  20.568  0.00  0.00    +0.000 A 
ATOM     24  C   UNL     1       2.664   3.215  20.217  0.00  0.00    +0.000 A 
ENDBRANCH  18  19
ENDBRANCH   4  18
TORSDOF 3
ENDMDL
