MODEL 1
REMARK VINA RESULT:      -8.8      0.000      0.000
REMARK  Name = 
REMARK  6 active torsions:
REMARK  status: ('A' for Active; 'I' for Inactive)
REMARK    1  A    between atoms: C_1  and  C_2
REMARK    2  A    between atoms: C_3  and  O_4
REMARK    3  A    between atoms: O_4  and  C_5
REMARK    4  A    between atoms: C_5  and  C_6
REMARK    5  A    between atoms: C_12  and  C_13
REMARK    6  A    between atoms: C_13  and  O_15
REMARK                            x       y       z     vdW  Elec       q    Type
REMARK                         _______ _______ _______ _____ _____    ______ ____
ROOT
ATOM      1  C   UNL     1       7.743   5.723  19.469  0.00  0.00    +0.000 C 
ATOM      2  C   UNL     1       6.660   5.853  18.436  0.00  0.00    +0.000 A 
ATOM      3  C   UNL     1       6.637   6.846  17.437  0.00  0.00    +0.000 A 
ATOM      4  C   UNL     1       5.556   6.919  16.554  0.00  0.00    +0.000 A 
ATOM      5  C   UNL     1       4.455   6.076  16.700  0.00  0.00    +0.000 A 
ATOM      6  C   UNL     1       4.453   5.106  17.699  0.00  0.00    +0.000 A 
ATOM      7  C   UNL     1       3.360   4.195  17.939  0.00  0.00    +0.000 A 
ATOM      8  C   UNL     1       3.550   3.038  18.582  0.00  0.00    +0.000 A 
ATOM      9  C   UNL     1       4.728   2.842  19.434  0.00  0.00    +0.000 A 
ATOM     10  O   UNL     1       4.816   1.899  20.211  0.00  0.00    +0.000 OA
ATOM     11  O   UNL     1       5.655   3.885  19.424  0.00  0.00    +0.000 OA
ATOM     12  C   UNL     1       5.572   4.968  18.510  0.00  0.00    +0.000 A 
ATOM     13  C   UNL     1       2.268   2.305  18.755  0.00  0.00    +0.000 C 
ATOM     14  C   UNL     1       1.361   3.516  18.923  0.00  0.00    +0.000 C 
ATOM     15  C   UNL     1       1.903   4.528  17.895  0.00  0.00    +0.000 C 
ENDROOT
BRANCH   3  16
ATOM     16  O   UNL     1       7.763   7.615  17.317  0.00  0.00    +0.000 OA
BRANCH  16  17
ATOM     17  C   UNL     1       7.641   9.027  17.399  0.00  0.00    +0.000 C 
BRANCH  17  18
ATOM     18  C   UNL     1       8.605   9.696  18.385  0.00  0.00    +0.000 C 
ATOM     19  O   UNL     1       9.240   9.039  19.215  0.00  0.00    +0.000 OA
ATOM     20  N   UNL     1       8.790  11.057  18.314  0.00  0.00    +0.000 N 
ATOM     21  C   UNL     1       8.095  11.941  17.398  0.00  0.00    +0.000 C 
ATOM     22  C   UNL     1       8.869  13.234  17.508  0.00  0.00    +0.000 C 
ATOM     23  C   UNL     1       9.143  13.307  19.004  0.00  0.00    +0.000 C 
ATOM     24  C   UNL     1       9.384  11.839  19.420  0.00  0.00    +0.000 C 
BRANCH  24  25
ATOM     25  C   UNL     1      10.869  11.645  19.771  0.00  0.00    +0.000 C 
ATOM     26  O   UNL     1      11.737  11.469  18.920  0.00  0.00    +0.000 OA
BRANCH  25  27
ATOM     27  O   UNL     1      11.179  11.727  21.076  0.00  0.00    +0.000 OA
ATOM     28  H   UNL     1      12.145  11.662  21.220  0.00  0.00    +0.000 HD
ENDBRANCH  25  27
ENDBRANCH  24  25
ENDBRANCH  17  18
ENDBRANCH  16  17
ENDBRANCH   3  16
TORSDOF 5
ENDMDL
MODEL 2
REMARK VINA RESULT:      -8.1      6.950     10.080
REMARK  Name = 
REMARK  6 active torsions:
REMARK  status: ('A' for Active; 'I' for Inactive)
REMARK    1  A    between atoms: C_1  and  C_2
REMARK    2  A    between atoms: C_3  and  O_4
REMARK    3  A    between atoms: O_4  and  C_5
REMARK    4  A    between atoms: C_5  and  C_6
REMARK    5  A    between atoms: C_12  and  C_13
REMARK    6  A    between atoms: C_13  and  O_15
REMARK                            x       y       z     vdW  Elec       q    Type
REMARK                         _______ _______ _______ _____ _____    ______ ____
ROOT
ATOM      1  C   UNL     1       1.008  10.028  18.590  0.00  0.00    +0.000 C 
ATOM      2  C   UNL     1       0.734   9.928  20.064  0.00  0.00    +0.000 A 
ATOM      3  C   UNL     1       1.111   8.831  20.864  0.00  0.00    +0.000 A 
ATOM      4  C   UNL     1       0.762   8.805  22.218  0.00  0.00    +0.000 A 
ATOM      5  C   UNL     1      -0.029   9.810  22.771  0.00  0.00    +0.000 A 
ATOM      6  C   UNL     1      -0.431  10.888  21.985  0.00  0.00    +0.000 A 
ATOM      7  C   UNL     1      -1.258  11.971  22.460  0.00  0.00    +0.000 A 
ATOM      8  C   UNL     1      -1.264  13.160  21.848  0.00  0.00    +0.000 A 
ATOM      9  C   UNL     1      -0.797  13.288  20.463  0.00  0.00    +0.000 A 
ATOM     10  O   UNL     1      -1.002  14.299  19.801  0.00  0.00    +0.000 OA
ATOM     11  O   UNL     1      -0.260  12.129  19.901  0.00  0.00    +0.000 OA
ATOM     12  C   UNL     1       0.003  10.963  20.669  0.00  0.00    +0.000 A 
ATOM     13  C   UNL     1      -2.235  14.086  22.487  0.00  0.00    +0.000 C 
ATOM     14  C   UNL     1      -3.280  13.050  22.878  0.00  0.00    +0.000 C 
ATOM     15  C   UNL     1      -2.444  11.849  23.362  0.00  0.00    +0.000 C 
ENDROOT
BRANCH   3  16
ATOM     16  O   UNL     1       1.922   7.898  20.276  0.00  0.00    +0.000 OA
BRANCH  16  17
ATOM     17  C   UNL     1       1.615   6.521  20.440  0.00  0.00    +0.000 C 
BRANCH  17  18
ATOM     18  C   UNL     1       2.698   5.561  19.936  0.00  0.00    +0.000 C 
ATOM     19  O   UNL     1       3.852   5.941  19.724  0.00  0.00    +0.000 OA
ATOM     20  N   UNL     1       2.377   4.235  19.753  0.00  0.00    +0.000 N 
ATOM     21  C   UNL     1       1.057   3.667  19.950  0.00  0.00    +0.000 C 
ATOM     22  C   UNL     1       1.312   2.179  19.927  0.00  0.00    +0.000 C 
ATOM     23  C   UNL     1       2.332   2.055  18.802  0.00  0.00    +0.000 C 
ATOM     24  C   UNL     1       3.205   3.321  18.938  0.00  0.00    +0.000 C 
BRANCH  24  25
ATOM     25  C   UNL     1       4.606   2.924  19.435  0.00  0.00    +0.000 C 
ATOM     26  O   UNL     1       4.795   2.018  20.241  0.00  0.00    +0.000 OA
BRANCH  25  27
ATOM     27  O   UNL     1       5.633   3.602  18.894  0.00  0.00    +0.000 OA
ATOM     28  H   UNL     1       5.352   4.109  18.105  0.00  0.00    +0.000 HD
ENDBRANCH  25  27
ENDBRANCH  24  25
ENDBRANCH  17  18
ENDBRANCH  16  17
ENDBRANCH   3  16
TORSDOF 5
ENDMDL
MODEL 3
REMARK VINA RESULT:      -8.1      6.217      9.573
REMARK  Name = 
REMARK  6 active torsions:
REMARK  status: ('A' for Active; 'I' for Inactive)
REMARK    1  A    between atoms: C_1  and  C_2
REMARK    2  A    between atoms: C_3  and  O_4
REMARK    3  A    between atoms: O_4  and  C_5
REMARK    4  A    between atoms: C_5  and  C_6
REMARK    5  A    between atoms: C_12  and  C_13
REMARK    6  A    between atoms: C_13  and  O_15
REMARK                            x       y       z     vdW  Elec       q    Type
REMARK                         _______ _______ _______ _____ _____    ______ ____
ROOT
ATOM      1  C   UNL     1       1.238   9.592  17.732  0.00  0.00    +0.000 C 
ATOM      2  C   UNL     1       1.199   9.314  19.208  0.00  0.00    +0.000 A 
ATOM      3  C   UNL     1       1.643   8.113  19.796  0.00  0.00    +0.000 A 
ATOM      4  C   UNL     1       1.515   7.927  21.176  0.00  0.00    +0.000 A 
ATOM      5  C   UNL     1       0.876   8.878  21.970  0.00  0.00    +0.000 A 
ATOM      6  C   UNL     1       0.410  10.058  21.397  0.00  0.00    +0.000 A 
ATOM      7  C   UNL     1      -0.272  11.098  22.129  0.00  0.00    +0.000 A 
ATOM      8  C   UNL     1      -0.314  12.355  21.674  0.00  0.00    +0.000 A 
ATOM      9  C   UNL     1      -0.070  12.643  20.257  0.00  0.00    +0.000 A 
ATOM     10  O   UNL     1      -0.326  13.736  19.764  0.00  0.00    +0.000 OA
ATOM     11  O   UNL     1       0.309  11.549  19.478  0.00  0.00    +0.000 OA
ATOM     12  C   UNL     1       0.630  10.287  20.046  0.00  0.00    +0.000 A 
ATOM     13  C   UNL     1      -1.121  13.223  22.572  0.00  0.00    +0.000 C 
ATOM     14  C   UNL     1      -2.142  12.179  23.004  0.00  0.00    +0.000 C 
ATOM     15  C   UNL     1      -1.303  10.900  23.195  0.00  0.00    +0.000 C 
ENDROOT
BRANCH   3  16
ATOM     16  O   UNL     1       2.298   7.237  18.974  0.00  0.00    +0.000 OA
BRANCH  16  17
ATOM     17  C   UNL     1       3.523   6.670  19.413  0.00  0.00    +0.000 C 
BRANCH  17  18
ATOM     18  C   UNL     1       3.686   5.179  19.097  0.00  0.00    +0.000 C 
ATOM     19  O   UNL     1       4.416   4.788  18.183  0.00  0.00    +0.000 OA
ATOM     20  N   UNL     1       3.028   4.257  19.880  0.00  0.00    +0.000 N 
ATOM     21  C   UNL     1       2.132   4.588  20.971  0.00  0.00    +0.000 C 
ATOM     22  C   UNL     1       1.939   3.265  21.674  0.00  0.00    +0.000 C 
ATOM     23  C   UNL     1       1.825   2.301  20.500  0.00  0.00    +0.000 C 
ATOM     24  C   UNL     1       2.813   2.859  19.453  0.00  0.00    +0.000 C 
BRANCH  24  25
ATOM     25  C   UNL     1       4.018   1.911  19.331  0.00  0.00    +0.000 C 
ATOM     26  O   UNL     1       4.893   1.832  20.190  0.00  0.00    +0.000 OA
BRANCH  25  27
ATOM     27  O   UNL     1       4.039   1.125  18.241  0.00  0.00    +0.000 OA
ATOM     28  H   UNL     1       4.886   0.640  18.165  0.00  0.00    +0.000 HD
ENDBRANCH  25  27
ENDBRANCH  24  25
ENDBRANCH  17  18
ENDBRANCH  16  17
ENDBRANCH   3  16
TORSDOF 5
ENDMDL
MODEL 4
REMARK VINA RESULT:      -8.1      7.053     10.263
REMARK  Name = 
REMARK  6 active torsions:
REMARK  status: ('A' for Active; 'I' for Inactive)
REMARK    1  A    between atoms: C_1  and  C_2
REMARK    2  A    between atoms: C_3  and  O_4
REMARK    3  A    between atoms: O_4  and  C_5
REMARK    4  A    between atoms: C_5  and  C_6
REMARK    5  A    between atoms: C_12  and  C_13
REMARK    6  A    between atoms: C_13  and  O_15
REMARK                            x       y       z     vdW  Elec       q    Type
REMARK                         _______ _______ _______ _____ _____    ______ ____
ROOT
ATOM      1  C   UNL     1       1.436  11.011  18.661  0.00  0.00    +0.000 C 
ATOM      2  C   UNL     1       0.894  10.455  19.947  0.00  0.00    +0.000 A 
ATOM      3  C   UNL     1       0.918   9.089  20.289  0.00  0.00    +0.000 A 
ATOM      4  C   UNL     1       0.339   8.661  21.487  0.00  0.00    +0.000 A 
ATOM      5  C   UNL     1      -0.340   9.556  22.313  0.00  0.00    +0.000 A 
ATOM      6  C   UNL     1      -0.394  10.906  21.974  0.00  0.00    +0.000 A 
ATOM      7  C   UNL     1      -1.079  11.908  22.754  0.00  0.00    +0.000 A 
ATOM      8  C   UNL     1      -0.760  13.203  22.655  0.00  0.00    +0.000 A 
ATOM      9  C   UNL     1      -0.043  13.706  21.479  0.00  0.00    +0.000 A 
ATOM     10  O   UNL     1       0.059  14.906  21.246  0.00  0.00    +0.000 OA
ATOM     11  O   UNL     1       0.364  12.735  20.563  0.00  0.00    +0.000 OA
ATOM     12  C   UNL     1       0.270  11.345  20.837  0.00  0.00    +0.000 A 
ATOM     13  C   UNL     1      -1.642  14.039  23.512  0.00  0.00    +0.000 C 
ATOM     14  C   UNL     1      -2.911  13.209  23.370  0.00  0.00    +0.000 C 
ATOM     15  C   UNL     1      -2.407  11.753  23.425  0.00  0.00    +0.000 C 
ENDROOT
BRANCH   3  16
ATOM     16  O   UNL     1       1.635   8.266  19.461  0.00  0.00    +0.000 OA
BRANCH  16  17
ATOM     17  C   UNL     1       2.264   7.119  20.012  0.00  0.00    +0.000 C 
BRANCH  17  18
ATOM     18  C   UNL     1       2.484   5.972  19.019  0.00  0.00    +0.000 C 
ATOM     19  O   UNL     1       3.146   6.127  17.989  0.00  0.00    +0.000 OA
ATOM     20  N   UNL     1       1.958   4.734  19.306  0.00  0.00    +0.000 N 
ATOM     21  C   UNL     1       1.150   4.427  20.472  0.00  0.00    +0.000 C 
ATOM     22  C   UNL     1       1.102   2.918  20.474  0.00  0.00    +0.000 C 
ATOM     23  C   UNL     1       0.936   2.609  18.992  0.00  0.00    +0.000 C 
ATOM     24  C   UNL     1       1.786   3.684  18.280  0.00  0.00    +0.000 C 
BRANCH  24  25
ATOM     25  C   UNL     1       3.028   3.023  17.658  0.00  0.00    +0.000 C 
ATOM     26  O   UNL     1       3.395   1.888  17.948  0.00  0.00    +0.000 OA
BRANCH  25  27
ATOM     27  O   UNL     1       3.674   3.749  16.729  0.00  0.00    +0.000 OA
ATOM     28  H   UNL     1       3.439   3.463  15.824  0.00  0.00    +0.000 HD
ENDBRANCH  25  27
ENDBRANCH  24  25
ENDBRANCH  17  18
ENDBRANCH  16  17
ENDBRANCH   3  16
TORSDOF 5
ENDMDL
MODEL 5
REMARK VINA RESULT:      -8.1      5.794      8.182
REMARK  Name = 
REMARK  6 active torsions:
REMARK  status: ('A' for Active; 'I' for Inactive)
REMARK    1  A    between atoms: C_1  and  C_2
REMARK    2  A    between atoms: C_3  and  O_4
REMARK    3  A    between atoms: O_4  and  C_5
REMARK    4  A    between atoms: C_5  and  C_6
REMARK    5  A    between atoms: C_12  and  C_13
REMARK    6  A    between atoms: C_13  and  O_15
REMARK                            x       y       z     vdW  Elec       q    Type
REMARK                         _______ _______ _______ _____ _____    ______ ____
ROOT
ATOM      1  C   UNL     1       1.451   9.388  17.475  0.00  0.00    +0.000 C 
ATOM      2  C   UNL     1       1.470   8.988  18.922  0.00  0.00    +0.000 A 
ATOM      3  C   UNL     1       1.962   7.755  19.393  0.00  0.00    +0.000 A 
ATOM      4  C   UNL     1       1.887   7.451  20.756  0.00  0.00    +0.000 A 
ATOM      5  C   UNL     1       1.253   8.315  21.647  0.00  0.00    +0.000 A 
ATOM      6  C   UNL     1       0.738   9.526  21.191  0.00  0.00    +0.000 A 
ATOM      7  C   UNL     1       0.056  10.483  22.029  0.00  0.00    +0.000 A 
ATOM      8  C   UNL     1      -0.032  11.771  21.683  0.00  0.00    +0.000 A 
ATOM      9  C   UNL     1       0.157  12.182  20.287  0.00  0.00    +0.000 A 
ATOM     10  O   UNL     1      -0.143  13.305  19.897  0.00  0.00    +0.000 OA
ATOM     11  O   UNL     1       0.535  11.167  19.408  0.00  0.00    +0.000 OA
ATOM     12  C   UNL     1       0.906   9.872  19.857  0.00  0.00    +0.000 A 
ATOM     13  C   UNL     1      -0.827  12.539  22.676  0.00  0.00    +0.000 C 
ATOM     14  C   UNL     1      -1.808  11.436  23.051  0.00  0.00    +0.000 C 
ATOM     15  C   UNL     1      -0.932  10.169  23.107  0.00  0.00    +0.000 C 
ENDROOT
BRANCH   3  16
ATOM     16  O   UNL     1       2.610   6.968  18.480  0.00  0.00    +0.000 OA
BRANCH  16  17
ATOM     17  C   UNL     1       3.341   5.842  18.940  0.00  0.00    +0.000 C 
BRANCH  17  18
ATOM     18  C   UNL     1       4.236   5.184  17.883  0.00  0.00    +0.000 C 
ATOM     19  O   UNL     1       3.761   4.630  16.889  0.00  0.00    +0.000 OA
ATOM     20  N   UNL     1       5.602   5.249  18.034  0.00  0.00    +0.000 N 
ATOM     21  C   UNL     1       6.282   5.857  19.163  0.00  0.00    +0.000 C 
ATOM     22  C   UNL     1       7.717   5.941  18.698  0.00  0.00    +0.000 C 
ATOM     23  C   UNL     1       7.892   4.608  17.983  0.00  0.00    +0.000 C 
ATOM     24  C   UNL     1       6.527   4.357  17.305  0.00  0.00    +0.000 C 
BRANCH  24  25
ATOM     25  C   UNL     1       6.678   4.505  15.782  0.00  0.00    +0.000 C 
ATOM     26  O   UNL     1       7.428   5.328  15.263  0.00  0.00    +0.000 OA
BRANCH  25  27
ATOM     27  O   UNL     1       5.970   3.640  15.035  0.00  0.00    +0.000 OA
ATOM     28  H   UNL     1       5.340   3.128  15.582  0.00  0.00    +0.000 HD
ENDBRANCH  25  27
ENDBRANCH  24  25
ENDBRANCH  17  18
ENDBRANCH  16  17
ENDBRANCH   3  16
TORSDOF 5
ENDMDL
MODEL 6
REMARK VINA RESULT:      -7.9      5.360      8.050
REMARK  Name = 
REMARK  6 active torsions:
REMARK  status: ('A' for Active; 'I' for Inactive)
REMARK    1  A    between atoms: C_1  and  C_2
REMARK    2  A    between atoms: C_3  and  O_4
REMARK    3  A    between atoms: O_4  and  C_5
REMARK    4  A    between atoms: C_5  and  C_6
REMARK    5  A    between atoms: C_12  and  C_13
REMARK    6  A    between atoms: C_13  and  O_15
REMARK                            x       y       z     vdW  Elec       q    Type
REMARK                         _______ _______ _______ _____ _____    ______ ____
ROOT
ATOM      1  C   UNL     1       1.045   7.765  21.392  0.00  0.00    +0.000 C 
ATOM      2  C   UNL     1       1.400   8.367  20.062  0.00  0.00    +0.000 A 
ATOM      3  C   UNL     1       2.049   7.665  19.027  0.00  0.00    +0.000 A 
ATOM      4  C   UNL     1       2.387   8.328  17.844  0.00  0.00    +0.000 A 
ATOM      5  C   UNL     1       2.168   9.697  17.703  0.00  0.00    +0.000 A 
ATOM      6  C   UNL     1       1.550  10.409  18.729  0.00  0.00    +0.000 A 
ATOM      7  C   UNL     1       1.289  11.827  18.686  0.00  0.00    +0.000 A 
ATOM      8  C   UNL     1       0.343  12.383  19.451  0.00  0.00    +0.000 A 
ATOM      9  C   UNL     1      -0.151  11.690  20.646  0.00  0.00    +0.000 A 
ATOM     10  O   UNL     1      -0.836  12.260  21.488  0.00  0.00    +0.000 OA
ATOM     11  O   UNL     1       0.349  10.402  20.843  0.00  0.00    +0.000 OA
ATOM     12  C   UNL     1       1.122   9.729  19.861  0.00  0.00    +0.000 A 
ATOM     13  C   UNL     1       0.306  13.858  19.269  0.00  0.00    +0.000 C 
ATOM     14  C   UNL     1       1.795  14.074  19.038  0.00  0.00    +0.000 C 
ATOM     15  C   UNL     1       2.207  12.881  18.154  0.00  0.00    +0.000 C 
ENDROOT
BRANCH   3  16
ATOM     16  O   UNL     1       2.199   6.316  19.206  0.00  0.00    +0.000 OA
BRANCH  16  17
ATOM     17  C   UNL     1       3.498   5.795  19.439  0.00  0.00    +0.000 C 
BRANCH  17  18
ATOM     18  C   UNL     1       4.239   5.337  18.178  0.00  0.00    +0.000 C 
ATOM     19  O   UNL     1       3.635   5.047  17.143  0.00  0.00    +0.000 OA
ATOM     20  N   UNL     1       5.614   5.285  18.197  0.00  0.00    +0.000 N 
ATOM     21  C   UNL     1       6.439   5.585  19.352  0.00  0.00    +0.000 C 
ATOM     22  C   UNL     1       7.829   5.685  18.770  0.00  0.00    +0.000 C 
ATOM     23  C   UNL     1       7.831   4.536  17.770  0.00  0.00    +0.000 C 
ATOM     24  C   UNL     1       6.396   4.524  17.200  0.00  0.00    +0.000 C 
BRANCH  24  25
ATOM     25  C   UNL     1       6.423   4.998  15.737  0.00  0.00    +0.000 C 
ATOM     26  O   UNL     1       7.333   5.681  15.275  0.00  0.00    +0.000 OA
BRANCH  25  27
ATOM     27  O   UNL     1       5.406   4.579  14.966  0.00  0.00    +0.000 OA
ATOM     28  H   UNL     1       4.540   4.835  15.344  0.00  0.00    +0.000 HD
ENDBRANCH  25  27
ENDBRANCH  24  25
ENDBRANCH  17  18
ENDBRANCH  16  17
ENDBRANCH   3  16
TORSDOF 5
ENDMDL
MODEL 7
REMARK VINA RESULT:      -7.8      6.391      8.143
REMARK  Name = 
REMARK  6 active torsions:
REMARK  status: ('A' for Active; 'I' for Inactive)
REMARK    1  A    between atoms: C_1  and  C_2
REMARK    2  A    between atoms: C_3  and  O_4
REMARK    3  A    between atoms: O_4  and  C_5
REMARK    4  A    between atoms: C_5  and  C_6
REMARK    5  A    between atoms: C_12  and  C_13
REMARK    6  A    between atoms: C_13  and  O_15
REMARK                            x       y       z     vdW  Elec       q    Type
REMARK                         _______ _______ _______ _____ _____    ______ ____
ROOT
ATOM      1  C   UNL     1       1.632   5.784  20.674  0.00  0.00    +0.000 C 
ATOM      2  C   UNL     1       2.285   6.615  19.606  0.00  0.00    +0.000 A 
ATOM      3  C   UNL     1       1.835   7.891  19.214  0.00  0.00    +0.000 A 
ATOM      4  C   UNL     1       2.477   8.565  18.171  0.00  0.00    +0.000 A 
ATOM      5  C   UNL     1       3.506   7.956  17.453  0.00  0.00    +0.000 A 
ATOM      6  C   UNL     1       3.943   6.684  17.813  0.00  0.00    +0.000 A 
ATOM      7  C   UNL     1       4.991   5.965  17.129  0.00  0.00    +0.000 A 
ATOM      8  C   UNL     1       5.667   4.982  17.732  0.00  0.00    +0.000 A 
ATOM      9  C   UNL     1       5.110   4.308  18.910  0.00  0.00    +0.000 A 
ATOM     10  O   UNL     1       5.584   3.263  19.343  0.00  0.00    +0.000 OA
ATOM     11  O   UNL     1       3.914   4.838  19.395  0.00  0.00    +0.000 OA
ATOM     12  C   UNL     1       3.374   6.059  18.915  0.00  0.00    +0.000 A 
ATOM     13  C   UNL     1       6.650   4.361  16.806  0.00  0.00    +0.000 C 
ATOM     14  C   UNL     1       5.844   4.509  15.522  0.00  0.00    +0.000 C 
ATOM     15  C   UNL     1       5.203   5.905  15.649  0.00  0.00    +0.000 C 
ENDROOT
BRANCH   3  16
ATOM     16  O   UNL     1       0.852   8.453  19.983  0.00  0.00    +0.000 OA
BRANCH  16  17
ATOM     17  C   UNL     1       0.858   9.859  20.184  0.00  0.00    +0.000 C 
BRANCH  17  18
ATOM     18  C   UNL     1      -0.281  10.610  19.485  0.00  0.00    +0.000 C 
ATOM     19  O   UNL     1      -0.493  10.484  18.277  0.00  0.00    +0.000 OA
ATOM     20  N   UNL     1      -1.107  11.413  20.237  0.00  0.00    +0.000 N 
ATOM     21  C   UNL     1      -0.956  11.657  21.660  0.00  0.00    +0.000 C 
ATOM     22  C   UNL     1      -2.257  12.324  22.038  0.00  0.00    +0.000 C 
ATOM     23  C   UNL     1      -2.490  13.249  20.851  0.00  0.00    +0.000 C 
ATOM     24  C   UNL     1      -1.975  12.448  19.636  0.00  0.00    +0.000 C 
BRANCH  24  25
ATOM     25  C   UNL     1      -3.167  12.022  18.763  0.00  0.00    +0.000 C 
ATOM     26  O   UNL     1      -4.298  11.861  19.212  0.00  0.00    +0.000 OA
BRANCH  25  27
ATOM     27  O   UNL     1      -2.912  11.878  17.451  0.00  0.00    +0.000 OA
ATOM     28  H   UNL     1      -3.621  12.271  16.903  0.00  0.00    +0.000 HD
ENDBRANCH  25  27
ENDBRANCH  24  25
ENDBRANCH  17  18
ENDBRANCH  16  17
ENDBRANCH   3  16
TORSDOF 5
ENDMDL
MODEL 8
REMARK VINA RESULT:      -7.8      6.606      8.577
REMARK  Name = 
REMARK  6 active torsions:
REMARK  status: ('A' for Active; 'I' for Inactive)
REMARK    1  A    between atoms: C_1  and  C_2
REMARK    2  A    between atoms: C_3  and  O_4
REMARK    3  A    between atoms: O_4  and  C_5
REMARK    4  A    between atoms: C_5  and  C_6
REMARK    5  A    between atoms: C_12  and  C_13
REMARK    6  A    between atoms: C_13  and  O_15
REMARK                            x       y       z     vdW  Elec       q    Type
REMARK                         _______ _______ _______ _____ _____    ______ ____
ROOT
ATOM      1  C   UNL     1       0.656   8.307  21.696  0.00  0.00    +0.000 C 
ATOM      2  C   UNL     1       1.352   8.056  20.389  0.00  0.00    +0.000 A 
ATOM      3  C   UNL     1       1.556   9.041  19.402  0.00  0.00    +0.000 A 
ATOM      4  C   UNL     1       2.168   8.697  18.192  0.00  0.00    +0.000 A 
ATOM      5  C   UNL     1       2.503   7.373  17.912  0.00  0.00    +0.000 A 
ATOM      6  C   UNL     1       2.283   6.385  18.869  0.00  0.00    +0.000 A 
ATOM      7  C   UNL     1       2.585   4.987  18.672  0.00  0.00    +0.000 A 
ATOM      8  C   UNL     1       2.773   4.165  19.710  0.00  0.00    +0.000 A 
ATOM      9  C   UNL     1       2.264   4.516  21.040  0.00  0.00    +0.000 A 
ATOM     10  O   UNL     1       2.211   3.696  21.950  0.00  0.00    +0.000 OA
ATOM     11  O   UNL     1       1.692   5.784  21.149  0.00  0.00    +0.000 OA
ATOM     12  C   UNL     1       1.772   6.745  20.108  0.00  0.00    +0.000 A 
ATOM     13  C   UNL     1       3.012   2.771  19.252  0.00  0.00    +0.000 C 
ATOM     14  C   UNL     1       2.109   2.800  18.026  0.00  0.00    +0.000 C 
ATOM     15  C   UNL     1       2.351   4.198  17.423  0.00  0.00    +0.000 C 
ENDROOT
BRANCH   3  16
ATOM     16  O   UNL     1       1.246  10.327  19.751  0.00  0.00    +0.000 OA
BRANCH  16  17
ATOM     17  C   UNL     1       0.681  11.187  18.772  0.00  0.00    +0.000 C 
BRANCH  17  18
ATOM     18  C   UNL     1      -0.818  11.455  18.946  0.00  0.00    +0.000 C 
ATOM     19  O   UNL     1      -1.238  12.271  19.770  0.00  0.00    +0.000 OA
ATOM     20  N   UNL     1      -1.711  10.791  18.136  0.00  0.00    +0.000 N 
ATOM     21  C   UNL     1      -1.347   9.798  17.142  0.00  0.00    +0.000 C 
ATOM     22  C   UNL     1      -2.617   9.625  16.343  0.00  0.00    +0.000 C 
ATOM     23  C   UNL     1      -3.679   9.654  17.435  0.00  0.00    +0.000 C 
ATOM     24  C   UNL     1      -3.150  10.686  18.454  0.00  0.00    +0.000 C 
BRANCH  24  25
ATOM     25  C   UNL     1      -4.030  11.947  18.408  0.00  0.00    +0.000 C 
ATOM     26  O   UNL     1      -4.798  12.190  17.481  0.00  0.00    +0.000 OA
BRANCH  25  27
ATOM     27  O   UNL     1      -3.947  12.759  19.476  0.00  0.00    +0.000 OA
ATOM     28  H   UNL     1      -4.698  12.624  20.088  0.00  0.00    +0.000 HD
ENDBRANCH  25  27
ENDBRANCH  24  25
ENDBRANCH  17  18
ENDBRANCH  16  17
ENDBRANCH   3  16
TORSDOF 5
ENDMDL
MODEL 9
REMARK VINA RESULT:      -7.7      5.632      8.891
REMARK  Name = 
REMARK  6 active torsions:
REMARK  status: ('A' for Active; 'I' for Inactive)
REMARK    1  A    between atoms: C_1  and  C_2
REMARK    2  A    between atoms: C_3  and  O_4
REMARK    3  A    between atoms: O_4  and  C_5
REMARK    4  A    between atoms: C_5  and  C_6
REMARK    5  A    between atoms: C_12  and  C_13
REMARK    6  A    between atoms: C_13  and  O_15
REMARK                            x       y       z     vdW  Elec       q    Type
REMARK                         _______ _______ _______ _____ _____    ______ ____
ROOT
ATOM      1  C   UNL     1       1.700   7.012  20.956  0.00  0.00    +0.000 C 
ATOM      2  C   UNL     1       1.554   8.153  19.990  0.00  0.00    +0.000 A 
ATOM      3  C   UNL     1       1.992   8.113  18.651  0.00  0.00    +0.000 A 
ATOM      4  C   UNL     1       1.861   9.247  17.843  0.00  0.00    +0.000 A 
ATOM      5  C   UNL     1       1.380  10.446  18.366  0.00  0.00    +0.000 A 
ATOM      6  C   UNL     1       0.968  10.506  19.695  0.00  0.00    +0.000 A 
ATOM      7  C   UNL     1       0.466  11.700  20.333  0.00  0.00    +0.000 A 
ATOM      8  C   UNL     1      -0.303  11.632  21.425  0.00  0.00    +0.000 A 
ATOM      9  C   UNL     1      -0.310  10.425  22.259  0.00  0.00    +0.000 A 
ATOM     10  O   UNL     1      -0.814  10.413  23.376  0.00  0.00    +0.000 OA
ATOM     11  O   UNL     1       0.437   9.353  21.770  0.00  0.00    +0.000 OA
ATOM     12  C   UNL     1       1.002   9.352  20.467  0.00  0.00    +0.000 A 
ATOM     13  C   UNL     1      -0.642  12.990  21.925  0.00  0.00    +0.000 C 
ATOM     14  C   UNL     1       0.660  13.681  21.543  0.00  0.00    +0.000 C 
ATOM     15  C   UNL     1       1.001  13.086  20.163  0.00  0.00    +0.000 C 
ENDROOT
BRANCH   3  16
ATOM     16  O   UNL     1       2.414   6.898  18.183  0.00  0.00    +0.000 OA
BRANCH  16  17
ATOM     17  C   UNL     1       3.808   6.629  18.132  0.00  0.00    +0.000 C 
BRANCH  17  18
ATOM     18  C   UNL     1       4.235   5.335  18.832  0.00  0.00    +0.000 C 
ATOM     19  O   UNL     1       5.113   5.328  19.699  0.00  0.00    +0.000 OA
ATOM     20  N   UNL     1       3.594   4.161  18.509  0.00  0.00    +0.000 N 
ATOM     21  C   UNL     1       2.559   4.033  17.500  0.00  0.00    +0.000 C 
ATOM     22  C   UNL     1       1.991   2.658  17.757  0.00  0.00    +0.000 C 
ATOM     23  C   UNL     1       3.249   1.851  18.055  0.00  0.00    +0.000 C 
ATOM     24  C   UNL     1       4.156   2.832  18.830  0.00  0.00    +0.000 C 
BRANCH  24  25
ATOM     25  C   UNL     1       4.253   2.386  20.298  0.00  0.00    +0.000 C 
ATOM     26  O   UNL     1       5.250   1.841  20.765  0.00  0.00    +0.000 OA
BRANCH  25  27
ATOM     27  O   UNL     1       3.191   2.673  21.070  0.00  0.00    +0.000 OA
ATOM     28  H   UNL     1       2.353   2.597  20.569  0.00  0.00    +0.000 HD
ENDBRANCH  25  27
ENDBRANCH  24  25
ENDBRANCH  17  18
ENDBRANCH  16  17
ENDBRANCH   3  16
TORSDOF 5
ENDMDL
