MODEL 1
REMARK VINA RESULT:      -8.4      0.000      0.000
REMARK  Name = 
REMARK  4 active torsions:
REMARK  status: ('A' for Active; 'I' for Inactive)
REMARK    1  A    between atoms: N_3  and  C_4
REMARK    2  A    between atoms: C_4  and  C_5
REMARK    3  A    between atoms: C_10  and  C_11
REMARK    4  A    between atoms: N_15  and  C_16
REMARK                            x       y       z     vdW  Elec       q    Type
REMARK                         _______ _______ _______ _____ _____    ______ ____
ROOT
ATOM      1  O   UNL     1       2.128   3.576  21.918  0.00  0.00    +0.000 OA
ATOM      2  C   UNL     1       2.495   4.255  20.958  0.00  0.00    +0.000 C 
ATOM      3  N   UNL     1       1.990   5.500  20.849  0.00  0.00    +0.000 N 
ATOM      4  N   UNL     1       3.393   3.726  20.096  0.00  0.00    +0.000 N 
ATOM      5  H   UNL     1       1.366   5.700  21.620  0.00  0.00    +0.000 HD
ATOM      6  H   UNL     1       3.843   2.927  20.523  0.00  0.00    +0.000 HD
ENDROOT
BRANCH   4   7
ATOM      7  C   UNL     1       4.080   4.340  19.050  0.00  0.00    +0.000 A 
ATOM      8  C   UNL     1       3.568   4.290  17.756  0.00  0.00    +0.000 A 
ATOM      9  C   UNL     1       4.295   4.841  16.694  0.00  0.00    +0.000 A 
ATOM     10  C   UNL     1       5.527   5.481  16.946  0.00  0.00    +0.000 A 
ATOM     11  N   UNL     1       6.378   6.042  16.001  0.00  0.00    +0.000 NA
ATOM     12  N   UNL     1       7.473   6.538  16.553  0.00  0.00    +0.000 NA
ATOM     13  S   UNL     1       7.506   6.358  18.213  0.00  0.00    +0.000 S 
ATOM     14  C   UNL     1       5.986   5.554  18.265  0.00  0.00    +0.000 A 
ATOM     15  C   UNL     1       5.273   5.011  19.342  0.00  0.00    +0.000 A 
ENDBRANCH   4   7
BRANCH   3  16
ATOM     16  C   UNL     1       2.361   6.655  20.044  0.00  0.00    +0.000 C 
BRANCH  16  17
ATOM     17  C   UNL     1       1.615   7.934  20.396  0.00  0.00    +0.000 A 
ATOM     18  C   UNL     1       1.038   8.081  21.676  0.00  0.00    +0.000 A 
ATOM     19  C   UNL     1       0.332   9.230  22.036  0.00  0.00    +0.000 A 
ATOM     20  C   UNL     1       0.168  10.259  21.122  0.00  0.00    +0.000 A 
ATOM     21  C   UNL     1       0.717  10.139  19.849  0.00  0.00    +0.000 A 
ATOM     22  C   UNL     1       1.447   8.989  19.464  0.00  0.00    +0.000 A 
BRANCH  22  23
ATOM     23  C   UNL     1       1.996   8.999  18.048  0.00  0.00    +0.000 C 
ATOM     24  F   UNL     1       3.267   8.538  17.910  0.00  0.00    +0.000 F 
ATOM     25  F   UNL     1       1.242   8.244  17.201  0.00  0.00    +0.000 F 
ATOM     26  F   UNL     1       1.998  10.253  17.514  0.00  0.00    +0.000 F 
ENDBRANCH  22  23
ENDBRANCH  16  17
ENDBRANCH   3  16
TORSDOF 4
ENDMDL
MODEL 2
REMARK VINA RESULT:      -8.0      0.635      1.028
REMARK  Name = 
REMARK  4 active torsions:
REMARK  status: ('A' for Active; 'I' for Inactive)
REMARK    1  A    between atoms: N_3  and  C_4
REMARK    2  A    between atoms: C_4  and  C_5
REMARK    3  A    between atoms: C_10  and  C_11
REMARK    4  A    between atoms: N_15  and  C_16
REMARK                            x       y       z     vdW  Elec       q    Type
REMARK                         _______ _______ _______ _____ _____    ______ ____
ROOT
ATOM      1  O   UNL     1       1.212   3.425  21.010  0.00  0.00    +0.000 OA
ATOM      2  C   UNL     1       1.852   4.273  20.385  0.00  0.00    +0.000 C 
ATOM      3  N   UNL     1       1.596   5.569  20.656  0.00  0.00    +0.000 N 
ATOM      4  N   UNL     1       2.779   3.857  19.492  0.00  0.00    +0.000 N 
ATOM      5  H   UNL     1       0.893   5.649  21.380  0.00  0.00    +0.000 HD
ATOM      6  H   UNL     1       3.003   2.886  19.664  0.00  0.00    +0.000 HD
ENDROOT
BRANCH   4   7
ATOM      7  C   UNL     1       3.731   4.601  18.798  0.00  0.00    +0.000 A 
ATOM      8  C   UNL     1       3.416   5.153  17.559  0.00  0.00    +0.000 A 
ATOM      9  C   UNL     1       4.396   5.835  16.828  0.00  0.00    +0.000 A 
ATOM     10  C   UNL     1       5.689   5.996  17.368  0.00  0.00    +0.000 A 
ATOM     11  N   UNL     1       6.773   6.613  16.756  0.00  0.00    +0.000 NA
ATOM     12  N   UNL     1       7.858   6.572  17.511  0.00  0.00    +0.000 NA
ATOM     13  S   UNL     1       7.607   5.809  18.974  0.00  0.00    +0.000 S 
ATOM     14  C   UNL     1       5.955   5.469  18.636  0.00  0.00    +0.000 A 
ATOM     15  C   UNL     1       4.988   4.784  19.386  0.00  0.00    +0.000 A 
ENDBRANCH   4   7
BRANCH   3  16
ATOM     16  C   UNL     1       2.294   6.805  20.339  0.00  0.00    +0.000 C 
BRANCH  16  17
ATOM     17  C   UNL     1       1.465   8.066  20.537  0.00  0.00    +0.000 A 
ATOM     18  C   UNL     1       0.832   8.303  21.777  0.00  0.00    +0.000 A 
ATOM     19  C   UNL     1       0.049   9.438  21.997  0.00  0.00    +0.000 A 
ATOM     20  C   UNL     1      -0.139  10.360  20.979  0.00  0.00    +0.000 A 
ATOM     21  C   UNL     1       0.464  10.148  19.743  0.00  0.00    +0.000 A 
ATOM     22  C   UNL     1       1.272   9.012  19.499  0.00  0.00    +0.000 A 
BRANCH  22  23
ATOM     23  C   UNL     1       1.873   8.916  18.107  0.00  0.00    +0.000 C 
ATOM     24  F   UNL     1       1.789  10.045  17.356  0.00  0.00    +0.000 F 
ATOM     25  F   UNL     1       3.198   8.601  18.143  0.00  0.00    +0.000 F 
ATOM     26  F   UNL     1       1.285   7.935  17.367  0.00  0.00    +0.000 F 
ENDBRANCH  22  23
ENDBRANCH  16  17
ENDBRANCH   3  16
TORSDOF 4
ENDMDL
MODEL 3
REMARK VINA RESULT:      -8.0      3.636      4.994
REMARK  Name = 
REMARK  4 active torsions:
REMARK  status: ('A' for Active; 'I' for Inactive)
REMARK    1  A    between atoms: N_3  and  C_4
REMARK    2  A    between atoms: C_4  and  C_5
REMARK    3  A    between atoms: C_10  and  C_11
REMARK    4  A    between atoms: N_15  and  C_16
REMARK                            x       y       z     vdW  Elec       q    Type
REMARK                         _______ _______ _______ _____ _____    ______ ____
ROOT
ATOM      1  O   UNL     1       1.530   8.671  17.823  0.00  0.00    +0.000 OA
ATOM      2  C   UNL     1       2.339   7.743  17.786  0.00  0.00    +0.000 C 
ATOM      3  N   UNL     1       1.883   6.510  18.084  0.00  0.00    +0.000 N 
ATOM      4  N   UNL     1       3.616   8.009  17.428  0.00  0.00    +0.000 N 
ATOM      5  H   UNL     1       0.892   6.536  18.288  0.00  0.00    +0.000 HD
ATOM      6  H   UNL     1       3.660   8.913  16.975  0.00  0.00    +0.000 HD
ENDROOT
BRANCH   4   7
ATOM      7  C   UNL     1       4.657   7.126  17.152  0.00  0.00    +0.000 A 
ATOM      8  C   UNL     1       4.798   6.592  15.874  0.00  0.00    +0.000 A 
ATOM      9  C   UNL     1       5.799   5.647  15.617  0.00  0.00    +0.000 A 
ATOM     10  C   UNL     1       6.688   5.269  16.645  0.00  0.00    +0.000 A 
ATOM     11  N   UNL     1       7.704   4.325  16.558  0.00  0.00    +0.000 NA
ATOM     12  N   UNL     1       8.340   4.174  17.707  0.00  0.00    +0.000 NA
ATOM     13  S   UNL     1       7.750   5.165  18.915  0.00  0.00    +0.000 S 
ATOM     14  C   UNL     1       6.545   5.863  17.903  0.00  0.00    +0.000 A 
ATOM     15  C   UNL     1       5.552   6.811  18.182  0.00  0.00    +0.000 A 
ENDBRANCH   4   7
BRANCH   3  16
ATOM     16  C   UNL     1       2.436   5.176  17.904  0.00  0.00    +0.000 C 
BRANCH  16  17
ATOM     17  C   UNL     1       2.440   4.319  19.162  0.00  0.00    +0.000 A 
ATOM     18  C   UNL     1       2.016   4.872  20.390  0.00  0.00    +0.000 A 
ATOM     19  C   UNL     1       2.018   4.128  21.571  0.00  0.00    +0.000 A 
ATOM     20  C   UNL     1       2.462   2.815  21.563  0.00  0.00    +0.000 A 
ATOM     21  C   UNL     1       2.897   2.245  20.370  0.00  0.00    +0.000 A 
ATOM     22  C   UNL     1       2.892   2.976  19.157  0.00  0.00    +0.000 A 
BRANCH  22  23
ATOM     23  C   UNL     1       3.385   2.224  17.932  0.00  0.00    +0.000 C 
ATOM     24  F   UNL     1       2.465   2.040  16.950  0.00  0.00    +0.000 F 
ATOM     25  F   UNL     1       4.434   2.853  17.334  0.00  0.00    +0.000 F 
ATOM     26  F   UNL     1       3.839   0.979  18.250  0.00  0.00    +0.000 F 
ENDBRANCH  22  23
ENDBRANCH  16  17
ENDBRANCH   3  16
TORSDOF 4
ENDMDL
MODEL 4
REMARK VINA RESULT:      -7.8      2.032      2.853
REMARK  Name = 
REMARK  4 active torsions:
REMARK  status: ('A' for Active; 'I' for Inactive)
REMARK    1  A    between atoms: N_3  and  C_4
REMARK    2  A    between atoms: C_4  and  C_5
REMARK    3  A    between atoms: C_10  and  C_11
REMARK    4  A    between atoms: N_15  and  C_16
REMARK                            x       y       z     vdW  Elec       q    Type
REMARK                         _______ _______ _______ _____ _____    ______ ____
ROOT
ATOM      1  O   UNL     1       0.593   3.150  20.104  0.00  0.00    +0.000 OA
ATOM      2  C   UNL     1       1.517   3.896  19.774  0.00  0.00    +0.000 C 
ATOM      3  N   UNL     1       1.511   5.149  20.272  0.00  0.00    +0.000 N 
ATOM      4  N   UNL     1       2.485   3.410  18.964  0.00  0.00    +0.000 N 
ATOM      5  H   UNL     1       0.715   5.286  20.882  0.00  0.00    +0.000 HD
ATOM      6  H   UNL     1       2.447   2.399  18.959  0.00  0.00    +0.000 HD
ENDROOT
BRANCH   4   7
ATOM      7  C   UNL     1       3.697   3.987  18.593  0.00  0.00    +0.000 A 
ATOM      8  C   UNL     1       4.681   4.220  19.552  0.00  0.00    +0.000 A 
ATOM      9  C   UNL     1       5.868   4.868  19.193  0.00  0.00    +0.000 A 
ATOM     10  C   UNL     1       6.082   5.248  17.851  0.00  0.00    +0.000 A 
ATOM     11  N   UNL     1       7.186   5.925  17.346  0.00  0.00    +0.000 NA
ATOM     12  N   UNL     1       7.071   6.162  16.050  0.00  0.00    +0.000 NA
ATOM     13  S   UNL     1       5.651   5.570  15.401  0.00  0.00    +0.000 S 
ATOM     14  C   UNL     1       5.092   4.954  16.907  0.00  0.00    +0.000 A 
ATOM     15  C   UNL     1       3.897   4.304  17.245  0.00  0.00    +0.000 A 
ENDBRANCH   4   7
BRANCH   3  16
ATOM     16  C   UNL     1       2.517   6.198  20.331  0.00  0.00    +0.000 C 
BRANCH  16  17
ATOM     17  C   UNL     1       2.201   7.424  19.486  0.00  0.00    +0.000 A 
ATOM     18  C   UNL     1       2.752   7.545  18.192  0.00  0.00    +0.000 A 
ATOM     19  C   UNL     1       2.502   8.659  17.389  0.00  0.00    +0.000 A 
ATOM     20  C   UNL     1       1.710   9.693  17.863  0.00  0.00    +0.000 A 
ATOM     21  C   UNL     1       1.162   9.608  19.139  0.00  0.00    +0.000 A 
ATOM     22  C   UNL     1       1.391   8.483  19.968  0.00  0.00    +0.000 A 
BRANCH  22  23
ATOM     23  C   UNL     1       0.722   8.521  21.331  0.00  0.00    +0.000 C 
ATOM     24  F   UNL     1       1.562   8.439  22.396  0.00  0.00    +0.000 F 
ATOM     25  F   UNL     1       0.009   9.667  21.518  0.00  0.00    +0.000 F 
ATOM     26  F   UNL     1      -0.172   7.505  21.486  0.00  0.00    +0.000 F 
ENDBRANCH  22  23
ENDBRANCH  16  17
ENDBRANCH   3  16
TORSDOF 4
ENDMDL
MODEL 5
REMARK VINA RESULT:      -7.6      3.639      5.026
REMARK  Name = 
REMARK  4 active torsions:
REMARK  status: ('A' for Active; 'I' for Inactive)
REMARK    1  A    between atoms: N_3  and  C_4
REMARK    2  A    between atoms: C_4  and  C_5
REMARK    3  A    between atoms: C_10  and  C_11
REMARK    4  A    between atoms: N_15  and  C_16
REMARK                            x       y       z     vdW  Elec       q    Type
REMARK                         _______ _______ _______ _____ _____    ______ ____
ROOT
ATOM      1  O   UNL     1       1.469   8.641  18.025  0.00  0.00    +0.000 OA
ATOM      2  C   UNL     1       2.222   7.666  18.002  0.00  0.00    +0.000 C 
ATOM      3  N   UNL     1       1.662   6.446  18.133  0.00  0.00    +0.000 N 
ATOM      4  N   UNL     1       3.546   7.873  17.824  0.00  0.00    +0.000 N 
ATOM      5  H   UNL     1       0.656   6.523  18.219  0.00  0.00    +0.000 HD
ATOM      6  H   UNL     1       3.698   8.805  17.461  0.00  0.00    +0.000 HD
ENDROOT
BRANCH   4   7
ATOM      7  C   UNL     1       4.561   6.946  17.596  0.00  0.00    +0.000 A 
ATOM      8  C   UNL     1       5.235   6.372  18.672  0.00  0.00    +0.000 A 
ATOM      9  C   UNL     1       6.305   5.499  18.442  0.00  0.00    +0.000 A 
ATOM     10  C   UNL     1       6.671   5.172  17.119  0.00  0.00    +0.000 A 
ATOM     11  N   UNL     1       7.725   4.354  16.728  0.00  0.00    +0.000 NA
ATOM     12  N   UNL     1       7.827   4.272  15.412  0.00  0.00    +0.000 NA
ATOM     13  S   UNL     1       6.659   5.158  14.611  0.00  0.00    +0.000 S 
ATOM     14  C   UNL     1       5.941   5.731  16.065  0.00  0.00    +0.000 A 
ATOM     15  C   UNL     1       4.865   6.605  16.273  0.00  0.00    +0.000 A 
ENDBRANCH   4   7
BRANCH   3  16
ATOM     16  C   UNL     1       2.155   5.097  17.902  0.00  0.00    +0.000 C 
BRANCH  16  17
ATOM     17  C   UNL     1       2.309   4.257  19.162  0.00  0.00    +0.000 A 
ATOM     18  C   UNL     1       1.909   4.783  20.410  0.00  0.00    +0.000 A 
ATOM     19  C   UNL     1       2.047   4.054  21.593  0.00  0.00    +0.000 A 
ATOM     20  C   UNL     1       2.605   2.785  21.565  0.00  0.00    +0.000 A 
ATOM     21  C   UNL     1       3.019   2.245  20.352  0.00  0.00    +0.000 A 
ATOM     22  C   UNL     1       2.879   2.959  19.137  0.00  0.00    +0.000 A 
BRANCH  22  23
ATOM     23  C   UNL     1       3.365   2.241  17.890  0.00  0.00    +0.000 C 
ATOM     24  F   UNL     1       4.315   2.895  17.172  0.00  0.00    +0.000 F 
ATOM     25  F   UNL     1       3.902   1.023  18.178  0.00  0.00    +0.000 F 
ATOM     26  F   UNL     1       2.347   1.995  17.018  0.00  0.00    +0.000 F 
ENDBRANCH  22  23
ENDBRANCH  16  17
ENDBRANCH   3  16
TORSDOF 4
ENDMDL
MODEL 6
REMARK VINA RESULT:      -7.6      2.006      2.585
REMARK  Name = 
REMARK  4 active torsions:
REMARK  status: ('A' for Active; 'I' for Inactive)
REMARK    1  A    between atoms: N_3  and  C_4
REMARK    2  A    between atoms: C_4  and  C_5
REMARK    3  A    between atoms: C_10  and  C_11
REMARK    4  A    between atoms: N_15  and  C_16
REMARK                            x       y       z     vdW  Elec       q    Type
REMARK                         _______ _______ _______ _____ _____    ______ ____
ROOT
ATOM      1  O   UNL     1       1.084   3.672  20.993  0.00  0.00    +0.000 OA
ATOM      2  C   UNL     1       1.789   4.493  20.404  0.00  0.00    +0.000 C 
ATOM      3  N   UNL     1       1.659   5.788  20.757  0.00  0.00    +0.000 N 
ATOM      4  N   UNL     1       2.659   4.050  19.469  0.00  0.00    +0.000 N 
ATOM      5  H   UNL     1       0.978   5.889  21.499  0.00  0.00    +0.000 HD
ATOM      6  H   UNL     1       2.796   3.053  19.579  0.00  0.00    +0.000 HD
ENDROOT
BRANCH   4   7
ATOM      7  C   UNL     1       3.665   4.743  18.799  0.00  0.00    +0.000 A 
ATOM      8  C   UNL     1       3.412   5.300  17.548  0.00  0.00    +0.000 A 
ATOM      9  C   UNL     1       4.444   5.932  16.843  0.00  0.00    +0.000 A 
ATOM     10  C   UNL     1       5.726   6.037  17.421  0.00  0.00    +0.000 A 
ATOM     11  N   UNL     1       6.855   6.600  16.837  0.00  0.00    +0.000 NA
ATOM     12  N   UNL     1       7.914   6.515  17.624  0.00  0.00    +0.000 NA
ATOM     13  S   UNL     1       7.585   5.775  19.085  0.00  0.00    +0.000 S 
ATOM     14  C   UNL     1       5.929   5.508  18.699  0.00  0.00    +0.000 A 
ATOM     15  C   UNL     1       4.911   4.874  19.423  0.00  0.00    +0.000 A 
ENDBRANCH   4   7
BRANCH   3  16
ATOM     16  C   UNL     1       2.462   6.973  20.498  0.00  0.00    +0.000 C 
BRANCH  16  17
ATOM     17  C   UNL     1       1.742   8.068  19.723  0.00  0.00    +0.000 A 
ATOM     18  C   UNL     1       1.994   8.234  18.344  0.00  0.00    +0.000 A 
ATOM     19  C   UNL     1       1.368   9.235  17.599  0.00  0.00    +0.000 A 
ATOM     20  C   UNL     1       0.486  10.109  18.213  0.00  0.00    +0.000 A 
ATOM     21  C   UNL     1       0.226   9.978  19.574  0.00  0.00    +0.000 A 
ATOM     22  C   UNL     1       0.839   8.964  20.349  0.00  0.00    +0.000 A 
BRANCH  22  23
ATOM     23  C   UNL     1       0.454   8.933  21.818  0.00  0.00    +0.000 C 
ATOM     24  F   UNL     1       1.472   8.689  22.684  0.00  0.00    +0.000 F 
ATOM     25  F   UNL     1      -0.097  10.110  22.227  0.00  0.00    +0.000 F 
ATOM     26  F   UNL     1      -0.486   7.981  22.076  0.00  0.00    +0.000 F 
ENDBRANCH  22  23
ENDBRANCH  16  17
ENDBRANCH   3  16
TORSDOF 4
ENDMDL
MODEL 7
REMARK VINA RESULT:      -7.6      3.791      6.316
REMARK  Name = 
REMARK  4 active torsions:
REMARK  status: ('A' for Active; 'I' for Inactive)
REMARK    1  A    between atoms: N_3  and  C_4
REMARK    2  A    between atoms: C_4  and  C_5
REMARK    3  A    between atoms: C_10  and  C_11
REMARK    4  A    between atoms: N_15  and  C_16
REMARK                            x       y       z     vdW  Elec       q    Type
REMARK                         _______ _______ _______ _____ _____    ______ ____
ROOT
ATOM      1  O   UNL     1       2.162   9.248  17.280  0.00  0.00    +0.000 OA
ATOM      2  C   UNL     1       2.650   8.171  17.626  0.00  0.00    +0.000 C 
ATOM      3  N   UNL     1       3.989   8.041  17.543  0.00  0.00    +0.000 N 
ATOM      4  N   UNL     1       1.825   7.204  18.087  0.00  0.00    +0.000 N 
ATOM      5  H   UNL     1       4.410   8.898  17.207  0.00  0.00    +0.000 HD
ATOM      6  H   UNL     1       0.932   7.609  18.334  0.00  0.00    +0.000 HD
ENDROOT
BRANCH   4   7
ATOM      7  C   UNL     1       2.140   5.986  18.686  0.00  0.00    +0.000 A 
ATOM      8  C   UNL     1       2.256   5.900  20.071  0.00  0.00    +0.000 A 
ATOM      9  C   UNL     1       2.647   4.695  20.667  0.00  0.00    +0.000 A 
ATOM     10  C   UNL     1       2.883   3.560  19.863  0.00  0.00    +0.000 A 
ATOM     11  N   UNL     1       3.307   2.310  20.298  0.00  0.00    +0.000 NA
ATOM     12  N   UNL     1       3.468   1.464  19.294  0.00  0.00    +0.000 NA
ATOM     13  S   UNL     1       3.103   2.137  17.810  0.00  0.00    +0.000 S 
ATOM     14  C   UNL     1       2.710   3.671  18.480  0.00  0.00    +0.000 A 
ATOM     15  C   UNL     1       2.317   4.867  17.864  0.00  0.00    +0.000 A 
ENDBRANCH   4   7
BRANCH   3  16
ATOM     16  C   UNL     1       4.927   7.068  18.082  0.00  0.00    +0.000 C 
BRANCH  16  17
ATOM     17  C   UNL     1       5.621   6.212  17.031  0.00  0.00    +0.000 A 
ATOM     18  C   UNL     1       5.040   6.061  15.754  0.00  0.00    +0.000 A 
ATOM     19  C   UNL     1       5.633   5.272  14.766  0.00  0.00    +0.000 A 
ATOM     20  C   UNL     1       6.814   4.598  15.032  0.00  0.00    +0.000 A 
ATOM     21  C   UNL     1       7.405   4.719  16.286  0.00  0.00    +0.000 A 
ATOM     22  C   UNL     1       6.830   5.521  17.301  0.00  0.00    +0.000 A 
BRANCH  22  23
ATOM     23  C   UNL     1       7.588   5.567  18.616  0.00  0.00    +0.000 C 
ATOM     24  F   UNL     1       6.833   5.403  19.733  0.00  0.00    +0.000 F 
ATOM     25  F   UNL     1       8.552   4.606  18.683  0.00  0.00    +0.000 F 
ATOM     26  F   UNL     1       8.242   6.751  18.783  0.00  0.00    +0.000 F 
ENDBRANCH  22  23
ENDBRANCH  16  17
ENDBRANCH   3  16
TORSDOF 4
ENDMDL
MODEL 8
REMARK VINA RESULT:      -7.5      1.292      1.639
REMARK  Name = 
REMARK  4 active torsions:
REMARK  status: ('A' for Active; 'I' for Inactive)
REMARK    1  A    between atoms: N_3  and  C_4
REMARK    2  A    between atoms: C_4  and  C_5
REMARK    3  A    between atoms: C_10  and  C_11
REMARK    4  A    between atoms: N_15  and  C_16
REMARK                            x       y       z     vdW  Elec       q    Type
REMARK                         _______ _______ _______ _____ _____    ______ ____
ROOT
ATOM      1  O   UNL     1       0.718   2.797  20.008  0.00  0.00    +0.000 OA
ATOM      2  C   UNL     1       1.604   3.586  19.678  0.00  0.00    +0.000 C 
ATOM      3  N   UNL     1       1.526   4.844  20.159  0.00  0.00    +0.000 N 
ATOM      4  N   UNL     1       2.603   3.143  18.883  0.00  0.00    +0.000 N 
ATOM      5  H   UNL     1       0.718   4.945  20.761  0.00  0.00    +0.000 HD
ATOM      6  H   UNL     1       2.620   2.132  18.890  0.00  0.00    +0.000 HD
ENDROOT
BRANCH   4   7
ATOM      7  C   UNL     1       3.787   3.780  18.516  0.00  0.00    +0.000 A 
ATOM      8  C   UNL     1       4.781   4.005  19.465  0.00  0.00    +0.000 A 
ATOM      9  C   UNL     1       5.937   4.712  19.113  0.00  0.00    +0.000 A 
ATOM     10  C   UNL     1       6.110   5.158  17.786  0.00  0.00    +0.000 A 
ATOM     11  N   UNL     1       7.178   5.897  17.292  0.00  0.00    +0.000 NA
ATOM     12  N   UNL     1       7.029   6.188  16.011  0.00  0.00    +0.000 NA
ATOM     13  S   UNL     1       5.618   5.574  15.362  0.00  0.00    +0.000 S 
ATOM     14  C   UNL     1       5.112   4.871  16.849  0.00  0.00    +0.000 A 
ATOM     15  C   UNL     1       3.948   4.164  17.179  0.00  0.00    +0.000 A 
ENDBRANCH   4   7
BRANCH   3  16
ATOM     16  C   UNL     1       2.474   5.946  20.215  0.00  0.00    +0.000 C 
BRANCH  16  17
ATOM     17  C   UNL     1       1.834   7.326  20.280  0.00  0.00    +0.000 A 
ATOM     18  C   UNL     1       1.150   7.728  21.447  0.00  0.00    +0.000 A 
ATOM     19  C   UNL     1       0.535   8.978  21.543  0.00  0.00    +0.000 A 
ATOM     20  C   UNL     1       0.571   9.854  20.471  0.00  0.00    +0.000 A 
ATOM     21  C   UNL     1       1.230   9.482  19.303  0.00  0.00    +0.000 A 
ATOM     22  C   UNL     1       1.871   8.225  19.184  0.00  0.00    +0.000 A 
BRANCH  22  23
ATOM     23  C   UNL     1       2.558   7.957  17.856  0.00  0.00    +0.000 C 
ATOM     24  F   UNL     1       3.905   7.795  17.917  0.00  0.00    +0.000 F 
ATOM     25  F   UNL     1       2.083   6.832  17.253  0.00  0.00    +0.000 F 
ATOM     26  F   UNL     1       2.347   8.966  16.965  0.00  0.00    +0.000 F 
ENDBRANCH  22  23
ENDBRANCH  16  17
ENDBRANCH   3  16
TORSDOF 4
ENDMDL
MODEL 9
REMARK VINA RESULT:      -7.5      3.098      5.962
REMARK  Name = 
REMARK  4 active torsions:
REMARK  status: ('A' for Active; 'I' for Inactive)
REMARK    1  A    between atoms: N_3  and  C_4
REMARK    2  A    between atoms: C_4  and  C_5
REMARK    3  A    between atoms: C_10  and  C_11
REMARK    4  A    between atoms: N_15  and  C_16
REMARK                            x       y       z     vdW  Elec       q    Type
REMARK                         _______ _______ _______ _____ _____    ______ ____
ROOT
ATOM      1  O   UNL     1       4.316   1.660  19.904  0.00  0.00    +0.000 OA
ATOM      2  C   UNL     1       4.243   2.873  19.702  0.00  0.00    +0.000 C 
ATOM      3  N   UNL     1       5.379   3.515  19.361  0.00  0.00    +0.000 N 
ATOM      4  N   UNL     1       3.038   3.477  19.808  0.00  0.00    +0.000 N 
ATOM      5  H   UNL     1       6.152   2.865  19.307  0.00  0.00    +0.000 HD
ATOM      6  H   UNL     1       2.305   2.780  19.779  0.00  0.00    +0.000 HD
ENDROOT
BRANCH   4   7
ATOM      7  C   UNL     1       2.669   4.777  19.471  0.00  0.00    +0.000 A 
ATOM      8  C   UNL     1       2.766   5.209  18.150  0.00  0.00    +0.000 A 
ATOM      9  C   UNL     1       2.467   6.537  17.824  0.00  0.00    +0.000 A 
ATOM     10  C   UNL     1       2.030   7.425  18.830  0.00  0.00    +0.000 A 
ATOM     11  N   UNL     1       1.731   8.773  18.674  0.00  0.00    +0.000 NA
ATOM     12  N   UNL     1       1.380   9.338  19.816  0.00  0.00    +0.000 NA
ATOM     13  S   UNL     1       1.385   8.271  21.101  0.00  0.00    +0.000 S 
ATOM     14  C   UNL     1       1.899   6.943  20.136  0.00  0.00    +0.000 A 
ATOM     15  C   UNL     1       2.191   5.617  20.484  0.00  0.00    +0.000 A 
ENDBRANCH   4   7
BRANCH   3  16
ATOM     16  C   UNL     1       5.646   4.834  18.808  0.00  0.00    +0.000 C 
BRANCH  16  17
ATOM     17  C   UNL     1       6.041   4.833  17.338  0.00  0.00    +0.000 A 
ATOM     18  C   UNL     1       5.635   3.770  16.502  0.00  0.00    +0.000 A 
ATOM     19  C   UNL     1       5.988   3.721  15.152  0.00  0.00    +0.000 A 
ATOM     20  C   UNL     1       6.773   4.723  14.603  0.00  0.00    +0.000 A 
ATOM     21  C   UNL     1       7.198   5.778  15.404  0.00  0.00    +0.000 A 
ATOM     22  C   UNL     1       6.843   5.857  16.773  0.00  0.00    +0.000 A 
BRANCH  22  23
ATOM     23  C   UNL     1       7.369   7.069  17.522  0.00  0.00    +0.000 C 
ATOM     24  F   UNL     1       8.212   7.870  16.820  0.00  0.00    +0.000 F 
ATOM     25  F   UNL     1       6.363   7.883  17.947  0.00  0.00    +0.000 F 
ATOM     26  F   UNL     1       8.050   6.712  18.647  0.00  0.00    +0.000 F 
ENDBRANCH  22  23
ENDBRANCH  16  17
ENDBRANCH   3  16
TORSDOF 4
ENDMDL
