MODEL 1
REMARK VINA RESULT:      -9.1      0.000      0.000
REMARK  Name = 
REMARK  3 active torsions:
REMARK  status: ('A' for Active; 'I' for Inactive)
REMARK    1  A    between atoms: C_2  and  C_15
REMARK    2  A    between atoms: N_3  and  N_4
REMARK    3  A    between atoms: C_5  and  C_6
REMARK                            x       y       z     vdW  Elec       q    Type
REMARK                         _______ _______ _______ _____ _____    ______ ____
ROOT
ATOM      1  O   UNL     1       8.113   5.777  19.275  0.00  0.00    +0.000 OA
ATOM      2  C   UNL     1       7.532   6.216  18.302  0.00  0.00    +0.000 C 
ATOM      3  N   UNL     1       7.669   7.524  17.821  0.00  0.00    +0.000 N 
ATOM      4  H   UNL     1       7.196   7.838  16.986  0.00  0.00    +0.000 HD
ENDROOT
BRANCH   2   5
ATOM      5  C   UNL     1       6.588   5.340  17.529  0.00  0.00    +0.000 A 
ATOM      6  C   UNL     1       7.058   4.786  16.330  0.00  0.00    +0.000 A 
ATOM      7  C   UNL     1       6.218   4.032  15.520  0.00  0.00    +0.000 A 
ATOM      8  C   UNL     1       4.905   3.801  15.915  0.00  0.00    +0.000 A 
ATOM      9  C   UNL     1       4.411   4.312  17.124  0.00  0.00    +0.000 A 
ATOM     10  C   UNL     1       3.074   4.065  17.485  0.00  0.00    +0.000 A 
ATOM     11  C   UNL     1       2.543   4.575  18.666  0.00  0.00    +0.000 A 
ATOM     12  C   UNL     1       3.330   5.364  19.489  0.00  0.00    +0.000 A 
ATOM     13  C   UNL     1       4.653   5.640  19.130  0.00  0.00    +0.000 A 
ATOM     14  C   UNL     1       5.247   5.102  17.960  0.00  0.00    +0.000 A 
ENDBRANCH   2   5
BRANCH   3  15
ATOM     15  N   UNL     1       8.483   8.398  18.487  0.00  0.00    +0.000 NA
ATOM     16  C   UNL     1       8.490   9.622  18.060  0.00  0.00    +0.000 C 
BRANCH  16  17
ATOM     17  C   UNL     1       9.325  10.670  18.694  0.00  0.00    +0.000 A 
ATOM     18  C   UNL     1       9.431  10.771  20.096  0.00  0.00    +0.000 A 
ATOM     19  C   UNL     1      10.225  11.771  20.677  0.00  0.00    +0.000 A 
ATOM     20  C   UNL     1      10.871  12.650  19.834  0.00  0.00    +0.000 A 
ATOM     21  C   UNL     1      10.758  12.554  18.466  0.00  0.00    +0.000 A 
ATOM     22  C   UNL     1      10.001  11.571  17.862  0.00  0.00    +0.000 A 
ATOM     23  O   UNL     1      11.452  13.530  17.819  0.00  0.00    +0.000 OA
ATOM     24  C   UNL     1      11.970  14.283  18.937  0.00  0.00    +0.000 C 
ATOM     25  O   UNL     1      11.661  13.689  20.216  0.00  0.00    +0.000 OA
ENDBRANCH  16  17
ENDBRANCH   3  15
TORSDOF 3
ENDMDL
MODEL 2
REMARK VINA RESULT:      -8.5      0.747      2.418
REMARK  Name = 
REMARK  3 active torsions:
REMARK  status: ('A' for Active; 'I' for Inactive)
REMARK    1  A    between atoms: C_2  and  C_15
REMARK    2  A    between atoms: N_3  and  N_4
REMARK    3  A    between atoms: C_5  and  C_6
REMARK                            x       y       z     vdW  Elec       q    Type
REMARK                         _______ _______ _______ _____ _____    ______ ____
ROOT
ATOM      1  O   UNL     1       8.031   5.989  19.247  0.00  0.00    +0.000 OA
ATOM      2  C   UNL     1       7.326   6.484  18.389  0.00  0.00    +0.000 C 
ATOM      3  N   UNL     1       7.502   7.770  17.863  0.00  0.00    +0.000 N 
ATOM      4  H   UNL     1       6.915   8.129  17.124  0.00  0.00    +0.000 HD
ENDROOT
BRANCH   2   5
ATOM      5  C   UNL     1       6.171   5.708  17.823  0.00  0.00    +0.000 A 
ATOM      6  C   UNL     1       5.066   5.495  18.660  0.00  0.00    +0.000 A 
ATOM      7  C   UNL     1       3.995   4.720  18.235  0.00  0.00    +0.000 A 
ATOM      8  C   UNL     1       4.004   4.171  16.957  0.00  0.00    +0.000 A 
ATOM      9  C   UNL     1       5.078   4.391  16.082  0.00  0.00    +0.000 A 
ATOM     10  C   UNL     1       5.057   3.811  14.801  0.00  0.00    +0.000 A 
ATOM     11  C   UNL     1       6.114   3.990  13.913  0.00  0.00    +0.000 A 
ATOM     12  C   UNL     1       7.223   4.723  14.304  0.00  0.00    +0.000 A 
ATOM     13  C   UNL     1       7.270   5.284  15.584  0.00  0.00    +0.000 A 
ATOM     14  C   UNL     1       6.194   5.166  16.502  0.00  0.00    +0.000 A 
ENDBRANCH   2   5
BRANCH   3  15
ATOM     15  N   UNL     1       8.510   8.557  18.349  0.00  0.00    +0.000 NA
ATOM     16  C   UNL     1       8.345   9.839  18.241  0.00  0.00    +0.000 C 
BRANCH  16  17
ATOM     17  C   UNL     1       9.359  10.804  18.728  0.00  0.00    +0.000 A 
ATOM     18  C   UNL     1       9.689  10.888  20.097  0.00  0.00    +0.000 A 
ATOM     19  C   UNL     1      10.650  11.810  20.538  0.00  0.00    +0.000 A 
ATOM     20  C   UNL     1      11.235  12.630  19.598  0.00  0.00    +0.000 A 
ATOM     21  C   UNL     1      10.904  12.551  18.265  0.00  0.00    +0.000 A 
ATOM     22  C   UNL     1       9.978  11.644  17.793  0.00  0.00    +0.000 A 
ATOM     23  O   UNL     1      11.575  13.463  17.509  0.00  0.00    +0.000 OA
ATOM     24  C   UNL     1      12.325  14.161  18.526  0.00  0.00    +0.000 C 
ATOM     25  O   UNL     1      12.164  13.592  19.843  0.00  0.00    +0.000 OA
ENDBRANCH  16  17
ENDBRANCH   3  15
TORSDOF 3
ENDMDL
MODEL 3
REMARK VINA RESULT:      -8.1      6.304      8.148
REMARK  Name = 
REMARK  3 active torsions:
REMARK  status: ('A' for Active; 'I' for Inactive)
REMARK    1  A    between atoms: C_2  and  C_15
REMARK    2  A    between atoms: N_3  and  N_4
REMARK    3  A    between atoms: C_5  and  C_6
REMARK                            x       y       z     vdW  Elec       q    Type
REMARK                         _______ _______ _______ _____ _____    ______ ____
ROOT
ATOM      1  O   UNL     1       2.377   8.018  17.585  0.00  0.00    +0.000 OA
ATOM      2  C   UNL     1       2.670   7.160  18.395  0.00  0.00    +0.000 C 
ATOM      3  N   UNL     1       2.447   7.262  19.774  0.00  0.00    +0.000 N 
ATOM      4  H   UNL     1       2.672   6.510  20.408  0.00  0.00    +0.000 HD
ENDROOT
BRANCH   2   5
ATOM      5  C   UNL     1       3.323   5.886  17.941  0.00  0.00    +0.000 A 
ATOM      6  C   UNL     1       4.513   5.997  17.209  0.00  0.00    +0.000 A 
ATOM      7  C   UNL     1       5.131   4.868  16.686  0.00  0.00    +0.000 A 
ATOM      8  C   UNL     1       4.580   3.612  16.913  0.00  0.00    +0.000 A 
ATOM      9  C   UNL     1       3.408   3.461  17.669  0.00  0.00    +0.000 A 
ATOM     10  C   UNL     1       2.875   2.175  17.869  0.00  0.00    +0.000 A 
ATOM     11  C   UNL     1       1.701   1.989  18.596  0.00  0.00    +0.000 A 
ATOM     12  C   UNL     1       1.027   3.087  19.105  0.00  0.00    +0.000 A 
ATOM     13  C   UNL     1       1.531   4.373  18.891  0.00  0.00    +0.000 A 
ATOM     14  C   UNL     1       2.748   4.604  18.198  0.00  0.00    +0.000 A 
ENDBRANCH   2   5
BRANCH   3  15
ATOM     15  N   UNL     1       1.889   8.406  20.276  0.00  0.00    +0.000 NA
ATOM     16  C   UNL     1       0.746   8.277  20.874  0.00  0.00    +0.000 C 
BRANCH  16  17
ATOM     17  C   UNL     1       0.034   9.434  21.465  0.00  0.00    +0.000 A 
ATOM     18  C   UNL     1      -0.421   9.409  22.800  0.00  0.00    +0.000 A 
ATOM     19  C   UNL     1      -1.094  10.515  23.340  0.00  0.00    +0.000 A 
ATOM     20  C   UNL     1      -1.307  11.602  22.520  0.00  0.00    +0.000 A 
ATOM     21  C   UNL     1      -0.869  11.620  21.216  0.00  0.00    +0.000 A 
ATOM     22  C   UNL     1      -0.187  10.558  20.659  0.00  0.00    +0.000 A 
ATOM     23  O   UNL     1      -1.202  12.773  20.573  0.00  0.00    +0.000 OA
ATOM     24  C   UNL     1      -1.945  13.456  21.606  0.00  0.00    +0.000 C 
ATOM     25  O   UNL     1      -1.957  12.747  22.863  0.00  0.00    +0.000 OA
ENDBRANCH  16  17
ENDBRANCH   3  15
TORSDOF 3
ENDMDL
MODEL 4
REMARK VINA RESULT:      -8.0      5.838      9.160
REMARK  Name = 
REMARK  3 active torsions:
REMARK  status: ('A' for Active; 'I' for Inactive)
REMARK    1  A    between atoms: C_2  and  C_15
REMARK    2  A    between atoms: N_3  and  N_4
REMARK    3  A    between atoms: C_5  and  C_6
REMARK                            x       y       z     vdW  Elec       q    Type
REMARK                         _______ _______ _______ _____ _____    ______ ____
ROOT
ATOM      1  O   UNL     1      -0.255   9.318  17.340  0.00  0.00    +0.000 OA
ATOM      2  C   UNL     1       0.476   9.808  18.179  0.00  0.00    +0.000 C 
ATOM      3  N   UNL     1       1.814   9.444  18.373  0.00  0.00    +0.000 N 
ATOM      4  H   UNL     1       2.398   9.903  19.057  0.00  0.00    +0.000 HD
ENDROOT
BRANCH   2   5
ATOM      5  C   UNL     1      -0.042  10.876  19.099  0.00  0.00    +0.000 A 
ATOM      6  C   UNL     1      -0.205  12.162  18.566  0.00  0.00    +0.000 A 
ATOM      7  C   UNL     1      -0.602  13.219  19.375  0.00  0.00    +0.000 A 
ATOM      8  C   UNL     1      -0.868  12.995  20.721  0.00  0.00    +0.000 A 
ATOM      9  C   UNL     1      -0.748  11.715  21.281  0.00  0.00    +0.000 A 
ATOM     10  C   UNL     1      -1.016  11.529  22.648  0.00  0.00    +0.000 A 
ATOM     11  C   UNL     1      -0.886  10.276  23.243  0.00  0.00    +0.000 A 
ATOM     12  C   UNL     1      -0.456   9.198  22.486  0.00  0.00    +0.000 A 
ATOM     13  C   UNL     1      -0.160   9.373  21.131  0.00  0.00    +0.000 A 
ATOM     14  C   UNL     1      -0.324  10.621  20.475  0.00  0.00    +0.000 A 
ENDBRANCH   2   5
BRANCH   3  15
ATOM     15  N   UNL     1       2.355   8.454  17.600  0.00  0.00    +0.000 NA
ATOM     16  C   UNL     1       3.158   7.628  18.196  0.00  0.00    +0.000 C 
BRANCH  16  17
ATOM     17  C   UNL     1       3.810   6.509  17.476  0.00  0.00    +0.000 A 
ATOM     18  C   UNL     1       3.386   5.176  17.660  0.00  0.00    +0.000 A 
ATOM     19  C   UNL     1       4.017   4.131  16.970  0.00  0.00    +0.000 A 
ATOM     20  C   UNL     1       5.065   4.451  16.134  0.00  0.00    +0.000 A 
ATOM     21  C   UNL     1       5.482   5.751  15.963  0.00  0.00    +0.000 A 
ATOM     22  C   UNL     1       4.871   6.806  16.611  0.00  0.00    +0.000 A 
ATOM     23  O   UNL     1       6.543   5.850  15.118  0.00  0.00    +0.000 OA
ATOM     24  C   UNL     1       6.782   4.457  14.817  0.00  0.00    +0.000 C 
ATOM     25  O   UNL     1       5.805   3.573  15.405  0.00  0.00    +0.000 OA
ENDBRANCH  16  17
ENDBRANCH   3  15
TORSDOF 3
ENDMDL
MODEL 5
REMARK VINA RESULT:      -8.0      6.813      9.291
REMARK  Name = 
REMARK  3 active torsions:
REMARK  status: ('A' for Active; 'I' for Inactive)
REMARK    1  A    between atoms: C_2  and  C_15
REMARK    2  A    between atoms: N_3  and  N_4
REMARK    3  A    between atoms: C_5  and  C_6
REMARK                            x       y       z     vdW  Elec       q    Type
REMARK                         _______ _______ _______ _____ _____    ______ ____
ROOT
ATOM      1  O   UNL     1       2.176   7.477  19.867  0.00  0.00    +0.000 OA
ATOM      2  C   UNL     1       2.401   7.562  18.676  0.00  0.00    +0.000 C 
ATOM      3  N   UNL     1       1.847   8.532  17.832  0.00  0.00    +0.000 N 
ATOM      4  H   UNL     1       2.089   8.590  16.853  0.00  0.00    +0.000 HD
ENDROOT
BRANCH   2   5
ATOM      5  C   UNL     1       3.325   6.582  18.011  0.00  0.00    +0.000 A 
ATOM      6  C   UNL     1       4.483   7.095  17.408  0.00  0.00    +0.000 A 
ATOM      7  C   UNL     1       5.344   6.261  16.705  0.00  0.00    +0.000 A 
ATOM      8  C   UNL     1       5.071   4.901  16.621  0.00  0.00    +0.000 A 
ATOM      9  C   UNL     1       3.940   4.348  17.240  0.00  0.00    +0.000 A 
ATOM     10  C   UNL     1       3.692   2.969  17.124  0.00  0.00    +0.000 A 
ATOM     11  C   UNL     1       2.568   2.389  17.707  0.00  0.00    +0.000 A 
ATOM     12  C   UNL     1       1.659   3.185  18.386  0.00  0.00    +0.000 A 
ATOM     13  C   UNL     1       1.879   4.562  18.487  0.00  0.00    +0.000 A 
ATOM     14  C   UNL     1       3.034   5.185  17.949  0.00  0.00    +0.000 A 
ENDBRANCH   2   5
BRANCH   3  15
ATOM     15  N   UNL     1       0.967   9.442  18.350  0.00  0.00    +0.000 NA
ATOM     16  C   UNL     1      -0.226   9.448  17.841  0.00  0.00    +0.000 C 
BRANCH  16  17
ATOM     17  C   UNL     1      -1.276  10.381  18.312  0.00  0.00    +0.000 A 
ATOM     18  C   UNL     1      -1.017  11.317  19.335  0.00  0.00    +0.000 A 
ATOM     19  C   UNL     1      -2.025  12.191  19.769  0.00  0.00    +0.000 A 
ATOM     20  C   UNL     1      -3.266  12.086  19.178  0.00  0.00    +0.000 A 
ATOM     21  C   UNL     1      -3.518  11.166  18.186  0.00  0.00    +0.000 A 
ATOM     22  C   UNL     1      -2.544  10.305  17.722  0.00  0.00    +0.000 A 
ATOM     23  O   UNL     1      -4.808  11.208  17.755  0.00  0.00    +0.000 OA
ATOM     24  C   UNL     1      -5.353  12.223  18.626  0.00  0.00    +0.000 C 
ATOM     25  O   UNL     1      -4.363  12.829  19.483  0.00  0.00    +0.000 OA
ENDBRANCH  16  17
ENDBRANCH   3  15
TORSDOF 3
ENDMDL
MODEL 6
REMARK VINA RESULT:      -7.9      5.952      8.244
REMARK  Name = 
REMARK  3 active torsions:
REMARK  status: ('A' for Active; 'I' for Inactive)
REMARK    1  A    between atoms: C_2  and  C_15
REMARK    2  A    between atoms: N_3  and  N_4
REMARK    3  A    between atoms: C_5  and  C_6
REMARK                            x       y       z     vdW  Elec       q    Type
REMARK                         _______ _______ _______ _____ _____    ______ ____
ROOT
ATOM      1  O   UNL     1       2.259   8.012  17.821  0.00  0.00    +0.000 OA
ATOM      2  C   UNL     1       2.478   7.045  18.524  0.00  0.00    +0.000 C 
ATOM      3  N   UNL     1       2.291   7.014  19.911  0.00  0.00    +0.000 N 
ATOM      4  H   UNL     1       2.451   6.177  20.453  0.00  0.00    +0.000 HD
ENDROOT
BRANCH   2   5
ATOM      5  C   UNL     1       2.990   5.771  17.914  0.00  0.00    +0.000 A 
ATOM      6  C   UNL     1       2.118   4.674  17.885  0.00  0.00    +0.000 A 
ATOM      7  C   UNL     1       2.546   3.441  17.411  0.00  0.00    +0.000 A 
ATOM      8  C   UNL     1       3.844   3.297  16.934  0.00  0.00    +0.000 A 
ATOM      9  C   UNL     1       4.734   4.382  16.918  0.00  0.00    +0.000 A 
ATOM     10  C   UNL     1       6.042   4.197  16.437  0.00  0.00    +0.000 A 
ATOM     11  C   UNL     1       6.959   5.245  16.426  0.00  0.00    +0.000 A 
ATOM     12  C   UNL     1       6.591   6.484  16.924  0.00  0.00    +0.000 A 
ATOM     13  C   UNL     1       5.302   6.676  17.429  0.00  0.00    +0.000 A 
ATOM     14  C   UNL     1       4.323   5.650  17.416  0.00  0.00    +0.000 A 
ENDBRANCH   2   5
BRANCH   3  15
ATOM     15  N   UNL     1       1.860   8.144  20.551  0.00  0.00    +0.000 NA
ATOM     16  C   UNL     1       0.576   8.296  20.654  0.00  0.00    +0.000 C 
BRANCH  16  17
ATOM     17  C   UNL     1      -0.023   9.473  21.325  0.00  0.00    +0.000 A 
ATOM     18  C   UNL     1      -0.390   9.429  22.686  0.00  0.00    +0.000 A 
ATOM     19  C   UNL     1      -0.957  10.554  23.304  0.00  0.00    +0.000 A 
ATOM     20  C   UNL     1      -1.159  11.679  22.532  0.00  0.00    +0.000 A 
ATOM     21  C   UNL     1      -0.808  11.715  21.202  0.00  0.00    +0.000 A 
ATOM     22  C   UNL     1      -0.230  10.633  20.569  0.00  0.00    +0.000 A 
ATOM     23  O   UNL     1      -1.112  12.905  20.618  0.00  0.00    +0.000 OA
ATOM     24  C   UNL     1      -1.743  13.596  21.718  0.00  0.00    +0.000 C 
ATOM     25  O   UNL     1      -1.714  12.847  22.951  0.00  0.00    +0.000 OA
ENDBRANCH  16  17
ENDBRANCH   3  15
TORSDOF 3
ENDMDL
MODEL 7
REMARK VINA RESULT:      -7.9      2.307      9.212
REMARK  Name = 
REMARK  3 active torsions:
REMARK  status: ('A' for Active; 'I' for Inactive)
REMARK    1  A    between atoms: C_2  and  C_15
REMARK    2  A    between atoms: N_3  and  N_4
REMARK    3  A    between atoms: C_5  and  C_6
REMARK                            x       y       z     vdW  Elec       q    Type
REMARK                         _______ _______ _______ _____ _____    ______ ____
ROOT
ATOM      1  O   UNL     1       9.487  10.889  20.086  0.00  0.00    +0.000 OA
ATOM      2  C   UNL     1       9.576  11.035  18.882  0.00  0.00    +0.000 C 
ATOM      3  N   UNL     1       9.076  10.133  17.935  0.00  0.00    +0.000 N 
ATOM      4  H   UNL     1       9.138  10.311  16.943  0.00  0.00    +0.000 HD
ENDROOT
BRANCH   2   5
ATOM      5  C   UNL     1      10.264  12.246  18.319  0.00  0.00    +0.000 A 
ATOM      6  C   UNL     1      11.608  12.108  17.946  0.00  0.00    +0.000 A 
ATOM      7  C   UNL     1      12.333  13.203  17.493  0.00  0.00    +0.000 A 
ATOM      8  C   UNL     1      11.714  14.442  17.380  0.00  0.00    +0.000 A 
ATOM      9  C   UNL     1      10.361  14.609  17.713  0.00  0.00    +0.000 A 
ATOM     10  C   UNL     1       9.771  15.880  17.596  0.00  0.00    +0.000 A 
ATOM     11  C   UNL     1       8.437  16.088  17.937  0.00  0.00    +0.000 A 
ATOM     12  C   UNL     1       7.683  15.036  18.430  0.00  0.00    +0.000 A 
ATOM     13  C   UNL     1       8.263  13.772  18.577  0.00  0.00    +0.000 A 
ATOM     14  C   UNL     1       9.604  13.506  18.197  0.00  0.00    +0.000 A 
ENDBRANCH   2   5
BRANCH   3  15
ATOM     15  N   UNL     1       8.466   8.986  18.364  0.00  0.00    +0.000 NA
ATOM     16  C   UNL     1       7.808   8.313  17.471  0.00  0.00    +0.000 C 
BRANCH  16  17
ATOM     17  C   UNL     1       7.104   7.052  17.802  0.00  0.00    +0.000 A 
ATOM     18  C   UNL     1       7.561   6.208  18.835  0.00  0.00    +0.000 A 
ATOM     19  C   UNL     1       6.881   5.018  19.132  0.00  0.00    +0.000 A 
ATOM     20  C   UNL     1       5.777   4.700  18.369  0.00  0.00    +0.000 A 
ATOM     21  C   UNL     1       5.339   5.521  17.356  0.00  0.00    +0.000 A 
ATOM     22  C   UNL     1       5.972   6.708  17.051  0.00  0.00    +0.000 A 
ATOM     23  O   UNL     1       4.252   5.015  16.712  0.00  0.00    +0.000 OA
ATOM     24  C   UNL     1       4.088   3.757  17.401  0.00  0.00    +0.000 C 
ATOM     25  O   UNL     1       5.011   3.584  18.497  0.00  0.00    +0.000 OA
ENDBRANCH  16  17
ENDBRANCH   3  15
TORSDOF 3
ENDMDL
MODEL 8
REMARK VINA RESULT:      -7.9      0.899      1.399
REMARK  Name = 
REMARK  3 active torsions:
REMARK  status: ('A' for Active; 'I' for Inactive)
REMARK    1  A    between atoms: C_2  and  C_15
REMARK    2  A    between atoms: N_3  and  N_4
REMARK    3  A    between atoms: C_5  and  C_6
REMARK                            x       y       z     vdW  Elec       q    Type
REMARK                         _______ _______ _______ _____ _____    ______ ____
ROOT
ATOM      1  O   UNL     1       8.023   6.175  19.054  0.00  0.00    +0.000 OA
ATOM      2  C   UNL     1       7.481   6.566  18.039  0.00  0.00    +0.000 C 
ATOM      3  N   UNL     1       7.662   7.839  17.483  0.00  0.00    +0.000 N 
ATOM      4  H   UNL     1       7.220   8.111  16.617  0.00  0.00    +0.000 HD
ENDROOT
BRANCH   2   5
ATOM      5  C   UNL     1       6.537   5.666  17.293  0.00  0.00    +0.000 A 
ATOM      6  C   UNL     1       6.951   5.198  16.038  0.00  0.00    +0.000 A 
ATOM      7  C   UNL     1       6.101   4.428  15.254  0.00  0.00    +0.000 A 
ATOM      8  C   UNL     1       4.838   4.093  15.730  0.00  0.00    +0.000 A 
ATOM      9  C   UNL     1       4.404   4.516  16.995  0.00  0.00    +0.000 A 
ATOM     10  C   UNL     1       3.116   4.167  17.438  0.00  0.00    +0.000 A 
ATOM     11  C   UNL     1       2.644   4.587  18.678  0.00  0.00    +0.000 A 
ATOM     12  C   UNL     1       3.440   5.389  19.480  0.00  0.00    +0.000 A 
ATOM     13  C   UNL     1       4.712   5.767  19.042  0.00  0.00    +0.000 A 
ATOM     14  C   UNL     1       5.250   5.322  17.807  0.00  0.00    +0.000 A 
ENDBRANCH   2   5
BRANCH   3  15
ATOM     15  N   UNL     1       8.478   8.734  18.119  0.00  0.00    +0.000 NA
ATOM     16  C   UNL     1       8.411   9.965  17.716  0.00  0.00    +0.000 C 
BRANCH  16  17
ATOM     17  C   UNL     1       9.239  11.035  18.321  0.00  0.00    +0.000 A 
ATOM     18  C   UNL     1      10.543  11.302  17.855  0.00  0.00    +0.000 A 
ATOM     19  C   UNL     1      11.311  12.318  18.443  0.00  0.00    +0.000 A 
ATOM     20  C   UNL     1      10.756  13.020  19.491  0.00  0.00    +0.000 A 
ATOM     21  C   UNL     1       9.487  12.751  19.949  0.00  0.00    +0.000 A 
ATOM     22  C   UNL     1       8.697  11.772  19.382  0.00  0.00    +0.000 A 
ATOM     23  O   UNL     1       9.139  13.537  21.004  0.00  0.00    +0.000 OA
ATOM     24  C   UNL     1      10.354  14.295  21.192  0.00  0.00    +0.000 C 
ATOM     25  O   UNL     1      11.357  14.018  20.193  0.00  0.00    +0.000 OA
ENDBRANCH  16  17
ENDBRANCH   3  15
TORSDOF 3
ENDMDL
MODEL 9
REMARK VINA RESULT:      -7.9      0.961      1.360
REMARK  Name = 
REMARK  3 active torsions:
REMARK  status: ('A' for Active; 'I' for Inactive)
REMARK    1  A    between atoms: C_2  and  C_15
REMARK    2  A    between atoms: N_3  and  N_4
REMARK    3  A    between atoms: C_5  and  C_6
REMARK                            x       y       z     vdW  Elec       q    Type
REMARK                         _______ _______ _______ _____ _____    ______ ____
ROOT
ATOM      1  O   UNL     1       7.833   6.177  18.995  0.00  0.00    +0.000 OA
ATOM      2  C   UNL     1       7.254   6.369  17.943  0.00  0.00    +0.000 C 
ATOM      3  N   UNL     1       7.452   7.486  17.122  0.00  0.00    +0.000 N 
ATOM      4  H   UNL     1       6.977   7.589  16.237  0.00  0.00    +0.000 HD
ENDROOT
BRANCH   2   5
ATOM      5  C   UNL     1       6.243   5.376  17.447  0.00  0.00    +0.000 A 
ATOM      6  C   UNL     1       6.646   4.500  16.429  0.00  0.00    +0.000 A 
ATOM      7  C   UNL     1       5.744   3.608  15.864  0.00  0.00    +0.000 A 
ATOM      8  C   UNL     1       4.435   3.562  16.329  0.00  0.00    +0.000 A 
ATOM      9  C   UNL     1       4.005   4.401  17.368  0.00  0.00    +0.000 A 
ATOM     10  C   UNL     1       2.671   4.334  17.805  0.00  0.00    +0.000 A 
ATOM     11  C   UNL     1       2.203   5.166  18.819  0.00  0.00    +0.000 A 
ATOM     12  C   UNL     1       3.055   6.099  19.389  0.00  0.00    +0.000 A 
ATOM     13  C   UNL     1       4.377   6.195  18.946  0.00  0.00    +0.000 A 
ATOM     14  C   UNL     1       4.907   5.336  17.950  0.00  0.00    +0.000 A 
ENDBRANCH   2   5
BRANCH   3  15
ATOM     15  N   UNL     1       8.331   8.457  17.518  0.00  0.00    +0.000 NA
ATOM     16  C   UNL     1       7.845   9.650  17.667  0.00  0.00    +0.000 C 
BRANCH  16  17
ATOM     17  C   UNL     1       8.687  10.792  18.093  0.00  0.00    +0.000 A 
ATOM     18  C   UNL     1       8.425  12.103  17.642  0.00  0.00    +0.000 A 
ATOM     19  C   UNL     1       9.234  13.170  18.057  0.00  0.00    +0.000 A 
ATOM     20  C   UNL     1      10.293  12.888  18.893  0.00  0.00    +0.000 A 
ATOM     21  C   UNL     1      10.552  11.608  19.324  0.00  0.00    +0.000 A 
ATOM     22  C   UNL     1       9.764  10.537  18.952  0.00  0.00    +0.000 A 
ATOM     23  O   UNL     1      11.653  11.540  20.120  0.00  0.00    +0.000 OA
ATOM     24  C   UNL     1      12.090  12.917  20.098  0.00  0.00    +0.000 C 
ATOM     25  O   UNL     1      11.193  13.787  19.376  0.00  0.00    +0.000 OA
ENDBRANCH  16  17
ENDBRANCH   3  15
TORSDOF 3
ENDMDL
