MODEL 1
REMARK VINA RESULT:      -8.2      0.000      0.000
REMARK  Name = 
REMARK  5 active torsions:
REMARK  status: ('A' for Active; 'I' for Inactive)
REMARK    1  A    between atoms: C_1  and  C_2
REMARK    2  A    between atoms: C_6  and  N_7
REMARK    3  A    between atoms: C_10  and  C_11
REMARK    4  A    between atoms: C_13  and  O_14
REMARK    5  A    between atoms: C_20  and  C_21
REMARK                            x       y       z     vdW  Elec       q    Type
REMARK                         _______ _______ _______ _____ _____    ______ ____
ROOT
ATOM      1  N   UNL     1       1.607   8.513  19.268  0.00  0.00    +0.000 N 
ATOM      2  C   UNL     1       2.311   7.285  19.368  0.00  0.00    +0.000 A 
ATOM      3  C   UNL     1       3.320   7.014  18.457  0.00  0.00    +0.000 A 
ATOM      4  C   UNL     1       3.970   5.769  18.468  0.00  0.00    +0.000 A 
ATOM      5  C   UNL     1       5.043   5.546  17.437  0.00  0.00    +0.000 C 
ATOM      6  C   UNL     1       3.566   4.779  19.415  0.00  0.00    +0.000 A 
ATOM      7  C   UNL     1       4.082   3.457  19.568  0.00  0.00    +0.000 A 
ATOM      8  C   UNL     1       3.528   2.538  20.456  0.00  0.00    +0.000 A 
ATOM      9  C   UNL     1       2.473   2.922  21.265  0.00  0.00    +0.000 A 
ATOM     10  C   UNL     1       1.987   4.226  21.173  0.00  0.00    +0.000 A 
ATOM     11  C   UNL     1       2.501   5.147  20.269  0.00  0.00    +0.000 A 
ATOM     12  N   UNL     1       1.917   6.353  20.254  0.00  0.00    +0.000 NA
ATOM     13  H   UNL     1       2.205   9.225  18.862  0.00  0.00    +0.000 HD
ENDROOT
BRANCH   1  19
ATOM     14  C   UNL     1      -1.571  11.980  21.016  0.00  0.00    +0.000 C 
ATOM     15  C   UNL     1      -0.596  10.849  21.211  0.00  0.00    +0.000 A 
ATOM     16  C   UNL     1      -0.328  10.411  22.518  0.00  0.00    +0.000 A 
ATOM     17  C   UNL     1       0.559   9.365  22.744  0.00  0.00    +0.000 A 
ATOM     18  C   UNL     1       1.169   8.729  21.667  0.00  0.00    +0.000 A 
ATOM     19  C   UNL     1       0.894   9.116  20.345  0.00  0.00    +0.000 A 
ATOM     20  C   UNL     1       0.038  10.216  20.113  0.00  0.00    +0.000 A 
ATOM     21  C   UNL     1      -0.243  10.703  18.709  0.00  0.00    +0.000 C 
ENDBRANCH   1  19
BRANCH   7  22
ATOM     22  O   UNL     1       5.160   2.988  18.866  0.00  0.00    +0.000 OA
ATOM     23  H   UNL     1       5.137   3.412  17.994  0.00  0.00    +0.000 HD
ENDBRANCH   7  22
TORSDOF 2
ENDMDL
MODEL 2
REMARK VINA RESULT:      -8.1      1.207      3.071
REMARK  Name = 
REMARK  5 active torsions:
REMARK  status: ('A' for Active; 'I' for Inactive)
REMARK    1  A    between atoms: C_1  and  C_2
REMARK    2  A    between atoms: C_6  and  N_7
REMARK    3  A    between atoms: C_10  and  C_11
REMARK    4  A    between atoms: C_13  and  O_14
REMARK    5  A    between atoms: C_20  and  C_21
REMARK                            x       y       z     vdW  Elec       q    Type
REMARK                         _______ _______ _______ _____ _____    ______ ____
ROOT
ATOM      1  N   UNL     1       1.614   7.401  20.907  0.00  0.00    +0.000 N 
ATOM      2  C   UNL     1       2.148   6.376  20.084  0.00  0.00    +0.000 A 
ATOM      3  C   UNL     1       2.009   5.056  20.480  0.00  0.00    +0.000 A 
ATOM      4  C   UNL     1       2.610   4.026  19.737  0.00  0.00    +0.000 A 
ATOM      5  C   UNL     1       2.429   2.620  20.242  0.00  0.00    +0.000 C 
ATOM      6  C   UNL     1       3.382   4.356  18.582  0.00  0.00    +0.000 A 
ATOM      7  C   UNL     1       4.084   3.464  17.718  0.00  0.00    +0.000 A 
ATOM      8  C   UNL     1       4.900   3.915  16.682  0.00  0.00    +0.000 A 
ATOM      9  C   UNL     1       5.001   5.273  16.436  0.00  0.00    +0.000 A 
ATOM     10  C   UNL     1       4.281   6.163  17.232  0.00  0.00    +0.000 A 
ATOM     11  C   UNL     1       3.490   5.736  18.292  0.00  0.00    +0.000 A 
ATOM     12  N   UNL     1       2.883   6.696  19.004  0.00  0.00    +0.000 NA
ATOM     13  H   UNL     1       0.815   7.049  21.426  0.00  0.00    +0.000 HD
ENDROOT
BRANCH   1  19
ATOM     14  C   UNL     1      -0.321  11.962  21.698  0.00  0.00    +0.000 C 
ATOM     15  C   UNL     1       0.273  10.905  20.806  0.00  0.00    +0.000 A 
ATOM     16  C   UNL     1       0.450  11.196  19.444  0.00  0.00    +0.000 A 
ATOM     17  C   UNL     1       1.003  10.253  18.585  0.00  0.00    +0.000 A 
ATOM     18  C   UNL     1       1.408   9.017  19.082  0.00  0.00    +0.000 A 
ATOM     19  C   UNL     1       1.282   8.708  20.446  0.00  0.00    +0.000 A 
ATOM     20  C   UNL     1       0.668   9.641  21.311  0.00  0.00    +0.000 A 
ATOM     21  C   UNL     1       0.460   9.327  22.776  0.00  0.00    +0.000 C 
ENDBRANCH   1  19
BRANCH   7  22
ATOM     22  O   UNL     1       4.010   2.101  17.827  0.00  0.00    +0.000 OA
ATOM     23  H   UNL     1       4.702   1.829  18.450  0.00  0.00    +0.000 HD
ENDBRANCH   7  22
TORSDOF 2
ENDMDL
MODEL 3
REMARK VINA RESULT:      -8.0      2.862      6.622
REMARK  Name = 
REMARK  5 active torsions:
REMARK  status: ('A' for Active; 'I' for Inactive)
REMARK    1  A    between atoms: C_1  and  C_2
REMARK    2  A    between atoms: C_6  and  N_7
REMARK    3  A    between atoms: C_10  and  C_11
REMARK    4  A    between atoms: C_13  and  O_14
REMARK    5  A    between atoms: C_20  and  C_21
REMARK                            x       y       z     vdW  Elec       q    Type
REMARK                         _______ _______ _______ _____ _____    ______ ____
ROOT
ATOM      1  N   UNL     1       2.608   6.518  19.430  0.00  0.00    +0.000 N 
ATOM      2  C   UNL     1       1.868   7.679  19.775  0.00  0.00    +0.000 A 
ATOM      3  C   UNL     1       1.946   8.793  18.954  0.00  0.00    +0.000 A 
ATOM      4  C   UNL     1       1.303   9.988  19.319  0.00  0.00    +0.000 A 
ATOM      5  C   UNL     1       1.449  11.158  18.384  0.00  0.00    +0.000 C 
ATOM      6  C   UNL     1       0.587  10.048  20.553  0.00  0.00    +0.000 A 
ATOM      7  C   UNL     1      -0.105  11.167  21.106  0.00  0.00    +0.000 A 
ATOM      8  C   UNL     1      -0.674  11.138  22.378  0.00  0.00    +0.000 A 
ATOM      9  C   UNL     1      -0.621   9.973  23.122  0.00  0.00    +0.000 A 
ATOM     10  C   UNL     1       0.002   8.849  22.581  0.00  0.00    +0.000 A 
ATOM     11  C   UNL     1       0.607   8.867  21.330  0.00  0.00    +0.000 A 
ATOM     12  N   UNL     1       1.206   7.731  20.944  0.00  0.00    +0.000 NA
ATOM     13  H   UNL     1       2.728   6.469  18.423  0.00  0.00    +0.000 HD
ENDROOT
BRANCH   1  19
ATOM     14  C   UNL     1       0.685   1.950  18.647  0.00  0.00    +0.000 C 
ATOM     15  C   UNL     1       1.295   3.004  19.534  0.00  0.00    +0.000 A 
ATOM     16  C   UNL     1       1.508   2.702  20.888  0.00  0.00    +0.000 A 
ATOM     17  C   UNL     1       2.076   3.641  21.741  0.00  0.00    +0.000 A 
ATOM     18  C   UNL     1       2.460   4.884  21.245  0.00  0.00    +0.000 A 
ATOM     19  C   UNL     1       2.297   5.205  19.888  0.00  0.00    +0.000 A 
ATOM     20  C   UNL     1       1.667   4.275  19.030  0.00  0.00    +0.000 A 
ATOM     21  C   UNL     1       1.420   4.600  17.574  0.00  0.00    +0.000 C 
ENDBRANCH   1  19
BRANCH   7  22
ATOM     22  O   UNL     1      -0.274  12.349  20.437  0.00  0.00    +0.000 OA
ATOM     23  H   UNL     1      -0.356  13.045  21.108  0.00  0.00    +0.000 HD
ENDBRANCH   7  22
TORSDOF 2
ENDMDL
MODEL 4
REMARK VINA RESULT:      -8.0      1.199      1.204
REMARK  Name = 
REMARK  5 active torsions:
REMARK  status: ('A' for Active; 'I' for Inactive)
REMARK    1  A    between atoms: C_1  and  C_2
REMARK    2  A    between atoms: C_6  and  N_7
REMARK    3  A    between atoms: C_10  and  C_11
REMARK    4  A    between atoms: C_13  and  O_14
REMARK    5  A    between atoms: C_20  and  C_21
REMARK                            x       y       z     vdW  Elec       q    Type
REMARK                         _______ _______ _______ _____ _____    ______ ____
ROOT
ATOM      1  N   UNL     1       2.102   8.261  18.746  0.00  0.00    +0.000 N 
ATOM      2  C   UNL     1       2.501   6.902  18.665  0.00  0.00    +0.000 A 
ATOM      3  C   UNL     1       3.590   6.568  17.876  0.00  0.00    +0.000 A 
ATOM      4  C   UNL     1       3.951   5.222  17.698  0.00  0.00    +0.000 A 
ATOM      5  C   UNL     1       5.134   4.940  16.813  0.00  0.00    +0.000 C 
ATOM      6  C   UNL     1       3.171   4.202  18.322  0.00  0.00    +0.000 A 
ATOM      7  C   UNL     1       3.359   2.790  18.243  0.00  0.00    +0.000 A 
ATOM      8  C   UNL     1       2.461   1.884  18.806  0.00  0.00    +0.000 A 
ATOM      9  C   UNL     1       1.372   2.357  19.516  0.00  0.00    +0.000 A 
ATOM     10  C   UNL     1       1.196   3.733  19.654  0.00  0.00    +0.000 A 
ATOM     11  C   UNL     1       2.059   4.653  19.071  0.00  0.00    +0.000 A 
ATOM     12  N   UNL     1       1.755   5.947  19.246  0.00  0.00    +0.000 NA
ATOM     13  H   UNL     1       2.904   8.868  18.607  0.00  0.00    +0.000 HD
ENDROOT
BRANCH   1  19
ATOM     14  C   UNL     1      -1.403  11.424  20.446  0.00  0.00    +0.000 C 
ATOM     15  C   UNL     1      -0.320  10.399  20.657  0.00  0.00    +0.000 A 
ATOM     16  C   UNL     1      -0.009  10.009  21.970  0.00  0.00    +0.000 A 
ATOM     17  C   UNL     1       0.977   9.060  22.210  0.00  0.00    +0.000 A 
ATOM     18  C   UNL     1       1.647   8.470  21.141  0.00  0.00    +0.000 A 
ATOM     19  C   UNL     1       1.333   8.808  19.815  0.00  0.00    +0.000 A 
ATOM     20  C   UNL     1       0.373   9.814  19.568  0.00  0.00    +0.000 A 
ATOM     21  C   UNL     1       0.044  10.249  18.157  0.00  0.00    +0.000 C 
ENDBRANCH   1  19
BRANCH   7  22
ATOM     22  O   UNL     1       4.432   2.210  17.620  0.00  0.00    +0.000 OA
ATOM     23  H   UNL     1       4.103   1.822  16.794  0.00  0.00    +0.000 HD
ENDBRANCH   7  22
TORSDOF 2
ENDMDL
MODEL 5
REMARK VINA RESULT:      -7.8      2.673      6.884
REMARK  Name = 
REMARK  5 active torsions:
REMARK  status: ('A' for Active; 'I' for Inactive)
REMARK    1  A    between atoms: C_1  and  C_2
REMARK    2  A    between atoms: C_6  and  N_7
REMARK    3  A    between atoms: C_10  and  C_11
REMARK    4  A    between atoms: C_13  and  O_14
REMARK    5  A    between atoms: C_20  and  C_21
REMARK                            x       y       z     vdW  Elec       q    Type
REMARK                         _______ _______ _______ _____ _____    ______ ____
ROOT
ATOM      1  N   UNL     1       2.680   6.738  19.341  0.00  0.00    +0.000 N 
ATOM      2  C   UNL     1       1.864   7.831  19.733  0.00  0.00    +0.000 A 
ATOM      3  C   UNL     1       1.770   8.931  18.895  0.00  0.00    +0.000 A 
ATOM      4  C   UNL     1       1.049  10.068  19.298  0.00  0.00    +0.000 A 
ATOM      5  C   UNL     1       1.006  11.228  18.340  0.00  0.00    +0.000 C 
ATOM      6  C   UNL     1       0.433  10.085  20.586  0.00  0.00    +0.000 A 
ATOM      7  C   UNL     1      -0.315  11.145  21.181  0.00  0.00    +0.000 A 
ATOM      8  C   UNL     1      -0.773  11.089  22.496  0.00  0.00    +0.000 A 
ATOM      9  C   UNL     1      -0.550   9.949  23.247  0.00  0.00    +0.000 A 
ATOM     10  C   UNL     1       0.130   8.877  22.669  0.00  0.00    +0.000 A 
ATOM     11  C   UNL     1       0.627   8.927  21.373  0.00  0.00    +0.000 A 
ATOM     12  N   UNL     1       1.297   7.844  20.952  0.00  0.00    +0.000 NA
ATOM     13  H   UNL     1       2.722   6.681  18.329  0.00  0.00    +0.000 HD
ENDROOT
BRANCH   1  19
ATOM     14  C   UNL     1       4.498   2.126  20.116  0.00  0.00    +0.000 C 
ATOM     15  C   UNL     1       3.387   3.142  20.152  0.00  0.00    +0.000 A 
ATOM     16  C   UNL     1       2.131   2.748  20.638  0.00  0.00    +0.000 A 
ATOM     17  C   UNL     1       1.079   3.655  20.696  0.00  0.00    +0.000 A 
ATOM     18  C   UNL     1       1.278   4.973  20.293  0.00  0.00    +0.000 A 
ATOM     19  C   UNL     1       2.532   5.411  19.839  0.00  0.00    +0.000 A 
ATOM     20  C   UNL     1       3.587   4.478  19.723  0.00  0.00    +0.000 A 
ATOM     21  C   UNL     1       4.939   4.893  19.186  0.00  0.00    +0.000 C 
ENDBRANCH   1  19
BRANCH   7  22
ATOM     22  O   UNL     1      -0.648  12.293  20.514  0.00  0.00    +0.000 OA
ATOM     23  H   UNL     1       0.017  12.960  20.748  0.00  0.00    +0.000 HD
ENDBRANCH   7  22
TORSDOF 2
ENDMDL
MODEL 6
REMARK VINA RESULT:      -7.8      1.637      2.022
REMARK  Name = 
REMARK  5 active torsions:
REMARK  status: ('A' for Active; 'I' for Inactive)
REMARK    1  A    between atoms: C_1  and  C_2
REMARK    2  A    between atoms: C_6  and  N_7
REMARK    3  A    between atoms: C_10  and  C_11
REMARK    4  A    between atoms: C_13  and  O_14
REMARK    5  A    between atoms: C_20  and  C_21
REMARK                            x       y       z     vdW  Elec       q    Type
REMARK                         _______ _______ _______ _____ _____    ______ ____
ROOT
ATOM      1  N   UNL     1       1.331   9.696  17.829  0.00  0.00    +0.000 N 
ATOM      2  C   UNL     1       2.053   8.537  18.215  0.00  0.00    +0.000 A 
ATOM      3  C   UNL     1       3.113   8.114  17.428  0.00  0.00    +0.000 A 
ATOM      4  C   UNL     1       3.786   6.918  17.729  0.00  0.00    +0.000 A 
ATOM      5  C   UNL     1       4.914   6.518  16.818  0.00  0.00    +0.000 C 
ATOM      6  C   UNL     1       3.353   6.134  18.841  0.00  0.00    +0.000 A 
ATOM      7  C   UNL     1       3.886   4.888  19.289  0.00  0.00    +0.000 A 
ATOM      8  C   UNL     1       3.305   4.157  20.323  0.00  0.00    +0.000 A 
ATOM      9  C   UNL     1       2.202   4.668  20.984  0.00  0.00    +0.000 A 
ATOM     10  C   UNL     1       1.696   5.909  20.600  0.00  0.00    +0.000 A 
ATOM     11  C   UNL     1       2.238   6.638  19.549  0.00  0.00    +0.000 A 
ATOM     12  N   UNL     1       1.632   7.798  19.256  0.00  0.00    +0.000 NA
ATOM     13  H   UNL     1       1.935  10.326  17.311  0.00  0.00    +0.000 HD
ENDROOT
BRANCH   1  19
ATOM     14  C   UNL     1      -3.027  11.811  19.136  0.00  0.00    +0.000 C 
ATOM     15  C   UNL     1      -1.550  11.580  19.323  0.00  0.00    +0.000 A 
ATOM     16  C   UNL     1      -0.898  12.224  20.386  0.00  0.00    +0.000 A 
ATOM     17  C   UNL     1       0.462  12.033  20.601  0.00  0.00    +0.000 A 
ATOM     18  C   UNL     1       1.181  11.178  19.770  0.00  0.00    +0.000 A 
ATOM     19  C   UNL     1       0.551  10.487  18.721  0.00  0.00    +0.000 A 
ATOM     20  C   UNL     1      -0.818  10.723  18.465  0.00  0.00    +0.000 A 
ATOM     21  C   UNL     1      -1.523  10.045  17.311  0.00  0.00    +0.000 C 
ENDBRANCH   1  19
BRANCH   7  22
ATOM     22  O   UNL     1       5.008   4.316  18.752  0.00  0.00    +0.000 OA
ATOM     23  H   UNL     1       5.002   3.382  19.014  0.00  0.00    +0.000 HD
ENDBRANCH   7  22
TORSDOF 2
ENDMDL
MODEL 7
REMARK VINA RESULT:      -7.7      2.875      6.930
REMARK  Name = 
REMARK  5 active torsions:
REMARK  status: ('A' for Active; 'I' for Inactive)
REMARK    1  A    between atoms: C_1  and  C_2
REMARK    2  A    between atoms: C_6  and  N_7
REMARK    3  A    between atoms: C_10  and  C_11
REMARK    4  A    between atoms: C_13  and  O_14
REMARK    5  A    between atoms: C_20  and  C_21
REMARK                            x       y       z     vdW  Elec       q    Type
REMARK                         _______ _______ _______ _____ _____    ______ ____
ROOT
ATOM      1  N   UNL     1       2.692   7.912  17.691  0.00  0.00    +0.000 N 
ATOM      2  C   UNL     1       1.798   8.601  18.551  0.00  0.00    +0.000 A 
ATOM      3  C   UNL     1       1.079   9.675  18.049  0.00  0.00    +0.000 A 
ATOM      4  C   UNL     1       0.260  10.438  18.898  0.00  0.00    +0.000 A 
ATOM      5  C   UNL     1      -0.475  11.598  18.283  0.00  0.00    +0.000 C 
ATOM      6  C   UNL     1       0.192  10.107  20.286  0.00  0.00    +0.000 A 
ATOM      7  C   UNL     1      -0.557  10.770  21.304  0.00  0.00    +0.000 A 
ATOM      8  C   UNL     1      -0.455  10.423  22.650  0.00  0.00    +0.000 A 
ATOM      9  C   UNL     1       0.356   9.366  23.022  0.00  0.00    +0.000 A 
ATOM     10  C   UNL     1       1.056   8.668  22.039  0.00  0.00    +0.000 A 
ATOM     11  C   UNL     1       0.996   9.019  20.696  0.00  0.00    +0.000 A 
ATOM     12  N   UNL     1       1.748   8.291  19.858  0.00  0.00    +0.000 NA
ATOM     13  H   UNL     1       2.369   7.975  16.731  0.00  0.00    +0.000 HD
ENDROOT
BRANCH   1  19
ATOM     14  C   UNL     1       6.304   4.431  17.581  0.00  0.00    +0.000 C 
ATOM     15  C   UNL     1       4.874   4.860  17.783  0.00  0.00    +0.000 A 
ATOM     16  C   UNL     1       3.925   3.889  18.137  0.00  0.00    +0.000 A 
ATOM     17  C   UNL     1       2.596   4.242  18.342  0.00  0.00    +0.000 A 
ATOM     18  C   UNL     1       2.206   5.572  18.220  0.00  0.00    +0.000 A 
ATOM     19  C   UNL     1       3.137   6.575  17.905  0.00  0.00    +0.000 A 
ATOM     20  C   UNL     1       4.477   6.213  17.640  0.00  0.00    +0.000 A 
ATOM     21  C   UNL     1       5.502   7.252  17.243  0.00  0.00    +0.000 C 
ENDBRANCH   1  19
BRANCH   7  22
ATOM     22  O   UNL     1      -1.436  11.787  21.046  0.00  0.00    +0.000 OA
ATOM     23  H   UNL     1      -2.026  11.479  20.340  0.00  0.00    +0.000 HD
ENDBRANCH   7  22
TORSDOF 2
ENDMDL
MODEL 8
REMARK VINA RESULT:      -7.7      2.762      6.830
REMARK  Name = 
REMARK  5 active torsions:
REMARK  status: ('A' for Active; 'I' for Inactive)
REMARK    1  A    between atoms: C_1  and  C_2
REMARK    2  A    between atoms: C_6  and  N_7
REMARK    3  A    between atoms: C_10  and  C_11
REMARK    4  A    between atoms: C_13  and  O_14
REMARK    5  A    between atoms: C_20  and  C_21
REMARK                            x       y       z     vdW  Elec       q    Type
REMARK                         _______ _______ _______ _____ _____    ______ ____
ROOT
ATOM      1  N   UNL     1       2.999   6.602  18.093  0.00  0.00    +0.000 N 
ATOM      2  C   UNL     1       2.289   7.678  18.685  0.00  0.00    +0.000 A 
ATOM      3  C   UNL     1       2.251   8.899  18.030  0.00  0.00    +0.000 A 
ATOM      4  C   UNL     1       1.639  10.010  18.635  0.00  0.00    +0.000 A 
ATOM      5  C   UNL     1       1.654  11.304  17.868  0.00  0.00    +0.000 C 
ATOM      6  C   UNL     1       1.075   9.872  19.940  0.00  0.00    +0.000 A 
ATOM      7  C   UNL     1       0.437  10.878  20.724  0.00  0.00    +0.000 A 
ATOM      8  C   UNL     1       0.024  10.652  22.036  0.00  0.00    +0.000 A 
ATOM      9  C   UNL     1       0.183   9.396  22.594  0.00  0.00    +0.000 A 
ATOM     10  C   UNL     1       0.754   8.380  21.827  0.00  0.00    +0.000 A 
ATOM     11  C   UNL     1       1.205   8.594  20.531  0.00  0.00    +0.000 A 
ATOM     12  N   UNL     1       1.770   7.544  19.918  0.00  0.00    +0.000 NA
ATOM     13  H   UNL     1       2.999   6.700  17.083  0.00  0.00    +0.000 HD
ENDROOT
BRANCH   1  19
ATOM     14  C   UNL     1       4.538   2.198  19.940  0.00  0.00    +0.000 C 
ATOM     15  C   UNL     1       3.536   3.063  19.221  0.00  0.00    +0.000 A 
ATOM     16  C   UNL     1       2.345   2.476  18.765  0.00  0.00    +0.000 A 
ATOM     17  C   UNL     1       1.389   3.239  18.104  0.00  0.00    +0.000 A 
ATOM     18  C   UNL     1       1.602   4.602  17.912  0.00  0.00    +0.000 A 
ATOM     19  C   UNL     1       2.765   5.228  18.390  0.00  0.00    +0.000 A 
ATOM     20  C   UNL     1       3.764   4.446  19.011  0.00  0.00    +0.000 A 
ATOM     21  C   UNL     1       5.056   5.070  19.490  0.00  0.00    +0.000 C 
ENDBRANCH   1  19
BRANCH   7  22
ATOM     22  O   UNL     1       0.172  12.138  20.257  0.00  0.00    +0.000 OA
ATOM     23  H   UNL     1       0.950  12.422  19.752  0.00  0.00    +0.000 HD
ENDBRANCH   7  22
TORSDOF 2
ENDMDL
MODEL 9
REMARK VINA RESULT:      -7.5      1.865      3.667
REMARK  Name = 
REMARK  5 active torsions:
REMARK  status: ('A' for Active; 'I' for Inactive)
REMARK    1  A    between atoms: C_1  and  C_2
REMARK    2  A    between atoms: C_6  and  N_7
REMARK    3  A    between atoms: C_10  and  C_11
REMARK    4  A    between atoms: C_13  and  O_14
REMARK    5  A    between atoms: C_20  and  C_21
REMARK                            x       y       z     vdW  Elec       q    Type
REMARK                         _______ _______ _______ _____ _____    ______ ____
ROOT
ATOM      1  N   UNL     1       1.833   7.090  19.283  0.00  0.00    +0.000 N 
ATOM      2  C   UNL     1       2.773   6.354  18.516  0.00  0.00    +0.000 A 
ATOM      3  C   UNL     1       2.541   5.008  18.283  0.00  0.00    +0.000 A 
ATOM      4  C   UNL     1       3.498   4.230  17.610  0.00  0.00    +0.000 A 
ATOM      5  C   UNL     1       3.181   2.773  17.410  0.00  0.00    +0.000 C 
ATOM      6  C   UNL     1       4.720   4.837  17.188  0.00  0.00    +0.000 A 
ATOM      7  C   UNL     1       5.817   4.216  16.519  0.00  0.00    +0.000 A 
ATOM      8  C   UNL     1       7.010   4.888  16.258  0.00  0.00    +0.000 A 
ATOM      9  C   UNL     1       7.131   6.221  16.606  0.00  0.00    +0.000 A 
ATOM     10  C   UNL     1       6.053   6.866  17.212  0.00  0.00    +0.000 A 
ATOM     11  C   UNL     1       4.869   6.205  17.514  0.00  0.00    +0.000 A 
ATOM     12  N   UNL     1       3.926   6.930  18.133  0.00  0.00    +0.000 NA
ATOM     13  H   UNL     1       0.907   6.687  19.178  0.00  0.00    +0.000 HD
ENDROOT
BRANCH   1  19
ATOM     14  C   UNL     1       0.179  11.399  21.251  0.00  0.00    +0.000 C 
ATOM     15  C   UNL     1       0.823  10.600  20.149  0.00  0.00    +0.000 A 
ATOM     16  C   UNL     1       1.246  11.270  18.990  0.00  0.00    +0.000 A 
ATOM     17  C   UNL     1       1.853  10.573  17.952  0.00  0.00    +0.000 A 
ATOM     18  C   UNL     1       2.066   9.202  18.070  0.00  0.00    +0.000 A 
ATOM     19  C   UNL     1       1.691   8.507  19.231  0.00  0.00    +0.000 A 
ATOM     20  C   UNL     1       1.023   9.201  20.264  0.00  0.00    +0.000 A 
ATOM     21  C   UNL     1       0.551   8.482  21.508  0.00  0.00    +0.000 C 
ENDBRANCH   1  19
BRANCH   7  22
ATOM     22  O   UNL     1       5.787   2.921  16.074  0.00  0.00    +0.000 OA
ATOM     23  H   UNL     1       5.265   2.414  16.715  0.00  0.00    +0.000 HD
ENDBRANCH   7  22
TORSDOF 2
ENDMDL
