MODEL 1
REMARK VINA RESULT:      -8.0      0.000      0.000
REMARK  Name = 
REMARK  9 active torsions:
REMARK  status: ('A' for Active; 'I' for Inactive)
REMARK    1  A    between atoms: C_1  and  C_2
REMARK    2  A    between atoms: C_2  and  C_3
REMARK    3  A    between atoms: C_2  and  C_4
REMARK    4  A    between atoms: C_2  and  C_5
REMARK    5  A    between atoms: C_10  and  O_11
REMARK    6  A    between atoms: O_11  and  C_12
REMARK    7  A    between atoms: C_17  and  N_18
REMARK    8  A    between atoms: C_21  and  C_22
REMARK    9  A    between atoms: C_26  and  C_27
REMARK                            x       y       z     vdW  Elec       q    Type
REMARK                         _______ _______ _______ _____ _____    ______ ____
ROOT
ATOM      1  C   UNL     1       3.540   3.844  19.114  0.00  0.00    +0.000 A 
ATOM      2  N   UNL     1       3.484   2.661  19.790  0.00  0.00    +0.000 NA
ATOM      3  C   UNL     1       2.846   2.637  20.975  0.00  0.00    +0.000 A 
ATOM      4  C   UNL     1       2.188   3.726  21.500  0.00  0.00    +0.000 A 
ATOM      5  C   UNL     1       2.169   4.902  20.753  0.00  0.00    +0.000 A 
ATOM      6  C   UNL     1       2.842   5.001  19.520  0.00  0.00    +0.000 A 
ENDROOT
BRANCH   6   7
ATOM      7  N   UNL     1       2.883   6.217  18.801  0.00  0.00    +0.000 N 
ATOM      8  C   UNL     1       2.226   7.364  19.110  0.00  0.00    +0.000 A 
ATOM      9  N   UNL     1       1.792   7.714  20.302  0.00  0.00    +0.000 NA
ATOM     10  C   UNL     1       1.209   8.980  20.305  0.00  0.00    +0.000 A 
ATOM     11  C   UNL     1       1.169   9.567  19.055  0.00  0.00    +0.000 A 
ATOM     12  S   UNL     1       1.924   8.557  17.898  0.00  0.00    +0.000 S 
ATOM     13  H   UNL     1       3.318   6.128  17.889  0.00  0.00    +0.000 HD
BRANCH  10  14
ATOM     14  C   UNL     1       0.711   9.594  21.580  0.00  0.00    +0.000 C 
ATOM     15  F   UNL     1      -0.645   9.595  21.676  0.00  0.00    +0.000 F 
ATOM     16  F   UNL     1       1.180   8.928  22.669  0.00  0.00    +0.000 F 
ATOM     17  F   UNL     1       1.112  10.883  21.707  0.00  0.00    +0.000 F 
ENDBRANCH  10  14
BRANCH  11  18
ATOM     18  C   UNL     1       0.606  10.842  18.761  0.00  0.00    +0.000 C 
ATOM     19  N   UNL     1       0.142  11.880  18.547  0.00  0.00    +0.000 NA
ENDBRANCH  11  18
ENDBRANCH   6   7
BRANCH   1  20
ATOM     20  O   UNL     1       4.419   3.910  18.012  0.00  0.00    +0.000 OA
BRANCH  20  26
ATOM     21  C   UNL     1       6.235   5.297  17.092  0.00  0.00    +0.000 A 
ATOM     22  C   UNL     1       7.480   5.927  17.400  0.00  0.00    +0.000 A 
ATOM     23  C   UNL     1       7.976   6.063  18.692  0.00  0.00    +0.000 A 
ATOM     24  C   UNL     1       7.209   5.613  19.746  0.00  0.00    +0.000 A 
ATOM     25  C   UNL     1       5.991   4.995  19.498  0.00  0.00    +0.000 A 
ATOM     26  C   UNL     1       5.535   4.733  18.178  0.00  0.00    +0.000 A 
BRANCH  21  28
ATOM     27  C   UNL     1       7.127   5.254  14.740  0.00  0.00    +0.000 C 
ATOM     28  C   UNL     1       5.839   5.330  15.601  0.00  0.00    +0.000 C 
ATOM     29  C   UNL     1       5.080   6.665  15.317  0.00  0.00    +0.000 C 
ATOM     30  C   UNL     1       4.904   4.220  15.083  0.00  0.00    +0.000 C 
ENDBRANCH  21  28
ENDBRANCH  20  26
ENDBRANCH   1  20
TORSDOF 6
ENDMDL
MODEL 2
REMARK VINA RESULT:      -7.9      1.032      1.430
REMARK  Name = 
REMARK  9 active torsions:
REMARK  status: ('A' for Active; 'I' for Inactive)
REMARK    1  A    between atoms: C_1  and  C_2
REMARK    2  A    between atoms: C_2  and  C_3
REMARK    3  A    between atoms: C_2  and  C_4
REMARK    4  A    between atoms: C_2  and  C_5
REMARK    5  A    between atoms: C_10  and  O_11
REMARK    6  A    between atoms: O_11  and  C_12
REMARK    7  A    between atoms: C_17  and  N_18
REMARK    8  A    between atoms: C_21  and  C_22
REMARK    9  A    between atoms: C_26  and  C_27
REMARK                            x       y       z     vdW  Elec       q    Type
REMARK                         _______ _______ _______ _____ _____    ______ ____
ROOT
ATOM      1  C   UNL     1       3.102   4.743  18.818  0.00  0.00    +0.000 A 
ATOM      2  N   UNL     1       3.111   3.433  19.197  0.00  0.00    +0.000 NA
ATOM      3  C   UNL     1       2.576   3.114  20.391  0.00  0.00    +0.000 A 
ATOM      4  C   UNL     1       1.958   4.032  21.210  0.00  0.00    +0.000 A 
ATOM      5  C   UNL     1       1.869   5.349  20.766  0.00  0.00    +0.000 A 
ATOM      6  C   UNL     1       2.435   5.753  19.541  0.00  0.00    +0.000 A 
ENDROOT
BRANCH   6   7
ATOM      7  N   UNL     1       2.407   7.105  19.129  0.00  0.00    +0.000 N 
ATOM      8  C   UNL     1       1.693   8.111  19.697  0.00  0.00    +0.000 A 
ATOM      9  N   UNL     1       1.250   8.147  20.935  0.00  0.00    +0.000 NA
ATOM     10  C   UNL     1       0.601   9.344  21.234  0.00  0.00    +0.000 A 
ATOM     11  C   UNL     1       0.523  10.206  20.157  0.00  0.00    +0.000 A 
ATOM     12  S   UNL     1       1.321   9.538  18.798  0.00  0.00    +0.000 S 
ATOM     13  H   UNL     1       2.840   7.256  18.224  0.00  0.00    +0.000 HD
BRANCH  10  14
ATOM     14  C   UNL     1       0.081   9.613  22.615  0.00  0.00    +0.000 C 
ATOM     15  F   UNL     1      -0.291  10.908  22.800  0.00  0.00    +0.000 F 
ATOM     16  F   UNL     1      -1.008   8.849  22.894  0.00  0.00    +0.000 F 
ATOM     17  F   UNL     1       1.010   9.334  23.564  0.00  0.00    +0.000 F 
ENDBRANCH  10  14
BRANCH  11  18
ATOM     18  C   UNL     1      -0.109  11.484  20.169  0.00  0.00    +0.000 C 
ATOM     19  N   UNL     1      -0.644  12.509  20.180  0.00  0.00    +0.000 NA
ENDBRANCH  11  18
ENDBRANCH   6   7
BRANCH   1  20
ATOM     20  O   UNL     1       3.884   5.089  17.695  0.00  0.00    +0.000 OA
BRANCH  20  26
ATOM     21  C   UNL     1       6.218   5.086  16.910  0.00  0.00    +0.000 A 
ATOM     22  C   UNL     1       7.582   5.019  17.332  0.00  0.00    +0.000 A 
ATOM     23  C   UNL     1       7.985   5.146  18.658  0.00  0.00    +0.000 A 
ATOM     24  C   UNL     1       7.029   5.400  19.619  0.00  0.00    +0.000 A 
ATOM     25  C   UNL     1       5.691   5.476  19.257  0.00  0.00    +0.000 A 
ATOM     26  C   UNL     1       5.254   5.218  17.930  0.00  0.00    +0.000 A 
BRANCH  21  28
ATOM     27  C   UNL     1       5.191   6.245  14.926  0.00  0.00    +0.000 C 
ATOM     28  C   UNL     1       6.004   5.005  15.384  0.00  0.00    +0.000 C 
ATOM     29  C   UNL     1       5.218   3.696  15.060  0.00  0.00    +0.000 C 
ATOM     30  C   UNL     1       7.257   4.953  14.487  0.00  0.00    +0.000 C 
ENDBRANCH  21  28
ENDBRANCH  20  26
ENDBRANCH   1  20
TORSDOF 6
ENDMDL
MODEL 3
REMARK VINA RESULT:      -7.9      0.925      1.203
REMARK  Name = 
REMARK  9 active torsions:
REMARK  status: ('A' for Active; 'I' for Inactive)
REMARK    1  A    between atoms: C_1  and  C_2
REMARK    2  A    between atoms: C_2  and  C_3
REMARK    3  A    between atoms: C_2  and  C_4
REMARK    4  A    between atoms: C_2  and  C_5
REMARK    5  A    between atoms: C_10  and  O_11
REMARK    6  A    between atoms: O_11  and  C_12
REMARK    7  A    between atoms: C_17  and  N_18
REMARK    8  A    between atoms: C_21  and  C_22
REMARK    9  A    between atoms: C_26  and  C_27
REMARK                            x       y       z     vdW  Elec       q    Type
REMARK                         _______ _______ _______ _____ _____    ______ ____
ROOT
ATOM      1  C   UNL     1       3.048   4.574  18.801  0.00  0.00    +0.000 A 
ATOM      2  N   UNL     1       3.021   3.271  19.202  0.00  0.00    +0.000 NA
ATOM      3  C   UNL     1       2.489   2.989  20.406  0.00  0.00    +0.000 A 
ATOM      4  C   UNL     1       1.907   3.938  21.216  0.00  0.00    +0.000 A 
ATOM      5  C   UNL     1       1.854   5.250  20.751  0.00  0.00    +0.000 A 
ATOM      6  C   UNL     1       2.419   5.616  19.514  0.00  0.00    +0.000 A 
ENDROOT
BRANCH   6   7
ATOM      7  N   UNL     1       2.428   6.961  19.080  0.00  0.00    +0.000 N 
ATOM      8  C   UNL     1       1.740   7.995  19.629  0.00  0.00    +0.000 A 
ATOM      9  N   UNL     1       1.294   8.063  20.865  0.00  0.00    +0.000 NA
ATOM     10  C   UNL     1       0.677   9.282  21.142  0.00  0.00    +0.000 A 
ATOM     11  C   UNL     1       0.624  10.128  20.051  0.00  0.00    +0.000 A 
ATOM     12  S   UNL     1       1.408   9.417  18.706  0.00  0.00    +0.000 S 
ATOM     13  H   UNL     1       2.868   7.087  18.174  0.00  0.00    +0.000 HD
BRANCH  10  14
ATOM     14  C   UNL     1       0.160   9.587  22.517  0.00  0.00    +0.000 C 
ATOM     15  F   UNL     1       1.062   9.312  23.497  0.00  0.00    +0.000 F 
ATOM     16  F   UNL     1      -0.169  10.900  22.645  0.00  0.00    +0.000 F 
ATOM     17  F   UNL     1      -0.957   8.873  22.803  0.00  0.00    +0.000 F 
ENDBRANCH  10  14
BRANCH  11  18
ATOM     18  C   UNL     1       0.027  11.422  20.040  0.00  0.00    +0.000 C 
ATOM     19  N   UNL     1      -0.471  12.465  20.009  0.00  0.00    +0.000 NA
ENDBRANCH  11  18
ENDBRANCH   6   7
BRANCH   1  20
ATOM     20  O   UNL     1       3.829   4.878  17.665  0.00  0.00    +0.000 OA
BRANCH  20  26
ATOM     21  C   UNL     1       6.147   5.165  16.887  0.00  0.00    +0.000 A 
ATOM     22  C   UNL     1       7.513   5.208  17.306  0.00  0.00    +0.000 A 
ATOM     23  C   UNL     1       7.908   5.286  18.638  0.00  0.00    +0.000 A 
ATOM     24  C   UNL     1       6.936   5.377  19.612  0.00  0.00    +0.000 A 
ATOM     25  C   UNL     1       5.595   5.341  19.254  0.00  0.00    +0.000 A 
ATOM     26  C   UNL     1       5.180   5.129  17.911  0.00  0.00    +0.000 A 
BRANCH  21  28
ATOM     27  C   UNL     1       7.321   5.101  14.661  0.00  0.00    +0.000 C 
ATOM     28  C   UNL     1       5.936   5.164  15.358  0.00  0.00    +0.000 C 
ATOM     29  C   UNL     1       5.192   6.477  14.958  0.00  0.00    +0.000 C 
ATOM     30  C   UNL     1       5.094   4.025  14.752  0.00  0.00    +0.000 C 
ENDBRANCH  21  28
ENDBRANCH  20  26
ENDBRANCH   1  20
TORSDOF 6
ENDMDL
MODEL 4
REMARK VINA RESULT:      -7.7      0.982      1.243
REMARK  Name = 
REMARK  9 active torsions:
REMARK  status: ('A' for Active; 'I' for Inactive)
REMARK    1  A    between atoms: C_1  and  C_2
REMARK    2  A    between atoms: C_2  and  C_3
REMARK    3  A    between atoms: C_2  and  C_4
REMARK    4  A    between atoms: C_2  and  C_5
REMARK    5  A    between atoms: C_10  and  O_11
REMARK    6  A    between atoms: O_11  and  C_12
REMARK    7  A    between atoms: C_17  and  N_18
REMARK    8  A    between atoms: C_21  and  C_22
REMARK    9  A    between atoms: C_26  and  C_27
REMARK                            x       y       z     vdW  Elec       q    Type
REMARK                         _______ _______ _______ _____ _____    ______ ____
ROOT
ATOM      1  C   UNL     1       3.140   4.632  18.813  0.00  0.00    +0.000 A 
ATOM      2  N   UNL     1       3.146   3.330  19.218  0.00  0.00    +0.000 NA
ATOM      3  C   UNL     1       2.604   3.035  20.415  0.00  0.00    +0.000 A 
ATOM      4  C   UNL     1       1.982   3.969  21.212  0.00  0.00    +0.000 A 
ATOM      5  C   UNL     1       1.896   5.278  20.741  0.00  0.00    +0.000 A 
ATOM      6  C   UNL     1       2.469   5.657  19.512  0.00  0.00    +0.000 A 
ENDROOT
BRANCH   6   7
ATOM      7  N   UNL     1       2.444   7.000  19.074  0.00  0.00    +0.000 N 
ATOM      8  C   UNL     1       1.737   8.020  19.625  0.00  0.00    +0.000 A 
ATOM      9  N   UNL     1       1.301   8.083  20.864  0.00  0.00    +0.000 NA
ATOM     10  C   UNL     1       0.659   9.288  21.143  0.00  0.00    +0.000 A 
ATOM     11  C   UNL     1       0.577  10.129  20.050  0.00  0.00    +0.000 A 
ATOM     12  S   UNL     1       1.365   9.431  18.700  0.00  0.00    +0.000 S 
ATOM     13  H   UNL     1       2.872   7.132  18.163  0.00  0.00    +0.000 HD
BRANCH  10  14
ATOM     14  C   UNL     1       0.148   9.587  22.521  0.00  0.00    +0.000 C 
ATOM     15  F   UNL     1      -0.969   8.878  22.839  0.00  0.00    +0.000 F 
ATOM     16  F   UNL     1       1.078   9.298  23.470  0.00  0.00    +0.000 F 
ATOM     17  F   UNL     1      -0.167  10.898  22.667  0.00  0.00    +0.000 F 
ENDBRANCH  10  14
BRANCH  11  18
ATOM     18  C   UNL     1      -0.049  11.409  20.039  0.00  0.00    +0.000 C 
ATOM     19  N   UNL     1      -0.556  12.448  20.004  0.00  0.00    +0.000 NA
ENDBRANCH  11  18
ENDBRANCH   6   7
BRANCH   1  20
ATOM     20  O   UNL     1       3.928   4.956  17.688  0.00  0.00    +0.000 OA
BRANCH  20  26
ATOM     21  C   UNL     1       6.274   4.959  16.936  0.00  0.00    +0.000 A 
ATOM     22  C   UNL     1       7.632   4.940  17.380  0.00  0.00    +0.000 A 
ATOM     23  C   UNL     1       8.013   5.141  18.702  0.00  0.00    +0.000 A 
ATOM     24  C   UNL     1       7.039   5.424  19.636  0.00  0.00    +0.000 A 
ATOM     25  C   UNL     1       5.705   5.456  19.253  0.00  0.00    +0.000 A 
ATOM     26  C   UNL     1       5.293   5.123  17.935  0.00  0.00    +0.000 A 
BRANCH  21  28
ATOM     27  C   UNL     1       5.472   3.399  15.131  0.00  0.00    +0.000 C 
ATOM     28  C   UNL     1       6.084   4.797  15.413  0.00  0.00    +0.000 C 
ATOM     29  C   UNL     1       7.477   4.925  14.721  0.00  0.00    +0.000 C 
ATOM     30  C   UNL     1       5.183   5.818  14.691  0.00  0.00    +0.000 C 
ENDBRANCH  21  28
ENDBRANCH  20  26
ENDBRANCH   1  20
TORSDOF 6
ENDMDL
MODEL 5
REMARK VINA RESULT:      -7.6      3.741      8.196
REMARK  Name = 
REMARK  9 active torsions:
REMARK  status: ('A' for Active; 'I' for Inactive)
REMARK    1  A    between atoms: C_1  and  C_2
REMARK    2  A    between atoms: C_2  and  C_3
REMARK    3  A    between atoms: C_2  and  C_4
REMARK    4  A    between atoms: C_2  and  C_5
REMARK    5  A    between atoms: C_10  and  O_11
REMARK    6  A    between atoms: O_11  and  C_12
REMARK    7  A    between atoms: C_17  and  N_18
REMARK    8  A    between atoms: C_21  and  C_22
REMARK    9  A    between atoms: C_26  and  C_27
REMARK                            x       y       z     vdW  Elec       q    Type
REMARK                         _______ _______ _______ _____ _____    ______ ____
ROOT
ATOM      1  C   UNL     1       0.725   9.374  19.448  0.00  0.00    +0.000 A 
ATOM      2  N   UNL     1      -0.101   9.634  20.501  0.00  0.00    +0.000 NA
ATOM      3  C   UNL     1      -0.025   8.833  21.581  0.00  0.00    +0.000 A 
ATOM      4  C   UNL     1       0.892   7.814  21.701  0.00  0.00    +0.000 A 
ATOM      5  C   UNL     1       1.795   7.621  20.658  0.00  0.00    +0.000 A 
ATOM      6  C   UNL     1       1.749   8.405  19.489  0.00  0.00    +0.000 A 
ENDROOT
BRANCH   6   7
ATOM      7  N   UNL     1       2.619   8.157  18.403  0.00  0.00    +0.000 N 
ATOM      8  C   UNL     1       3.092   6.949  18.002  0.00  0.00    +0.000 A 
ATOM      9  N   UNL     1       2.536   5.780  18.237  0.00  0.00    +0.000 NA
ATOM     10  C   UNL     1       3.233   4.730  17.642  0.00  0.00    +0.000 A 
ATOM     11  C   UNL     1       4.375   5.138  16.980  0.00  0.00    +0.000 A 
ATOM     12  S   UNL     1       4.530   6.841  17.052  0.00  0.00    +0.000 S 
ATOM     13  H   UNL     1       3.035   9.001  18.023  0.00  0.00    +0.000 HD
BRANCH  10  14
ATOM     14  C   UNL     1       2.725   3.321  17.733  0.00  0.00    +0.000 C 
ATOM     15  F   UNL     1       3.608   2.476  18.330  0.00  0.00    +0.000 F 
ATOM     16  F   UNL     1       1.572   3.253  18.449  0.00  0.00    +0.000 F 
ATOM     17  F   UNL     1       2.457   2.804  16.508  0.00  0.00    +0.000 F 
ENDBRANCH  10  14
BRANCH  11  18
ATOM     18  C   UNL     1       5.290   4.276  16.308  0.00  0.00    +0.000 C 
ATOM     19  N   UNL     1       6.016   3.578  15.741  0.00  0.00    +0.000 NA
ENDBRANCH  11  18
ENDBRANCH   6   7
BRANCH   1  20
ATOM     20  O   UNL     1       0.458  10.056  18.242  0.00  0.00    +0.000 OA
BRANCH  20  26
ATOM     21  C   UNL     1      -1.006  11.995  18.648  0.00  0.00    +0.000 A 
ATOM     22  C   UNL     1      -2.367  12.425  18.712  0.00  0.00    +0.000 A 
ATOM     23  C   UNL     1      -3.440  11.657  18.269  0.00  0.00    +0.000 A 
ATOM     24  C   UNL     1      -3.182  10.433  17.688  0.00  0.00    +0.000 A 
ATOM     25  C   UNL     1      -1.875   9.972  17.601  0.00  0.00    +0.000 A 
ATOM     26  C   UNL     1      -0.786  10.688  18.168  0.00  0.00    +0.000 A 
BRANCH  21  28
ATOM     27  C   UNL     1       0.155  12.959  20.662  0.00  0.00    +0.000 C 
ATOM     28  C   UNL     1       0.029  13.039  19.117  0.00  0.00    +0.000 C 
ATOM     29  C   UNL     1      -0.465  14.457  18.690  0.00  0.00    +0.000 C 
ATOM     30  C   UNL     1       1.461  12.928  18.559  0.00  0.00    +0.000 C 
ENDBRANCH  21  28
ENDBRANCH  20  26
ENDBRANCH   1  20
TORSDOF 6
ENDMDL
MODEL 6
REMARK VINA RESULT:      -7.5      6.477      9.722
REMARK  Name = 
REMARK  9 active torsions:
REMARK  status: ('A' for Active; 'I' for Inactive)
REMARK    1  A    between atoms: C_1  and  C_2
REMARK    2  A    between atoms: C_2  and  C_3
REMARK    3  A    between atoms: C_2  and  C_4
REMARK    4  A    between atoms: C_2  and  C_5
REMARK    5  A    between atoms: C_10  and  O_11
REMARK    6  A    between atoms: O_11  and  C_12
REMARK    7  A    between atoms: C_17  and  N_18
REMARK    8  A    between atoms: C_21  and  C_22
REMARK    9  A    between atoms: C_26  and  C_27
REMARK                            x       y       z     vdW  Elec       q    Type
REMARK                         _______ _______ _______ _____ _____    ______ ____
ROOT
ATOM      1  C   UNL     1      -0.717  13.575  20.101  0.00  0.00    +0.000 A 
ATOM      2  N   UNL     1      -0.020  14.010  19.013  0.00  0.00    +0.000 NA
ATOM      3  C   UNL     1      -0.125  15.308  18.669  0.00  0.00    +0.000 A 
ATOM      4  C   UNL     1      -0.840  16.227  19.403  0.00  0.00    +0.000 A 
ATOM      5  C   UNL     1      -1.467  15.790  20.567  0.00  0.00    +0.000 A 
ATOM      6  C   UNL     1      -1.421  14.440  20.965  0.00  0.00    +0.000 A 
ENDROOT
BRANCH   6   7
ATOM      7  N   UNL     1      -2.120  13.986  22.107  0.00  0.00    +0.000 N 
ATOM      8  C   UNL     1      -3.432  13.641  22.170  0.00  0.00    +0.000 A 
ATOM      9  N   UNL     1      -4.183  13.252  21.163  0.00  0.00    +0.000 NA
ATOM     10  C   UNL     1      -5.474  12.911  21.561  0.00  0.00    +0.000 A 
ATOM     11  C   UNL     1      -5.697  13.101  22.911  0.00  0.00    +0.000 A 
ATOM     12  S   UNL     1      -4.267  13.641  23.682  0.00  0.00    +0.000 S 
ATOM     13  H   UNL     1      -1.599  14.106  22.969  0.00  0.00    +0.000 HD
BRANCH  10  14
ATOM     14  C   UNL     1      -6.468  12.377  20.573  0.00  0.00    +0.000 C 
ATOM     15  F   UNL     1      -5.970  12.296  19.310  0.00  0.00    +0.000 F 
ATOM     16  F   UNL     1      -6.884  11.127  20.911  0.00  0.00    +0.000 F 
ATOM     17  F   UNL     1      -7.577  13.154  20.506  0.00  0.00    +0.000 F 
ENDBRANCH  10  14
BRANCH  11  18
ATOM     18  C   UNL     1      -6.930  12.860  23.585  0.00  0.00    +0.000 C 
ATOM     19  N   UNL     1      -7.917  12.658  24.153  0.00  0.00    +0.000 NA
ENDBRANCH  11  18
ENDBRANCH   6   7
BRANCH   1  20
ATOM     20  O   UNL     1      -0.797  12.179  20.293  0.00  0.00    +0.000 OA
BRANCH  20  26
ATOM     21  C   UNL     1      -0.579  10.533  18.475  0.00  0.00    +0.000 A 
ATOM     22  C   UNL     1      -1.192  10.035  17.284  0.00  0.00    +0.000 A 
ATOM     23  C   UNL     1      -2.486  10.357  16.891  0.00  0.00    +0.000 A 
ATOM     24  C   UNL     1      -3.247  11.161  17.714  0.00  0.00    +0.000 A 
ATOM     25  C   UNL     1      -2.697  11.667  18.884  0.00  0.00    +0.000 A 
ATOM     26  C   UNL     1      -1.335  11.453  19.228  0.00  0.00    +0.000 A 
BRANCH  21  28
ATOM     27  C   UNL     1       0.867   9.415  20.205  0.00  0.00    +0.000 C 
ATOM     28  C   UNL     1       0.833   9.980  18.760  0.00  0.00    +0.000 C 
ATOM     29  C   UNL     1       1.863  11.144  18.614  0.00  0.00    +0.000 C 
ATOM     30  C   UNL     1       1.362   8.859  17.844  0.00  0.00    +0.000 C 
ENDBRANCH  21  28
ENDBRANCH  20  26
ENDBRANCH   1  20
TORSDOF 6
ENDMDL
MODEL 7
REMARK VINA RESULT:      -7.5      3.751      8.198
REMARK  Name = 
REMARK  9 active torsions:
REMARK  status: ('A' for Active; 'I' for Inactive)
REMARK    1  A    between atoms: C_1  and  C_2
REMARK    2  A    between atoms: C_2  and  C_3
REMARK    3  A    between atoms: C_2  and  C_4
REMARK    4  A    between atoms: C_2  and  C_5
REMARK    5  A    between atoms: C_10  and  O_11
REMARK    6  A    between atoms: O_11  and  C_12
REMARK    7  A    between atoms: C_17  and  N_18
REMARK    8  A    between atoms: C_21  and  C_22
REMARK    9  A    between atoms: C_26  and  C_27
REMARK                            x       y       z     vdW  Elec       q    Type
REMARK                         _______ _______ _______ _____ _____    ______ ____
ROOT
ATOM      1  C   UNL     1       0.895   9.408  19.501  0.00  0.00    +0.000 A 
ATOM      2  N   UNL     1       0.096   9.658  20.577  0.00  0.00    +0.000 NA
ATOM      3  C   UNL     1       0.100   8.771  21.590  0.00  0.00    +0.000 A 
ATOM      4  C   UNL     1       0.922   7.668  21.624  0.00  0.00    +0.000 A 
ATOM      5  C   UNL     1       1.804   7.477  20.563  0.00  0.00    +0.000 A 
ATOM      6  C   UNL     1       1.829   8.351  19.460  0.00  0.00    +0.000 A 
ENDROOT
BRANCH   6   7
ATOM      7  N   UNL     1       2.673   8.113  18.352  0.00  0.00    +0.000 N 
ATOM      8  C   UNL     1       3.155   6.910  17.944  0.00  0.00    +0.000 A 
ATOM      9  N   UNL     1       2.625   5.734  18.198  0.00  0.00    +0.000 NA
ATOM     10  C   UNL     1       3.323   4.692  17.589  0.00  0.00    +0.000 A 
ATOM     11  C   UNL     1       4.440   5.116  16.895  0.00  0.00    +0.000 A 
ATOM     12  S   UNL     1       4.569   6.821  16.956  0.00  0.00    +0.000 S 
ATOM     13  H   UNL     1       3.065   8.961  17.958  0.00  0.00    +0.000 HD
BRANCH  10  14
ATOM     14  C   UNL     1       2.841   3.276  17.699  0.00  0.00    +0.000 C 
ATOM     15  F   UNL     1       1.739   3.149  18.486  0.00  0.00    +0.000 F 
ATOM     16  F   UNL     1       2.514   2.765  16.482  0.00  0.00    +0.000 F 
ATOM     17  F   UNL     1       3.791   2.462  18.224  0.00  0.00    +0.000 F 
ENDBRANCH  10  14
BRANCH  11  18
ATOM     18  C   UNL     1       5.350   4.266  16.202  0.00  0.00    +0.000 C 
ATOM     19  N   UNL     1       6.107   3.596  15.639  0.00  0.00    +0.000 NA
ENDBRANCH  11  18
ENDBRANCH   6   7
BRANCH   1  20
ATOM     20  O   UNL     1       0.691  10.204  18.354  0.00  0.00    +0.000 OA
BRANCH  20  26
ATOM     21  C   UNL     1      -0.881  12.062  18.732  0.00  0.00    +0.000 A 
ATOM     22  C   UNL     1      -2.263  12.426  18.741  0.00  0.00    +0.000 A 
ATOM     23  C   UNL     1      -3.276  11.619  18.233  0.00  0.00    +0.000 A 
ATOM     24  C   UNL     1      -2.934  10.422  17.640  0.00  0.00    +0.000 A 
ATOM     25  C   UNL     1      -1.603  10.026  17.604  0.00  0.00    +0.000 A 
ATOM     26  C   UNL     1      -0.577  10.778  18.236  0.00  0.00    +0.000 A 
BRANCH  21  28
ATOM     27  C   UNL     1      -0.645  14.514  19.247  0.00  0.00    +0.000 C 
ATOM     28  C   UNL     1       0.080  13.142  19.270  0.00  0.00    +0.000 C 
ATOM     29  C   UNL     1       1.344  13.187  18.354  0.00  0.00    +0.000 C 
ATOM     30  C   UNL     1       0.628  12.965  20.699  0.00  0.00    +0.000 C 
ENDBRANCH  21  28
ENDBRANCH  20  26
ENDBRANCH   1  20
TORSDOF 6
ENDMDL
MODEL 8
REMARK VINA RESULT:      -7.5      3.743      8.203
REMARK  Name = 
REMARK  9 active torsions:
REMARK  status: ('A' for Active; 'I' for Inactive)
REMARK    1  A    between atoms: C_1  and  C_2
REMARK    2  A    between atoms: C_2  and  C_3
REMARK    3  A    between atoms: C_2  and  C_4
REMARK    4  A    between atoms: C_2  and  C_5
REMARK    5  A    between atoms: C_10  and  O_11
REMARK    6  A    between atoms: O_11  and  C_12
REMARK    7  A    between atoms: C_17  and  N_18
REMARK    8  A    between atoms: C_21  and  C_22
REMARK    9  A    between atoms: C_26  and  C_27
REMARK                            x       y       z     vdW  Elec       q    Type
REMARK                         _______ _______ _______ _____ _____    ______ ____
ROOT
ATOM      1  C   UNL     1       0.769   9.474  19.530  0.00  0.00    +0.000 A 
ATOM      2  N   UNL     1      -0.044   9.736  20.594  0.00  0.00    +0.000 NA
ATOM      3  C   UNL     1      -0.024   8.881  21.633  0.00  0.00    +0.000 A 
ATOM      4  C   UNL     1       0.826   7.801  21.706  0.00  0.00    +0.000 A 
ATOM      5  C   UNL     1       1.720   7.601  20.657  0.00  0.00    +0.000 A 
ATOM      6  C   UNL     1       1.729   8.441  19.527  0.00  0.00    +0.000 A 
ENDROOT
BRANCH   6   7
ATOM      7  N   UNL     1       2.587   8.191  18.432  0.00  0.00    +0.000 N 
ATOM      8  C   UNL     1       3.057   6.982  18.031  0.00  0.00    +0.000 A 
ATOM      9  N   UNL     1       2.507   5.813  18.276  0.00  0.00    +0.000 NA
ATOM     10  C   UNL     1       3.199   4.761  17.677  0.00  0.00    +0.000 A 
ATOM     11  C   UNL     1       4.332   5.169  17.001  0.00  0.00    +0.000 A 
ATOM     12  S   UNL     1       4.485   6.873  17.064  0.00  0.00    +0.000 S 
ATOM     13  H   UNL     1       2.997   9.034  18.044  0.00  0.00    +0.000 HD
BRANCH  10  14
ATOM     14  C   UNL     1       2.695   3.352  17.779  0.00  0.00    +0.000 C 
ATOM     15  F   UNL     1       2.488   2.772  16.567  0.00  0.00    +0.000 F 
ATOM     16  F   UNL     1       3.572   2.558  18.449  0.00  0.00    +0.000 F 
ATOM     17  F   UNL     1       1.517   3.288  18.449  0.00  0.00    +0.000 F 
ENDBRANCH  10  14
BRANCH  11  18
ATOM     18  C   UNL     1       5.241   4.307  16.321  0.00  0.00    +0.000 C 
ATOM     19  N   UNL     1       5.989   3.628  15.757  0.00  0.00    +0.000 NA
ENDBRANCH  11  18
ENDBRANCH   6   7
BRANCH   1  20
ATOM     20  O   UNL     1       0.552  10.230  18.358  0.00  0.00    +0.000 OA
BRANCH  20  26
ATOM     21  C   UNL     1      -1.047  12.078  18.665  0.00  0.00    +0.000 A 
ATOM     22  C   UNL     1      -2.434  12.420  18.666  0.00  0.00    +0.000 A 
ATOM     23  C   UNL     1      -3.436  11.578  18.196  0.00  0.00    +0.000 A 
ATOM     24  C   UNL     1      -3.078  10.363  17.652  0.00  0.00    +0.000 A 
ATOM     25  C   UNL     1      -1.742   9.985  17.626  0.00  0.00    +0.000 A 
ATOM     26  C   UNL     1      -0.725  10.779  18.222  0.00  0.00    +0.000 A 
BRANCH  21  28
ATOM     27  C   UNL     1       1.251  13.069  18.401  0.00  0.00    +0.000 C 
ATOM     28  C   UNL     1      -0.100  13.194  19.154  0.00  0.00    +0.000 C 
ATOM     29  C   UNL     1       0.122  13.022  20.690  0.00  0.00    +0.000 C 
ATOM     30  C   UNL     1      -0.562  14.653  18.977  0.00  0.00    +0.000 C 
ENDBRANCH  21  28
ENDBRANCH  20  26
ENDBRANCH   1  20
TORSDOF 6
ENDMDL
MODEL 9
REMARK VINA RESULT:      -7.4      1.399      2.511
REMARK  Name = 
REMARK  9 active torsions:
REMARK  status: ('A' for Active; 'I' for Inactive)
REMARK    1  A    between atoms: C_1  and  C_2
REMARK    2  A    between atoms: C_2  and  C_3
REMARK    3  A    between atoms: C_2  and  C_4
REMARK    4  A    between atoms: C_2  and  C_5
REMARK    5  A    between atoms: C_10  and  O_11
REMARK    6  A    between atoms: O_11  and  C_12
REMARK    7  A    between atoms: C_17  and  N_18
REMARK    8  A    between atoms: C_21  and  C_22
REMARK    9  A    between atoms: C_26  and  C_27
REMARK                            x       y       z     vdW  Elec       q    Type
REMARK                         _______ _______ _______ _____ _____    ______ ____
ROOT
ATOM      1  C   UNL     1       3.818   3.779  18.229  0.00  0.00    +0.000 A 
ATOM      2  N   UNL     1       3.651   2.450  18.482  0.00  0.00    +0.000 NA
ATOM      3  C   UNL     1       2.400   1.994  18.684  0.00  0.00    +0.000 A 
ATOM      4  C   UNL     1       1.281   2.789  18.575  0.00  0.00    +0.000 A 
ATOM      5  C   UNL     1       1.459   4.124  18.220  0.00  0.00    +0.000 A 
ATOM      6  C   UNL     1       2.743   4.669  18.024  0.00  0.00    +0.000 A 
ENDROOT
BRANCH   6   7
ATOM      7  N   UNL     1       2.923   6.041  17.737  0.00  0.00    +0.000 N 
ATOM      8  C   UNL     1       2.361   7.088  18.395  0.00  0.00    +0.000 A 
ATOM      9  N   UNL     1       1.914   7.078  19.632  0.00  0.00    +0.000 NA
ATOM     10  C   UNL     1       1.448   8.327  20.039  0.00  0.00    +0.000 A 
ATOM     11  C   UNL     1       1.512   9.285  19.045  0.00  0.00    +0.000 A 
ATOM     12  S   UNL     1       2.217   8.630  17.630  0.00  0.00    +0.000 S 
ATOM     13  H   UNL     1       3.384   6.207  16.848  0.00  0.00    +0.000 HD
BRANCH  10  14
ATOM     14  C   UNL     1       0.959   8.546  21.440  0.00  0.00    +0.000 C 
ATOM     15  F   UNL     1       0.778   7.386  22.127  0.00  0.00    +0.000 F 
ATOM     16  F   UNL     1       1.834   9.296  22.162  0.00  0.00    +0.000 F 
ATOM     17  F   UNL     1      -0.229   9.201  21.460  0.00  0.00    +0.000 F 
ENDBRANCH  10  14
BRANCH  11  18
ATOM     18  C   UNL     1       1.079  10.637  19.174  0.00  0.00    +0.000 C 
ATOM     19  N   UNL     1       0.746  11.737  19.296  0.00  0.00    +0.000 NA
ENDBRANCH  11  18
ENDBRANCH   6   7
BRANCH   1  20
ATOM     20  O   UNL     1       5.138   4.278  18.272  0.00  0.00    +0.000 OA
BRANCH  20  26
ATOM     21  C   UNL     1       6.554   5.567  16.724  0.00  0.00    +0.000 A 
ATOM     22  C   UNL     1       6.940   5.712  15.355  0.00  0.00    +0.000 A 
ATOM     23  C   UNL     1       6.635   4.783  14.366  0.00  0.00    +0.000 A 
ATOM     24  C   UNL     1       5.966   3.631  14.724  0.00  0.00    +0.000 A 
ATOM     25  C   UNL     1       5.572   3.443  16.042  0.00  0.00    +0.000 A 
ATOM     26  C   UNL     1       5.761   4.443  17.033  0.00  0.00    +0.000 A 
BRANCH  21  28
ATOM     27  C   UNL     1       7.831   6.012  18.846  0.00  0.00    +0.000 C 
ATOM     28  C   UNL     1       7.070   6.674  17.666  0.00  0.00    +0.000 C 
ATOM     29  C   UNL     1       5.848   7.484  18.201  0.00  0.00    +0.000 C 
ATOM     30  C   UNL     1       8.023   7.731  17.075  0.00  0.00    +0.000 C 
ENDBRANCH  21  28
ENDBRANCH  20  26
ENDBRANCH   1  20
TORSDOF 6
ENDMDL
