MODEL 1
REMARK VINA RESULT:      -8.3      0.000      0.000
REMARK  Name = 
REMARK  11 active torsions:
REMARK  status: ('A' for Active; 'I' for Inactive)
REMARK    1  A    between atoms: N_1  and  C_2
REMARK    2  A    between atoms: C_2  and  C_3
REMARK    3  A    between atoms: C_2  and  C_21
REMARK    4  A    between atoms: C_3  and  C_4
REMARK    5  A    between atoms: C_4  and  C_5
REMARK    6  A    between atoms: N_7  and  C_8
REMARK    7  A    between atoms: C_11  and  O_12
REMARK    8  A    between atoms: O_12  and  C_13
REMARK    9  A    between atoms: N_23  and  CA_24
REMARK   10  A    between atoms: CA_24  and  C_25
REMARK   11  A    between atoms: C_25  and  OXT_27
REMARK                            x       y       z     vdW  Elec       q    Type
REMARK                         _______ _______ _______ _____ _____    ______ ____
ROOT
ATOM      1  C   UNK A   1       1.879   4.612  20.634  0.00  0.00    +0.000 C 
ATOM      2  O   UNK A   1       0.665   4.521  20.483  0.00  0.00    +0.000 OA
ATOM      3  N   UNK A   1       2.654   5.729  20.369  0.00  0.00    +0.000 N 
ATOM      4  H   UNK A   1       3.661   5.626  20.373  0.00  0.00    +0.000 HD
ENDROOT
BRANCH   3   5
ATOM      5  C   UNK A   1       2.155   6.974  19.925  0.00  0.00    +0.000 A 
ATOM      6  C   UNK A   1       2.353   7.440  18.623  0.00  0.00    +0.000 A 
ATOM      7  C   UNK A   1       1.854   8.680  18.222  0.00  0.00    +0.000 A 
ATOM      8  C   UNK A   1       1.144   9.464  19.117  0.00  0.00    +0.000 A 
ATOM      9  C   UNK A   1       0.973   9.027  20.433  0.00  0.00    +0.000 A 
ATOM     10  C   UNK A   1       1.441   7.762  20.824  0.00  0.00    +0.000 A 
BRANCH   8  11
ATOM     11  O   UNK A   1       0.686  10.670  18.636  0.00  0.00    +0.000 OA
BRANCH  11  12
ATOM     12  C   UNK A   1      -0.662  10.876  18.476  0.00  0.00    +0.000 A 
ATOM     13  C   UNK A   1      -1.227  11.889  19.253  0.00  0.00    +0.000 A 
ATOM     14  C   UNK A   1      -2.595  12.150  19.176  0.00  0.00    +0.000 A 
ATOM     15  C   UNK A   1      -3.401  11.400  18.317  0.00  0.00    +0.000 A 
ATOM     16  C   UNK A   1      -2.834  10.414  17.515  0.00  0.00    +0.000 A 
ATOM     17  C   UNK A   1      -1.461  10.176  17.567  0.00  0.00    +0.000 A 
ENDBRANCH  11  12
ENDBRANCH   8  11
ENDBRANCH   3   5
BRANCH   1  18
ATOM     18  C   UNK A   1       2.666   3.406  21.104  0.00  0.00    +0.000 C 
BRANCH  18  19
ATOM     19  C   UNK A   1       2.670   2.358  19.989  0.00  0.00    +0.000 C 
BRANCH  19  20
ATOM     20  C   UNK A   1       4.031   2.131  19.318  0.00  0.00    +0.000 C 
BRANCH  20  21
ATOM     21  C   UNK A   1       4.441   3.403  18.528  0.00  0.00    +0.000 C 
ATOM     22  O   UNK A   1       3.693   3.996  17.755  0.00  0.00    +0.000 OA
ATOM     23  N   GLY A   2       5.737   3.809  18.737  0.00  0.00    +0.000 N 
ATOM     24  H   GLY A   2       6.299   3.296  19.418  0.00  0.00    +0.000 HD
BRANCH  23  25
ATOM     25  CA  GLY A   2       6.257   5.007  18.118  0.00  0.00    +0.000 C 
BRANCH  25  26
ATOM     26  C   GLY A   2       7.405   4.709  17.167  0.00  0.00    +0.000 C 
ATOM     27  O   GLY A   2       7.446   5.062  15.996  0.00  0.00    +0.000 OA
BRANCH  26  28
ATOM     28  OXT GLY A   2       8.397   3.988  17.741  0.00  0.00    +0.000 OA
ATOM     29  HXT GLY A   2       8.258   3.802  18.692  0.00  0.00    +0.000 HD
ENDBRANCH  26  28
ENDBRANCH  25  26
ENDBRANCH  23  25
ENDBRANCH  20  21
BRANCH  20  30
ATOM     30  N   UNK A   1       5.094   1.799  20.292  0.00  0.00    +0.000 NA
ATOM     31  H   UNK A   1       5.897   1.402  19.811  0.00  0.00    +0.000 HD
ATOM     32  H   UNK A   1       4.748   1.076  20.925  0.00  0.00    +0.000 HD
ENDBRANCH  20  30
ENDBRANCH  19  20
ENDBRANCH  18  19
ENDBRANCH   1  18
TORSDOF 11
ENDMDL
MODEL 2
REMARK VINA RESULT:      -7.9      1.114      1.576
REMARK  Name = 
REMARK  11 active torsions:
REMARK  status: ('A' for Active; 'I' for Inactive)
REMARK    1  A    between atoms: N_1  and  C_2
REMARK    2  A    between atoms: C_2  and  C_3
REMARK    3  A    between atoms: C_2  and  C_21
REMARK    4  A    between atoms: C_3  and  C_4
REMARK    5  A    between atoms: C_4  and  C_5
REMARK    6  A    between atoms: N_7  and  C_8
REMARK    7  A    between atoms: C_11  and  O_12
REMARK    8  A    between atoms: O_12  and  C_13
REMARK    9  A    between atoms: N_23  and  CA_24
REMARK   10  A    between atoms: CA_24  and  C_25
REMARK   11  A    between atoms: C_25  and  OXT_27
REMARK                            x       y       z     vdW  Elec       q    Type
REMARK                         _______ _______ _______ _____ _____    ______ ____
ROOT
ATOM      1  C   UNK A   1       1.866   4.393  20.627  0.00  0.00    +0.000 C 
ATOM      2  O   UNK A   1       0.691   4.290  20.291  0.00  0.00    +0.000 OA
ATOM      3  N   UNK A   1       2.647   5.533  20.532  0.00  0.00    +0.000 N 
ATOM      4  H   UNK A   1       3.644   5.445  20.682  0.00  0.00    +0.000 HD
ENDROOT
BRANCH   3   5
ATOM      5  C   UNK A   1       2.192   6.790  20.074  0.00  0.00    +0.000 A 
ATOM      6  C   UNK A   1       1.429   7.647  20.870  0.00  0.00    +0.000 A 
ATOM      7  C   UNK A   1       0.989   8.878  20.381  0.00  0.00    +0.000 A 
ATOM      8  C   UNK A   1       1.314   9.268  19.092  0.00  0.00    +0.000 A 
ATOM      9  C   UNK A   1       2.043   8.403  18.272  0.00  0.00    +0.000 A 
ATOM     10  C   UNK A   1       2.519   7.183  18.779  0.00  0.00    +0.000 A 
BRANCH   8  11
ATOM     11  O   UNK A   1       0.841  10.498  18.694  0.00  0.00    +0.000 OA
BRANCH  11  12
ATOM     12  C   UNK A   1      -0.503  10.677  18.475  0.00  0.00    +0.000 A 
ATOM     13  C   UNK A   1      -1.108  11.719  19.179  0.00  0.00    +0.000 A 
ATOM     14  C   UNK A   1      -2.476  11.957  19.039  0.00  0.00    +0.000 A 
ATOM     15  C   UNK A   1      -3.241  11.154  18.192  0.00  0.00    +0.000 A 
ATOM     16  C   UNK A   1      -2.632  10.137  17.462  0.00  0.00    +0.000 A 
ATOM     17  C   UNK A   1      -1.259   9.921  17.575  0.00  0.00    +0.000 A 
ENDBRANCH  11  12
ENDBRANCH   8  11
ENDBRANCH   3   5
BRANCH   1  18
ATOM     18  C   UNK A   1       2.601   3.178  21.155  0.00  0.00    +0.000 C 
BRANCH  18  19
ATOM     19  C   UNK A   1       3.714   2.812  20.169  0.00  0.00    +0.000 C 
BRANCH  19  20
ATOM     20  C   UNK A   1       3.305   2.846  18.691  0.00  0.00    +0.000 C 
BRANCH  20  21
ATOM     21  C   UNK A   1       4.386   3.599  17.869  0.00  0.00    +0.000 C 
ATOM     22  O   UNK A   1       4.235   3.951  16.703  0.00  0.00    +0.000 OA
ATOM     23  N   GLY A   2       5.563   3.819  18.546  0.00  0.00    +0.000 N 
ATOM     24  H   GLY A   2       5.617   3.534  19.525  0.00  0.00    +0.000 HD
BRANCH  23  25
ATOM     25  CA  GLY A   2       6.649   4.555  17.940  0.00  0.00    +0.000 C 
BRANCH  25  26
ATOM     26  C   GLY A   2       7.251   5.575  18.894  0.00  0.00    +0.000 C 
ATOM     27  O   GLY A   2       7.376   5.409  20.100  0.00  0.00    +0.000 OA
BRANCH  26  28
ATOM     28  OXT GLY A   2       7.637   6.717  18.277  0.00  0.00    +0.000 OA
ATOM     29  HXT GLY A   2       7.869   7.444  18.890  0.00  0.00    +0.000 HD
ENDBRANCH  26  28
ENDBRANCH  25  26
ENDBRANCH  23  25
ENDBRANCH  20  21
BRANCH  20  30
ATOM     30  N   UNK A   1       3.118   1.492  18.124  0.00  0.00    +0.000 NA
ATOM     31  H   UNK A   1       2.621   1.550  17.239  0.00  0.00    +0.000 HD
ATOM     32  H   UNK A   1       2.524   0.950  18.755  0.00  0.00    +0.000 HD
ENDBRANCH  20  30
ENDBRANCH  19  20
ENDBRANCH  18  19
ENDBRANCH   1  18
TORSDOF 11
ENDMDL
MODEL 3
REMARK VINA RESULT:      -7.9      0.654      1.160
REMARK  Name = 
REMARK  11 active torsions:
REMARK  status: ('A' for Active; 'I' for Inactive)
REMARK    1  A    between atoms: N_1  and  C_2
REMARK    2  A    between atoms: C_2  and  C_3
REMARK    3  A    between atoms: C_2  and  C_21
REMARK    4  A    between atoms: C_3  and  C_4
REMARK    5  A    between atoms: C_4  and  C_5
REMARK    6  A    between atoms: N_7  and  C_8
REMARK    7  A    between atoms: C_11  and  O_12
REMARK    8  A    between atoms: O_12  and  C_13
REMARK    9  A    between atoms: N_23  and  CA_24
REMARK   10  A    between atoms: CA_24  and  C_25
REMARK   11  A    between atoms: C_25  and  OXT_27
REMARK                            x       y       z     vdW  Elec       q    Type
REMARK                         _______ _______ _______ _____ _____    ______ ____
ROOT
ATOM      1  C   UNK A   1       2.071   4.856  20.551  0.00  0.00    +0.000 C 
ATOM      2  O   UNK A   1       0.860   4.690  20.449  0.00  0.00    +0.000 OA
ATOM      3  N   UNK A   1       2.767   6.013  20.242  0.00  0.00    +0.000 N 
ATOM      4  H   UNK A   1       3.778   5.970  20.207  0.00  0.00    +0.000 HD
ENDROOT
BRANCH   3   5
ATOM      5  C   UNK A   1       2.177   7.220  19.805  0.00  0.00    +0.000 A 
ATOM      6  C   UNK A   1       2.308   7.687  18.496  0.00  0.00    +0.000 A 
ATOM      7  C   UNK A   1       1.719   8.890  18.101  0.00  0.00    +0.000 A 
ATOM      8  C   UNK A   1       0.986   9.634  19.012  0.00  0.00    +0.000 A 
ATOM      9  C   UNK A   1       0.881   9.198  20.335  0.00  0.00    +0.000 A 
ATOM     10  C   UNK A   1       1.440   7.968  20.719  0.00  0.00    +0.000 A 
BRANCH   8  11
ATOM     11  O   UNK A   1       0.439  10.804  18.536  0.00  0.00    +0.000 OA
BRANCH  11  12
ATOM     12  C   UNK A   1      -0.922  10.913  18.387  0.00  0.00    +0.000 A 
ATOM     13  C   UNK A   1      -1.513  10.044  17.469  0.00  0.00    +0.000 A 
ATOM     14  C   UNK A   1      -2.886  10.103  17.233  0.00  0.00    +0.000 A 
ATOM     15  C   UNK A   1      -3.673  11.030  17.918  0.00  0.00    +0.000 A 
ATOM     16  C   UNK A   1      -3.091  11.874  18.860  0.00  0.00    +0.000 A 
ATOM     17  C   UNK A   1      -1.724  11.791  19.122  0.00  0.00    +0.000 A 
ENDBRANCH  11  12
ENDBRANCH   8  11
ENDBRANCH   3   5
BRANCH   1  18
ATOM     18  C   UNK A   1       2.948   3.705  21.002  0.00  0.00    +0.000 C 
BRANCH  18  19
ATOM     19  C   UNK A   1       2.647   2.487  20.125  0.00  0.00    +0.000 C 
BRANCH  19  20
ATOM     20  C   UNK A   1       3.792   2.058  19.199  0.00  0.00    +0.000 C 
BRANCH  20  21
ATOM     21  C   UNK A   1       4.069   3.178  18.160  0.00  0.00    +0.000 C 
ATOM     22  O   UNK A   1       3.236   3.581  17.352  0.00  0.00    +0.000 OA
ATOM     23  N   GLY A   2       5.350   3.676  18.189  0.00  0.00    +0.000 N 
ATOM     24  H   GLY A   2       5.987   3.326  18.906  0.00  0.00    +0.000 HD
BRANCH  23  25
ATOM     25  CA  GLY A   2       5.752   4.761  17.323  0.00  0.00    +0.000 C 
BRANCH  25  26
ATOM     26  C   GLY A   2       6.589   4.277  16.150  0.00  0.00    +0.000 C 
ATOM     27  O   GLY A   2       6.137   3.734  15.152  0.00  0.00    +0.000 OA
BRANCH  26  28
ATOM     28  OXT GLY A   2       7.915   4.496  16.316  0.00  0.00    +0.000 OA
ATOM     29  HXT GLY A   2       8.488   3.835  15.878  0.00  0.00    +0.000 HD
ENDBRANCH  26  28
ENDBRANCH  25  26
ENDBRANCH  23  25
ENDBRANCH  20  21
BRANCH  20  30
ATOM     30  N   UNK A   1       5.039   1.761  19.939  0.00  0.00    +0.000 NA
ATOM     31  H   UNK A   1       5.834   1.783  19.306  0.00  0.00    +0.000 HD
ATOM     32  H   UNK A   1       4.986   0.809  20.305  0.00  0.00    +0.000 HD
ENDBRANCH  20  30
ENDBRANCH  19  20
ENDBRANCH  18  19
ENDBRANCH   1  18
TORSDOF 11
ENDMDL
MODEL 4
REMARK VINA RESULT:      -7.8      0.824      1.572
REMARK  Name = 
REMARK  11 active torsions:
REMARK  status: ('A' for Active; 'I' for Inactive)
REMARK    1  A    between atoms: N_1  and  C_2
REMARK    2  A    between atoms: C_2  and  C_3
REMARK    3  A    between atoms: C_2  and  C_21
REMARK    4  A    between atoms: C_3  and  C_4
REMARK    5  A    between atoms: C_4  and  C_5
REMARK    6  A    between atoms: N_7  and  C_8
REMARK    7  A    between atoms: C_11  and  O_12
REMARK    8  A    between atoms: O_12  and  C_13
REMARK    9  A    between atoms: N_23  and  CA_24
REMARK   10  A    between atoms: CA_24  and  C_25
REMARK   11  A    between atoms: C_25  and  OXT_27
REMARK                            x       y       z     vdW  Elec       q    Type
REMARK                         _______ _______ _______ _____ _____    ______ ____
ROOT
ATOM      1  C   UNK A   1       1.754   4.141  20.312  0.00  0.00    +0.000 C 
ATOM      2  O   UNK A   1       0.843   4.038  19.497  0.00  0.00    +0.000 OA
ATOM      3  N   UNK A   1       2.413   5.309  20.658  0.00  0.00    +0.000 N 
ATOM      4  H   UNK A   1       3.256   5.237  21.214  0.00  0.00    +0.000 HD
ENDROOT
BRANCH   3   5
ATOM      5  C   UNK A   1       2.101   6.593  20.158  0.00  0.00    +0.000 A 
ATOM      6  C   UNK A   1       1.430   7.552  20.920  0.00  0.00    +0.000 A 
ATOM      7  C   UNK A   1       1.130   8.808  20.390  0.00  0.00    +0.000 A 
ATOM      8  C   UNK A   1       1.506   9.121  19.094  0.00  0.00    +0.000 A 
ATOM      9  C   UNK A   1       2.143   8.157  18.308  0.00  0.00    +0.000 A 
ATOM     10  C   UNK A   1       2.479   6.909  18.856  0.00  0.00    +0.000 A 
BRANCH   8  11
ATOM     11  O   UNK A   1       1.172  10.382  18.654  0.00  0.00    +0.000 OA
BRANCH  11  12
ATOM     12  C   UNK A   1      -0.147  10.759  18.590  0.00  0.00    +0.000 A 
ATOM     13  C   UNK A   1      -0.972   9.979  17.779  0.00  0.00    +0.000 A 
ATOM     14  C   UNK A   1      -2.320  10.305  17.633  0.00  0.00    +0.000 A 
ATOM     15  C   UNK A   1      -2.847  11.411  18.302  0.00  0.00    +0.000 A 
ATOM     16  C   UNK A   1      -2.034  12.168  19.140  0.00  0.00    +0.000 A 
ATOM     17  C   UNK A   1      -0.694  11.822  19.313  0.00  0.00    +0.000 A 
ENDBRANCH  11  12
ENDBRANCH   8  11
ENDBRANCH   3   5
BRANCH   1  18
ATOM     18  C   UNK A   1       2.286   2.900  20.998  0.00  0.00    +0.000 C 
BRANCH  18  19
ATOM     19  C   UNK A   1       3.641   2.542  20.383  0.00  0.00    +0.000 C 
BRANCH  19  20
ATOM     20  C   UNK A   1       3.606   2.224  18.882  0.00  0.00    +0.000 C 
BRANCH  20  21
ATOM     21  C   UNK A   1       4.352   3.336  18.097  0.00  0.00    +0.000 C 
ATOM     22  O   UNK A   1       4.107   3.629  16.930  0.00  0.00    +0.000 OA
ATOM     23  N   GLY A   2       5.349   3.961  18.807  0.00  0.00    +0.000 N 
ATOM     24  H   GLY A   2       5.482   3.698  19.785  0.00  0.00    +0.000 HD
BRANCH  23  25
ATOM     25  CA  GLY A   2       6.102   5.056  18.238  0.00  0.00    +0.000 C 
BRANCH  25  26
ATOM     26  C   GLY A   2       7.590   4.753  18.171  0.00  0.00    +0.000 C 
ATOM     27  O   GLY A   2       8.149   4.222  17.221  0.00  0.00    +0.000 OA
BRANCH  26  28
ATOM     28  OXT GLY A   2       8.259   5.123  19.289  0.00  0.00    +0.000 OA
ATOM     29  HXT GLY A   2       7.745   5.018  20.115  0.00  0.00    +0.000 HD
ENDBRANCH  26  28
ENDBRANCH  25  26
ENDBRANCH  23  25
ENDBRANCH  20  21
BRANCH  20  30
ATOM     30  N   UNK A   1       4.214   0.913  18.567  0.00  0.00    +0.000 NA
ATOM     31  H   UNK A   1       4.614   0.929  17.632  0.00  0.00    +0.000 HD
ATOM     32  H   UNK A   1       3.480   0.202  18.556  0.00  0.00    +0.000 HD
ENDBRANCH  20  30
ENDBRANCH  19  20
ENDBRANCH  18  19
ENDBRANCH   1  18
TORSDOF 11
ENDMDL
MODEL 5
REMARK VINA RESULT:      -7.7      0.941      1.007
REMARK  Name = 
REMARK  11 active torsions:
REMARK  status: ('A' for Active; 'I' for Inactive)
REMARK    1  A    between atoms: N_1  and  C_2
REMARK    2  A    between atoms: C_2  and  C_3
REMARK    3  A    between atoms: C_2  and  C_21
REMARK    4  A    between atoms: C_3  and  C_4
REMARK    5  A    between atoms: C_4  and  C_5
REMARK    6  A    between atoms: N_7  and  C_8
REMARK    7  A    between atoms: C_11  and  O_12
REMARK    8  A    between atoms: O_12  and  C_13
REMARK    9  A    between atoms: N_23  and  CA_24
REMARK   10  A    between atoms: CA_24  and  C_25
REMARK   11  A    between atoms: C_25  and  OXT_27
REMARK                            x       y       z     vdW  Elec       q    Type
REMARK                         _______ _______ _______ _____ _____    ______ ____
ROOT
ATOM      1  C   UNK A   1       1.966   4.531  20.499  0.00  0.00    +0.000 C 
ATOM      2  O   UNK A   1       0.762   4.423  20.288  0.00  0.00    +0.000 OA
ATOM      3  N   UNK A   1       2.728   5.673  20.317  0.00  0.00    +0.000 N 
ATOM      4  H   UNK A   1       3.736   5.589  20.363  0.00  0.00    +0.000 HD
ENDROOT
BRANCH   3   5
ATOM      5  C   UNK A   1       2.223   6.926  19.904  0.00  0.00    +0.000 A 
ATOM      6  C   UNK A   1       2.404   7.418  18.610  0.00  0.00    +0.000 A 
ATOM      7  C   UNK A   1       1.900   8.666  18.240  0.00  0.00    +0.000 A 
ATOM      8  C   UNK A   1       1.201   9.432  19.160  0.00  0.00    +0.000 A 
ATOM      9  C   UNK A   1       1.047   8.969  20.469  0.00  0.00    +0.000 A 
ATOM     10  C   UNK A   1       1.521   7.696  20.828  0.00  0.00    +0.000 A 
BRANCH   8  11
ATOM     11  O   UNK A   1       0.737  10.646  18.708  0.00  0.00    +0.000 OA
BRANCH  11  12
ATOM     12  C   UNK A   1      -0.611  10.842  18.531  0.00  0.00    +0.000 A 
ATOM     13  C   UNK A   1      -1.203  11.819  19.333  0.00  0.00    +0.000 A 
ATOM     14  C   UNK A   1      -2.573  12.065  19.240  0.00  0.00    +0.000 A 
ATOM     15  C   UNK A   1      -3.353  11.338  18.340  0.00  0.00    +0.000 A 
ATOM     16  C   UNK A   1      -2.758  10.388  17.514  0.00  0.00    +0.000 A 
ATOM     17  C   UNK A   1      -1.383  10.165  17.582  0.00  0.00    +0.000 A 
ENDBRANCH  11  12
ENDBRANCH   8  11
ENDBRANCH   3   5
BRANCH   1  18
ATOM     18  C   UNK A   1       2.757   3.321  20.952  0.00  0.00    +0.000 C 
BRANCH  18  19
ATOM     19  C   UNK A   1       2.689   2.253  19.858  0.00  0.00    +0.000 C 
BRANCH  19  20
ATOM     20  C   UNK A   1       3.940   2.150  18.976  0.00  0.00    +0.000 C 
BRANCH  20  21
ATOM     21  C   UNK A   1       3.836   3.163  17.805  0.00  0.00    +0.000 C 
ATOM     22  O   UNK A   1       2.785   3.438  17.232  0.00  0.00    +0.000 OA
ATOM     23  N   GLY A   2       5.034   3.719  17.425  0.00  0.00    +0.000 N 
ATOM     24  H   GLY A   2       5.869   3.477  17.961  0.00  0.00    +0.000 HD
BRANCH  23  25
ATOM     25  CA  GLY A   2       5.101   4.721  16.386  0.00  0.00    +0.000 C 
BRANCH  25  26
ATOM     26  C   GLY A   2       6.325   4.548  15.501  0.00  0.00    +0.000 C 
ATOM     27  O   GLY A   2       7.190   5.398  15.338  0.00  0.00    +0.000 OA
BRANCH  26  28
ATOM     28  OXT GLY A   2       6.368   3.343  14.884  0.00  0.00    +0.000 OA
ATOM     29  HXT GLY A   2       7.222   2.874  14.981  0.00  0.00    +0.000 HD
ENDBRANCH  26  28
ENDBRANCH  25  26
ENDBRANCH  23  25
ENDBRANCH  20  21
BRANCH  20  30
ATOM     30  N   UNK A   1       5.187   2.404  19.730  0.00  0.00    +0.000 NA
ATOM     31  H   UNK A   1       5.102   3.263  20.267  0.00  0.00    +0.000 HD
ATOM     32  H   UNK A   1       5.951   2.551  19.067  0.00  0.00    +0.000 HD
ENDBRANCH  20  30
ENDBRANCH  19  20
ENDBRANCH  18  19
ENDBRANCH   1  18
TORSDOF 11
ENDMDL
MODEL 6
REMARK VINA RESULT:      -7.7      2.045      2.697
REMARK  Name = 
REMARK  11 active torsions:
REMARK  status: ('A' for Active; 'I' for Inactive)
REMARK    1  A    between atoms: N_1  and  C_2
REMARK    2  A    between atoms: C_2  and  C_3
REMARK    3  A    between atoms: C_2  and  C_21
REMARK    4  A    between atoms: C_3  and  C_4
REMARK    5  A    between atoms: C_4  and  C_5
REMARK    6  A    between atoms: N_7  and  C_8
REMARK    7  A    between atoms: C_11  and  O_12
REMARK    8  A    between atoms: O_12  and  C_13
REMARK    9  A    between atoms: N_23  and  CA_24
REMARK   10  A    between atoms: CA_24  and  C_25
REMARK   11  A    between atoms: C_25  and  OXT_27
REMARK                            x       y       z     vdW  Elec       q    Type
REMARK                         _______ _______ _______ _____ _____    ______ ____
ROOT
ATOM      1  C   UNK A   1       1.855   4.734  20.541  0.00  0.00    +0.000 C 
ATOM      2  O   UNK A   1       0.631   4.688  20.491  0.00  0.00    +0.000 OA
ATOM      3  N   UNK A   1       2.645   5.832  20.247  0.00  0.00    +0.000 N 
ATOM      4  H   UNK A   1       3.645   5.696  20.162  0.00  0.00    +0.000 HD
ENDROOT
BRANCH   3   5
ATOM      5  C   UNK A   1       2.156   7.108  19.887  0.00  0.00    +0.000 A 
ATOM      6  C   UNK A   1       2.335   7.648  18.612  0.00  0.00    +0.000 A 
ATOM      7  C   UNK A   1       1.846   8.916  18.294  0.00  0.00    +0.000 A 
ATOM      8  C   UNK A   1       1.165   9.655  19.249  0.00  0.00    +0.000 A 
ATOM      9  C   UNK A   1       1.014   9.143  20.540  0.00  0.00    +0.000 A 
ATOM     10  C   UNK A   1       1.471   7.851  20.845  0.00  0.00    +0.000 A 
BRANCH   8  11
ATOM     11  O   UNK A   1       0.715  10.893  18.849  0.00  0.00    +0.000 OA
BRANCH  11  12
ATOM     12  C   UNK A   1       1.491  12.006  19.061  0.00  0.00    +0.000 A 
ATOM     13  C   UNK A   1       1.391  12.596  20.322  0.00  0.00    +0.000 A 
ATOM     14  C   UNK A   1       2.123  13.747  20.616  0.00  0.00    +0.000 A 
ATOM     15  C   UNK A   1       2.960  14.307  19.650  0.00  0.00    +0.000 A 
ATOM     16  C   UNK A   1       3.089  13.699  18.405  0.00  0.00    +0.000 A 
ATOM     17  C   UNK A   1       2.384  12.530  18.121  0.00  0.00    +0.000 A 
ENDBRANCH  11  12
ENDBRANCH   8  11
ENDBRANCH   3   5
BRANCH   1  18
ATOM     18  C   UNK A   1       2.636   3.487  20.903  0.00  0.00    +0.000 C 
BRANCH  18  19
ATOM     19  C   UNK A   1       2.740   2.596  19.663  0.00  0.00    +0.000 C 
BRANCH  19  20
ATOM     20  C   UNK A   1       4.168   2.363  19.152  0.00  0.00    +0.000 C 
BRANCH  20  21
ATOM     21  C   UNK A   1       4.711   3.669  18.511  0.00  0.00    +0.000 C 
ATOM     22  O   UNK A   1       4.040   4.408  17.795  0.00  0.00    +0.000 OA
ATOM     23  N   GLY A   2       6.034   3.927  18.781  0.00  0.00    +0.000 N 
ATOM     24  H   GLY A   2       6.530   3.294  19.411  0.00  0.00    +0.000 HD
BRANCH  23  25
ATOM     25  CA  GLY A   2       6.675   5.131  18.304  0.00  0.00    +0.000 C 
BRANCH  25  26
ATOM     26  C   GLY A   2       7.623   5.722  19.336  0.00  0.00    +0.000 C 
ATOM     27  O   GLY A   2       7.799   5.268  20.458  0.00  0.00    +0.000 OA
BRANCH  26  28
ATOM     28  OXT GLY A   2       8.264   6.832  18.896  0.00  0.00    +0.000 OA
ATOM     29  HXT GLY A   2       7.674   7.501  18.493  0.00  0.00    +0.000 HD
ENDBRANCH  26  28
ENDBRANCH  25  26
ENDBRANCH  23  25
ENDBRANCH  20  21
BRANCH  20  30
ATOM     30  N   UNK A   1       5.089   1.927  20.224  0.00  0.00    +0.000 NA
ATOM     31  H   UNK A   1       5.485   1.019  19.996  0.00  0.00    +0.000 HD
ATOM     32  H   UNK A   1       4.556   1.802  21.087  0.00  0.00    +0.000 HD
ENDBRANCH  20  30
ENDBRANCH  19  20
ENDBRANCH  18  19
ENDBRANCH   1  18
TORSDOF 11
ENDMDL
MODEL 7
REMARK VINA RESULT:      -7.6      0.993      1.649
REMARK  Name = 
REMARK  11 active torsions:
REMARK  status: ('A' for Active; 'I' for Inactive)
REMARK    1  A    between atoms: N_1  and  C_2
REMARK    2  A    between atoms: C_2  and  C_3
REMARK    3  A    between atoms: C_2  and  C_21
REMARK    4  A    between atoms: C_3  and  C_4
REMARK    5  A    between atoms: C_4  and  C_5
REMARK    6  A    between atoms: N_7  and  C_8
REMARK    7  A    between atoms: C_11  and  O_12
REMARK    8  A    between atoms: O_12  and  C_13
REMARK    9  A    between atoms: N_23  and  CA_24
REMARK   10  A    between atoms: CA_24  and  C_25
REMARK   11  A    between atoms: C_25  and  OXT_27
REMARK                            x       y       z     vdW  Elec       q    Type
REMARK                         _______ _______ _______ _____ _____    ______ ____
ROOT
ATOM      1  C   UNK A   1       1.874   4.522  20.624  0.00  0.00    +0.000 C 
ATOM      2  O   UNK A   1       0.766   4.352  20.126  0.00  0.00    +0.000 OA
ATOM      3  N   UNK A   1       2.587   5.709  20.645  0.00  0.00    +0.000 N 
ATOM      4  H   UNK A   1       3.557   5.681  20.934  0.00  0.00    +0.000 HD
ENDROOT
BRANCH   3   5
ATOM      5  C   UNK A   1       2.122   6.942  20.135  0.00  0.00    +0.000 A 
ATOM      6  C   UNK A   1       1.353   7.826  20.894  0.00  0.00    +0.000 A 
ATOM      7  C   UNK A   1       0.903   9.032  20.354  0.00  0.00    +0.000 A 
ATOM      8  C   UNK A   1       1.225   9.370  19.049  0.00  0.00    +0.000 A 
ATOM      9  C   UNK A   1       1.960   8.476  18.266  0.00  0.00    +0.000 A 
ATOM     10  C   UNK A   1       2.445   7.283  18.824  0.00  0.00    +0.000 A 
BRANCH   8  11
ATOM     11  O   UNK A   1       0.742  10.577  18.600  0.00  0.00    +0.000 OA
BRANCH  11  12
ATOM     12  C   UNK A   1      -0.612  10.767  18.463  0.00  0.00    +0.000 A 
ATOM     13  C   UNK A   1      -1.259   9.944  17.540  0.00  0.00    +0.000 A 
ATOM     14  C   UNK A   1      -2.629  10.086  17.316  0.00  0.00    +0.000 A 
ATOM     15  C   UNK A   1      -3.355  11.049  18.019  0.00  0.00    +0.000 A 
ATOM     16  C   UNK A   1      -2.717  11.845  18.966  0.00  0.00    +0.000 A 
ATOM     17  C   UNK A   1      -1.355  11.681  19.215  0.00  0.00    +0.000 A 
ENDBRANCH  11  12
ENDBRANCH   8  11
ENDBRANCH   3   5
BRANCH   1  18
ATOM     18  C   UNK A   1       2.603   3.348  21.243  0.00  0.00    +0.000 C 
BRANCH  18  19
ATOM     19  C   UNK A   1       3.390   2.626  20.147  0.00  0.00    +0.000 C 
BRANCH  19  20
ATOM     20  C   UNK A   1       3.518   3.398  18.827  0.00  0.00    +0.000 C 
BRANCH  20  21
ATOM     21  C   UNK A   1       4.902   4.098  18.765  0.00  0.00    +0.000 C 
ATOM     22  O   UNK A   1       5.775   3.961  19.618  0.00  0.00    +0.000 OA
ATOM     23  N   GLY A   2       5.072   4.926  17.682  0.00  0.00    +0.000 N 
ATOM     24  H   GLY A   2       4.323   4.973  16.988  0.00  0.00    +0.000 HD
BRANCH  23  25
ATOM     25  CA  GLY A   2       6.324   5.610  17.449  0.00  0.00    +0.000 C 
BRANCH  25  26
ATOM     26  C   GLY A   2       7.336   4.724  16.740  0.00  0.00    +0.000 C 
ATOM     27  O   GLY A   2       7.418   4.597  15.527  0.00  0.00    +0.000 OA
BRANCH  26  28
ATOM     28  OXT GLY A   2       8.153   4.063  17.595  0.00  0.00    +0.000 OA
ATOM     29  HXT GLY A   2       8.215   4.467  18.484  0.00  0.00    +0.000 HD
ENDBRANCH  26  28
ENDBRANCH  25  26
ENDBRANCH  23  25
ENDBRANCH  20  21
BRANCH  20  30
ATOM     30  N   UNK A   1       3.360   2.525  17.643  0.00  0.00    +0.000 NA
ATOM     31  H   UNK A   1       3.702   1.590  17.851  0.00  0.00    +0.000 HD
ATOM     32  H   UNK A   1       3.944   2.885  16.887  0.00  0.00    +0.000 HD
ENDBRANCH  20  30
ENDBRANCH  19  20
ENDBRANCH  18  19
ENDBRANCH   1  18
TORSDOF 11
ENDMDL
MODEL 8
REMARK VINA RESULT:      -7.6      1.028      1.693
REMARK  Name = 
REMARK  11 active torsions:
REMARK  status: ('A' for Active; 'I' for Inactive)
REMARK    1  A    between atoms: N_1  and  C_2
REMARK    2  A    between atoms: C_2  and  C_3
REMARK    3  A    between atoms: C_2  and  C_21
REMARK    4  A    between atoms: C_3  and  C_4
REMARK    5  A    between atoms: C_4  and  C_5
REMARK    6  A    between atoms: N_7  and  C_8
REMARK    7  A    between atoms: C_11  and  O_12
REMARK    8  A    between atoms: O_12  and  C_13
REMARK    9  A    between atoms: N_23  and  CA_24
REMARK   10  A    between atoms: CA_24  and  C_25
REMARK   11  A    between atoms: C_25  and  OXT_27
REMARK                            x       y       z     vdW  Elec       q    Type
REMARK                         _______ _______ _______ _____ _____    ______ ____
ROOT
ATOM      1  C   UNK A   1       1.911   4.736  20.524  0.00  0.00    +0.000 C 
ATOM      2  O   UNK A   1       0.715   4.608  20.284  0.00  0.00    +0.000 OA
ATOM      3  N   UNK A   1       2.662   5.885  20.347  0.00  0.00    +0.000 N 
ATOM      4  H   UNK A   1       3.669   5.816  20.420  0.00  0.00    +0.000 HD
ENDROOT
BRANCH   3   5
ATOM      5  C   UNK A   1       2.151   7.126  19.905  0.00  0.00    +0.000 A 
ATOM      6  C   UNK A   1       1.387   7.958  20.726  0.00  0.00    +0.000 A 
ATOM      7  C   UNK A   1       0.891   9.174  20.252  0.00  0.00    +0.000 A 
ATOM      8  C   UNK A   1       1.160   9.573  18.952  0.00  0.00    +0.000 A 
ATOM      9  C   UNK A   1       1.889   8.732  18.108  0.00  0.00    +0.000 A 
ATOM     10  C   UNK A   1       2.421   7.528  18.599  0.00  0.00    +0.000 A 
BRANCH   8  11
ATOM     11  O   UNK A   1       0.634  10.786  18.570  0.00  0.00    +0.000 OA
BRANCH  11  12
ATOM     12  C   UNK A   1      -0.726  10.935  18.447  0.00  0.00    +0.000 A 
ATOM     13  C   UNK A   1      -1.354  10.113  17.510  0.00  0.00    +0.000 A 
ATOM     14  C   UNK A   1      -2.729  10.216  17.299  0.00  0.00    +0.000 A 
ATOM     15  C   UNK A   1      -3.480  11.139  18.028  0.00  0.00    +0.000 A 
ATOM     16  C   UNK A   1      -2.861  11.934  18.988  0.00  0.00    +0.000 A 
ATOM     17  C   UNK A   1      -1.493  11.808  19.224  0.00  0.00    +0.000 A 
ENDBRANCH  11  12
ENDBRANCH   8  11
ENDBRANCH   3   5
BRANCH   1  18
ATOM     18  C   UNK A   1       2.706   3.543  21.013  0.00  0.00    +0.000 C 
BRANCH  18  19
ATOM     19  C   UNK A   1       2.366   2.334  20.138  0.00  0.00    +0.000 C 
BRANCH  19  20
ATOM     20  C   UNK A   1       3.419   1.987  19.077  0.00  0.00    +0.000 C 
BRANCH  20  21
ATOM     21  C   UNK A   1       3.343   3.012  17.914  0.00  0.00    +0.000 C 
ATOM     22  O   UNK A   1       2.422   3.059  17.104  0.00  0.00    +0.000 OA
ATOM     23  N   GLY A   2       4.421   3.862  17.835  0.00  0.00    +0.000 N 
ATOM     24  H   GLY A   2       5.140   3.797  18.558  0.00  0.00    +0.000 HD
BRANCH  23  25
ATOM     25  CA  GLY A   2       4.478   4.911  16.842  0.00  0.00    +0.000 C 
BRANCH  25  26
ATOM     26  C   GLY A   2       5.519   4.628  15.770  0.00  0.00    +0.000 C 
ATOM     27  O   GLY A   2       5.518   5.126  14.653  0.00  0.00    +0.000 OA
BRANCH  26  28
ATOM     28  OXT GLY A   2       6.465   3.743  16.168  0.00  0.00    +0.000 OA
ATOM     29  HXT GLY A   2       6.833   3.924  17.056  0.00  0.00    +0.000 HD
ENDBRANCH  26  28
ENDBRANCH  25  26
ENDBRANCH  23  25
ENDBRANCH  20  21
BRANCH  20  30
ATOM     30  N   UNK A   1       4.792   1.972  19.626  0.00  0.00    +0.000 NA
ATOM     31  H   UNK A   1       4.815   2.449  20.523  0.00  0.00    +0.000 HD
ATOM     32  H   UNK A   1       5.404   2.500  19.000  0.00  0.00    +0.000 HD
ENDBRANCH  20  30
ENDBRANCH  19  20
ENDBRANCH  18  19
ENDBRANCH   1  18
TORSDOF 11
ENDMDL
MODEL 9
REMARK VINA RESULT:      -7.4      6.785      9.724
REMARK  Name = 
REMARK  11 active torsions:
REMARK  status: ('A' for Active; 'I' for Inactive)
REMARK    1  A    between atoms: N_1  and  C_2
REMARK    2  A    between atoms: C_2  and  C_3
REMARK    3  A    between atoms: C_2  and  C_21
REMARK    4  A    between atoms: C_3  and  C_4
REMARK    5  A    between atoms: C_4  and  C_5
REMARK    6  A    between atoms: N_7  and  C_8
REMARK    7  A    between atoms: C_11  and  O_12
REMARK    8  A    between atoms: O_12  and  C_13
REMARK    9  A    between atoms: N_23  and  CA_24
REMARK   10  A    between atoms: CA_24  and  C_25
REMARK   11  A    between atoms: C_25  and  OXT_27
REMARK                            x       y       z     vdW  Elec       q    Type
REMARK                         _______ _______ _______ _____ _____    ______ ____
ROOT
ATOM      1  C   UNK A   1       8.449   9.147  18.413  0.00  0.00    +0.000 C 
ATOM      2  O   UNK A   1       7.616   9.634  17.655  0.00  0.00    +0.000 OA
ATOM      3  N   UNK A   1       8.533   7.817  18.789  0.00  0.00    +0.000 N 
ATOM      4  H   UNK A   1       9.156   7.572  19.548  0.00  0.00    +0.000 HD
ENDROOT
BRANCH   3   5
ATOM      5  C   UNK A   1       7.693   6.786  18.312  0.00  0.00    +0.000 A 
ATOM      6  C   UNK A   1       7.252   5.741  19.126  0.00  0.00    +0.000 A 
ATOM      7  C   UNK A   1       6.430   4.733  18.618  0.00  0.00    +0.000 A 
ATOM      8  C   UNK A   1       6.034   4.766  17.290  0.00  0.00    +0.000 A 
ATOM      9  C   UNK A   1       6.501   5.784  16.455  0.00  0.00    +0.000 A 
ATOM     10  C   UNK A   1       7.295   6.817  16.978  0.00  0.00    +0.000 A 
BRANCH   8  11
ATOM     11  O   UNK A   1       5.222   3.735  16.875  0.00  0.00    +0.000 OA
BRANCH  11  12
ATOM     12  C   UNK A   1       3.946   3.625  17.371  0.00  0.00    +0.000 A 
ATOM     13  C   UNK A   1       3.565   2.359  17.819  0.00  0.00    +0.000 A 
ATOM     14  C   UNK A   1       2.278   2.150  18.313  0.00  0.00    +0.000 A 
ATOM     15  C   UNK A   1       1.368   3.207  18.363  0.00  0.00    +0.000 A 
ATOM     16  C   UNK A   1       1.758   4.478  17.949  0.00  0.00    +0.000 A 
ATOM     17  C   UNK A   1       3.056   4.696  17.488  0.00  0.00    +0.000 A 
ENDBRANCH  11  12
ENDBRANCH   8  11
ENDBRANCH   3   5
BRANCH   1  18
ATOM     18  C   UNK A   1       9.476  10.045  19.071  0.00  0.00    +0.000 C 
BRANCH  18  19
ATOM     19  C   UNK A   1       9.799  11.200  18.119  0.00  0.00    +0.000 C 
BRANCH  19  20
ATOM     20  C   UNK A   1       8.958  12.466  18.330  0.00  0.00    +0.000 C 
BRANCH  20  21
ATOM     21  C   UNK A   1       9.892  13.663  18.654  0.00  0.00    +0.000 C 
ATOM     22  O   UNK A   1       9.925  14.227  19.745  0.00  0.00    +0.000 OA
ATOM     23  N   GLY A   2      10.673  14.076  17.601  0.00  0.00    +0.000 N 
ATOM     24  H   GLY A   2      10.627  13.546  16.730  0.00  0.00    +0.000 HD
BRANCH  23  25
ATOM     25  CA  GLY A   2      11.637  15.142  17.755  0.00  0.00    +0.000 C 
BRANCH  25  26
ATOM     26  C   GLY A   2      11.271  16.367  16.931  0.00  0.00    +0.000 C 
ATOM     27  O   GLY A   2      11.550  17.518  17.236  0.00  0.00    +0.000 OA
BRANCH  26  28
ATOM     28  OXT GLY A   2      10.581  16.063  15.806  0.00  0.00    +0.000 OA
ATOM     29  HXT GLY A   2       9.803  16.635  15.647  0.00  0.00    +0.000 HD
ENDBRANCH  26  28
ENDBRANCH  25  26
ENDBRANCH  23  25
ENDBRANCH  20  21
BRANCH  20  30
ATOM     30  N   UNK A   1       8.131  12.799  17.149  0.00  0.00    +0.000 NA
ATOM     31  H   UNK A   1       8.357  12.177  16.378  0.00  0.00    +0.000 HD
ATOM     32  H   UNK A   1       8.365  13.744  16.838  0.00  0.00    +0.000 HD
ENDBRANCH  20  30
ENDBRANCH  19  20
ENDBRANCH  18  19
ENDBRANCH   1  18
TORSDOF 11
ENDMDL
