MODEL 1
REMARK VINA RESULT:      -6.1      0.000      0.000
REMARK  Name = 
REMARK  6 active torsions:
REMARK  status: ('A' for Active; 'I' for Inactive)
REMARK    1  A    between atoms: C_1  and  C_2
REMARK    2  A    between atoms: C_4  and  C_5
REMARK    3  A    between atoms: C_4  and  C_6
REMARK    4  A    between atoms: N_10  and  C_11
REMARK    5  A    between atoms: C_17  and  S_18
REMARK    6  A    between atoms: S_18  and  N_19
REMARK                            x       y       z     vdW  Elec       q    Type
REMARK                         _______ _______ _______ _____ _____    ______ ____
ROOT
ATOM      1  C   UNL     1      -5.622  13.716  21.642  0.00  0.00    +0.000 A 
ATOM      2  C   UNL     1      -7.026  13.623  21.638  0.00  0.00    +0.000 A 
ATOM      3  C   UNL     1      -7.709  12.730  20.817  0.00  0.00    +0.000 A 
ATOM      4  C   UNL     1      -7.011  11.997  19.875  0.00  0.00    +0.000 A 
ATOM      5  C   UNL     1      -5.622  12.122  19.763  0.00  0.00    +0.000 A 
ATOM      6  C   UNL     1      -4.983  11.483  18.687  0.00  0.00    +0.000 A 
ATOM      7  C   UNL     1      -3.609  11.609  18.526  0.00  0.00    +0.000 A 
ATOM      8  C   UNL     1      -2.838  12.221  19.508  0.00  0.00    +0.000 A 
ATOM      9  C   UNL     1      -3.474  12.822  20.603  0.00  0.00    +0.000 A 
ATOM     10  C   UNL     1      -4.890  12.907  20.701  0.00  0.00    +0.000 A 
ENDROOT
BRANCH   1  20
ATOM     11  C   UNL     1      -4.826  16.516  20.802  0.00  0.00    +0.000 C 
ATOM     12  C   UNL     1      -4.613  15.971  22.192  0.00  0.00    +0.000 C 
ATOM     13  C   UNL     1      -4.084  16.819  23.090  0.00  0.00    +0.000 C 
ATOM     14  C   UNL     1      -3.938  16.537  24.545  0.00  0.00    +0.000 C 
ATOM     15  C   UNL     1      -4.743  17.584  25.324  0.00  0.00    +0.000 C 
ATOM     16  C   UNL     1      -2.460  16.599  24.952  0.00  0.00    +0.000 C 
ATOM     17  N   UNL     1      -4.461  15.215  24.826  0.00  0.00    +0.000 N 
ATOM     18  C   UNL     1      -4.638  14.227  23.886  0.00  0.00    +0.000 C 
ATOM     19  S   UNL     1      -4.366  12.664  24.452  0.00  0.00    +0.000 S 
ATOM     20  N   UNL     1      -4.981  14.657  22.574  0.00  0.00    +0.000 N 
ATOM     21  H   UNL     1      -4.259  14.850  25.749  0.00  0.00    +0.000 HD
ENDBRANCH   1  20
BRANCH   7  22
ATOM     22  S   UNL     1      -2.863  11.029  17.036  0.00  0.00    +0.000 S 
ATOM     23  O   UNL     1      -2.209   9.767  17.285  0.00  0.00    +0.000 OA
ATOM     24  O   UNL     1      -3.782  11.226  15.937  0.00  0.00    +0.000 OA
BRANCH  22  25
ATOM     25  N   UNL     1      -1.640  12.158  16.828  0.00  0.00    +0.000 NA
ATOM     26  H   UNL     1      -1.515  12.713  17.677  0.00  0.00    +0.000 HD
ATOM     27  H   UNL     1      -0.792  11.718  16.479  0.00  0.00    +0.000 HD
ENDBRANCH  22  25
ENDBRANCH   7  22
TORSDOF 3
ENDMDL
MODEL 2
REMARK VINA RESULT:      -6.1     12.150     14.469
REMARK  Name = 
REMARK  6 active torsions:
REMARK  status: ('A' for Active; 'I' for Inactive)
REMARK    1  A    between atoms: C_1  and  C_2
REMARK    2  A    between atoms: C_4  and  C_5
REMARK    3  A    between atoms: C_4  and  C_6
REMARK    4  A    between atoms: N_10  and  C_11
REMARK    5  A    between atoms: C_17  and  S_18
REMARK    6  A    between atoms: S_18  and  N_19
REMARK                            x       y       z     vdW  Elec       q    Type
REMARK                         _______ _______ _______ _____ _____    ______ ____
ROOT
ATOM      1  C   UNL     1       5.221   4.349  18.181  0.00  0.00    +0.000 A 
ATOM      2  C   UNL     1       6.333   4.682  18.976  0.00  0.00    +0.000 A 
ATOM      3  C   UNL     1       7.539   5.107  18.425  0.00  0.00    +0.000 A 
ATOM      4  C   UNL     1       7.710   5.081  17.052  0.00  0.00    +0.000 A 
ATOM      5  C   UNL     1       6.670   4.664  16.214  0.00  0.00    +0.000 A 
ATOM      6  C   UNL     1       6.947   4.501  14.846  0.00  0.00    +0.000 A 
ATOM      7  C   UNL     1       5.949   4.059  13.988  0.00  0.00    +0.000 A 
ATOM      8  C   UNL     1       4.639   3.936  14.435  0.00  0.00    +0.000 A 
ATOM      9  C   UNL     1       4.356   4.140  15.794  0.00  0.00    +0.000 A 
ATOM     10  C   UNL     1       5.380   4.382  16.750  0.00  0.00    +0.000 A 
ENDROOT
BRANCH   1  20
ATOM     11  C   UNL     1       4.329   1.458  18.328  0.00  0.00    +0.000 C 
ATOM     12  C   UNL     1       3.550   2.601  18.929  0.00  0.00    +0.000 C 
ATOM     13  C   UNL     1       2.434   2.274  19.601  0.00  0.00    +0.000 C 
ATOM     14  C   UNL     1       1.610   3.224  20.399  0.00  0.00    +0.000 C 
ATOM     15  C   UNL     1       1.585   2.740  21.854  0.00  0.00    +0.000 C 
ATOM     16  C   UNL     1       0.182   3.288  19.840  0.00  0.00    +0.000 C 
ATOM     17  N   UNL     1       2.212   4.541  20.336  0.00  0.00    +0.000 N 
ATOM     18  C   UNL     1       3.101   4.950  19.370  0.00  0.00    +0.000 C 
ATOM     19  S   UNL     1       2.968   6.572  18.936  0.00  0.00    +0.000 S 
ATOM     20  N   UNL     1       3.971   3.952  18.850  0.00  0.00    +0.000 N 
ATOM     21  H   UNL     1       1.647   5.299  20.699  0.00  0.00    +0.000 HD
ENDBRANCH   1  20
BRANCH   7  22
ATOM     22  S   UNL     1       6.375   3.607  12.336  0.00  0.00    +0.000 S 
ATOM     23  O   UNL     1       7.286   4.584  11.789  0.00  0.00    +0.000 OA
ATOM     24  O   UNL     1       6.637   2.185  12.287  0.00  0.00    +0.000 OA
BRANCH  22  25
ATOM     25  N   UNL     1       4.911   3.839  11.551  0.00  0.00    +0.000 NA
ATOM     26  H   UNL     1       5.064   4.162  10.594  0.00  0.00    +0.000 HD
ATOM     27  H   UNL     1       4.319   3.016  11.632  0.00  0.00    +0.000 HD
ENDBRANCH  22  25
ENDBRANCH   7  22
TORSDOF 3
ENDMDL
MODEL 3
REMARK VINA RESULT:      -6.0     12.088     14.224
REMARK  Name = 
REMARK  6 active torsions:
REMARK  status: ('A' for Active; 'I' for Inactive)
REMARK    1  A    between atoms: C_1  and  C_2
REMARK    2  A    between atoms: C_4  and  C_5
REMARK    3  A    between atoms: C_4  and  C_6
REMARK    4  A    between atoms: N_10  and  C_11
REMARK    5  A    between atoms: C_17  and  S_18
REMARK    6  A    between atoms: S_18  and  N_19
REMARK                            x       y       z     vdW  Elec       q    Type
REMARK                         _______ _______ _______ _____ _____    ______ ____
ROOT
ATOM      1  C   UNL     1       5.202   4.661  18.449  0.00  0.00    +0.000 A 
ATOM      2  C   UNL     1       6.285   5.097  19.234  0.00  0.00    +0.000 A 
ATOM      3  C   UNL     1       7.465   5.577  18.671  0.00  0.00    +0.000 A 
ATOM      4  C   UNL     1       7.646   5.506  17.301  0.00  0.00    +0.000 A 
ATOM      5  C   UNL     1       6.641   4.989  16.477  0.00  0.00    +0.000 A 
ATOM      6  C   UNL     1       6.937   4.788  15.118  0.00  0.00    +0.000 A 
ATOM      7  C   UNL     1       5.975   4.248  14.274  0.00  0.00    +0.000 A 
ATOM      8  C   UNL     1       4.673   4.059  14.721  0.00  0.00    +0.000 A 
ATOM      9  C   UNL     1       4.369   4.299  16.069  0.00  0.00    +0.000 A 
ATOM     10  C   UNL     1       5.368   4.645  17.019  0.00  0.00    +0.000 A 
ENDROOT
BRANCH   1  20
ATOM     11  C   UNL     1       2.934   6.564  19.090  0.00  0.00    +0.000 C 
ATOM     12  C   UNL     1       2.907   5.094  19.426  0.00  0.00    +0.000 C 
ATOM     13  C   UNL     1       1.781   4.632  19.993  0.00  0.00    +0.000 C 
ATOM     14  C   UNL     1       1.487   3.196  20.258  0.00  0.00    +0.000 C 
ATOM     15  C   UNL     1       0.222   2.810  19.482  0.00  0.00    +0.000 C 
ATOM     16  C   UNL     1       1.274   2.965  21.760  0.00  0.00    +0.000 C 
ATOM     17  N   UNL     1       2.601   2.392  19.800  0.00  0.00    +0.000 N 
ATOM     18  C   UNL     1       3.873   2.868  19.583  0.00  0.00    +0.000 C 
ATOM     19  S   UNL     1       5.102   1.774  19.946  0.00  0.00    +0.000 S 
ATOM     20  N   UNL     1       3.976   4.212  19.128  0.00  0.00    +0.000 N 
ATOM     21  H   UNL     1       2.587   1.420  20.083  0.00  0.00    +0.000 HD
ENDBRANCH   1  20
BRANCH   7  22
ATOM     22  S   UNL     1       6.441   3.757  12.644  0.00  0.00    +0.000 S 
ATOM     23  O   UNL     1       7.388   4.705  12.108  0.00  0.00    +0.000 OA
ATOM     24  O   UNL     1       6.674   2.330  12.628  0.00  0.00    +0.000 OA
BRANCH  22  25
ATOM     25  N   UNL     1       5.006   4.005  11.811  0.00  0.00    +0.000 NA
ATOM     26  H   UNL     1       4.637   3.119  11.459  0.00  0.00    +0.000 HD
ATOM     27  H   UNL     1       4.350   4.548  12.368  0.00  0.00    +0.000 HD
ENDBRANCH  22  25
ENDBRANCH   7  22
TORSDOF 3
ENDMDL
MODEL 4
REMARK VINA RESULT:      -5.8      9.573     13.065
REMARK  Name = 
REMARK  6 active torsions:
REMARK  status: ('A' for Active; 'I' for Inactive)
REMARK    1  A    between atoms: C_1  and  C_2
REMARK    2  A    between atoms: C_4  and  C_5
REMARK    3  A    between atoms: C_4  and  C_6
REMARK    4  A    between atoms: N_10  and  C_11
REMARK    5  A    between atoms: C_17  and  S_18
REMARK    6  A    between atoms: S_18  and  N_19
REMARK                            x       y       z     vdW  Elec       q    Type
REMARK                         _______ _______ _______ _____ _____    ______ ____
ROOT
ATOM      1  C   UNL     1       3.537   4.509  19.092  0.00  0.00    +0.000 A 
ATOM      2  C   UNL     1       3.548   3.346  19.885  0.00  0.00    +0.000 A 
ATOM      3  C   UNL     1       2.734   3.203  21.005  0.00  0.00    +0.000 A 
ATOM      4  C   UNL     1       1.979   4.277  21.443  0.00  0.00    +0.000 A 
ATOM      5  C   UNL     1       2.004   5.492  20.751  0.00  0.00    +0.000 A 
ATOM      6  C   UNL     1       1.351   6.595  21.326  0.00  0.00    +0.000 A 
ATOM      7  C   UNL     1       1.379   7.826  20.684  0.00  0.00    +0.000 A 
ATOM      8  C   UNL     1       1.902   7.940  19.401  0.00  0.00    +0.000 A 
ATOM      9  C   UNL     1       2.516   6.826  18.811  0.00  0.00    +0.000 A 
ATOM     10  C   UNL     1       2.704   5.605  19.514  0.00  0.00    +0.000 A 
ENDROOT
BRANCH   1  20
ATOM     11  C   UNL     1       2.826   3.041  16.539  0.00  0.00    +0.000 C 
ATOM     12  C   UNL     1       4.070   3.879  16.699  0.00  0.00    +0.000 C 
ATOM     13  C   UNL     1       4.854   3.997  15.614  0.00  0.00    +0.000 C 
ATOM     14  C   UNL     1       6.035   4.898  15.510  0.00  0.00    +0.000 C 
ATOM     15  C   UNL     1       5.787   5.890  14.367  0.00  0.00    +0.000 C 
ATOM     16  C   UNL     1       7.304   4.080  15.232  0.00  0.00    +0.000 C 
ATOM     17  N   UNL     1       6.190   5.621  16.755  0.00  0.00    +0.000 N 
ATOM     18  C   UNL     1       5.648   5.234  17.959  0.00  0.00    +0.000 C 
ATOM     19  S   UNL     1       6.596   5.594  19.304  0.00  0.00    +0.000 S 
ATOM     20  N   UNL     1       4.398   4.557  17.900  0.00  0.00    +0.000 N 
ATOM     21  H   UNL     1       7.058   6.134  16.860  0.00  0.00    +0.000 HD
ENDBRANCH   1  20
BRANCH   7  22
ATOM     22  S   UNL     1       0.790   9.254  21.539  0.00  0.00    +0.000 S 
ATOM     23  O   UNL     1       0.962  10.419  20.704  0.00  0.00    +0.000 OA
ATOM     24  O   UNL     1      -0.465   8.937  22.183  0.00  0.00    +0.000 OA
BRANCH  22  25
ATOM     25  N   UNL     1       1.926   9.385  22.767  0.00  0.00    +0.000 NA
ATOM     26  H   UNL     1       2.519  10.204  22.621  0.00  0.00    +0.000 HD
ATOM     27  H   UNL     1       1.482   9.338  23.681  0.00  0.00    +0.000 HD
ENDBRANCH  22  25
ENDBRANCH   7  22
TORSDOF 3
ENDMDL
MODEL 5
REMARK VINA RESULT:      -5.8     11.407     13.572
REMARK  Name = 
REMARK  6 active torsions:
REMARK  status: ('A' for Active; 'I' for Inactive)
REMARK    1  A    between atoms: C_1  and  C_2
REMARK    2  A    between atoms: C_4  and  C_5
REMARK    3  A    between atoms: C_4  and  C_6
REMARK    4  A    between atoms: N_10  and  C_11
REMARK    5  A    between atoms: C_17  and  S_18
REMARK    6  A    between atoms: S_18  and  N_19
REMARK                            x       y       z     vdW  Elec       q    Type
REMARK                         _______ _______ _______ _____ _____    ______ ____
ROOT
ATOM      1  C   UNL     1       8.329  14.328  22.963  0.00  0.00    +0.000 A 
ATOM      2  C   UNL     1       9.107  15.311  23.602  0.00  0.00    +0.000 A 
ATOM      3  C   UNL     1       9.336  15.301  24.975  0.00  0.00    +0.000 A 
ATOM      4  C   UNL     1       8.678  14.380  25.770  0.00  0.00    +0.000 A 
ATOM      5  C   UNL     1       7.812  13.440  25.202  0.00  0.00    +0.000 A 
ATOM      6  C   UNL     1       7.046  12.637  26.064  0.00  0.00    +0.000 A 
ATOM      7  C   UNL     1       6.153  11.713  25.537  0.00  0.00    +0.000 A 
ATOM      8  C   UNL     1       6.129  11.457  24.171  0.00  0.00    +0.000 A 
ATOM      9  C   UNL     1       6.925  12.231  23.315  0.00  0.00    +0.000 A 
ATOM     10  C   UNL     1       7.692  13.332  23.785  0.00  0.00    +0.000 A 
ENDROOT
BRANCH   1  20
ATOM     11  C   UNL     1       5.983  15.729  21.654  0.00  0.00    +0.000 C 
ATOM     12  C   UNL     1       7.086  15.051  20.880  0.00  0.00    +0.000 C 
ATOM     13  C   UNL     1       7.015  15.138  19.541  0.00  0.00    +0.000 C 
ATOM     14  C   UNL     1       8.075  14.679  18.600  0.00  0.00    +0.000 C 
ATOM     15  C   UNL     1       8.553  15.887  17.784  0.00  0.00    +0.000 C 
ATOM     16  C   UNL     1       7.521  13.597  17.663  0.00  0.00    +0.000 C 
ATOM     17  N   UNL     1       9.182  14.138  19.361  0.00  0.00    +0.000 N 
ATOM     18  C   UNL     1       9.099  13.705  20.664  0.00  0.00    +0.000 C 
ATOM     19  S   UNL     1      10.086  12.389  21.029  0.00  0.00    +0.000 S 
ATOM     20  N   UNL     1       8.176  14.391  21.500  0.00  0.00    +0.000 N 
ATOM     21  H   UNL     1       9.883  13.641  18.824  0.00  0.00    +0.000 HD
ENDBRANCH   1  20
BRANCH   7  22
ATOM     22  S   UNL     1       5.014  10.907  26.618  0.00  0.00    +0.000 S 
ATOM     23  O   UNL     1       5.743  10.123  27.586  0.00  0.00    +0.000 OA
ATOM     24  O   UNL     1       3.976  11.841  26.994  0.00  0.00    +0.000 OA
BRANCH  22  25
ATOM     25  N   UNL     1       4.298   9.810  25.570  0.00  0.00    +0.000 NA
ATOM     26  H   UNL     1       3.293   9.749  25.745  0.00  0.00    +0.000 HD
ATOM     27  H   UNL     1       4.550  10.010  24.605  0.00  0.00    +0.000 HD
ENDBRANCH  22  25
ENDBRANCH   7  22
TORSDOF 3
ENDMDL
MODEL 6
REMARK VINA RESULT:      -5.8      1.367      2.056
REMARK  Name = 
REMARK  6 active torsions:
REMARK  status: ('A' for Active; 'I' for Inactive)
REMARK    1  A    between atoms: C_1  and  C_2
REMARK    2  A    between atoms: C_4  and  C_5
REMARK    3  A    between atoms: C_4  and  C_6
REMARK    4  A    between atoms: N_10  and  C_11
REMARK    5  A    between atoms: C_17  and  S_18
REMARK    6  A    between atoms: S_18  and  N_19
REMARK                            x       y       z     vdW  Elec       q    Type
REMARK                         _______ _______ _______ _____ _____    ______ ____
ROOT
ATOM      1  C   UNL     1      -5.319  13.501  21.834  0.00  0.00    +0.000 A 
ATOM      2  C   UNL     1      -6.717  13.420  21.970  0.00  0.00    +0.000 A 
ATOM      3  C   UNL     1      -7.492  12.570  21.186  0.00  0.00    +0.000 A 
ATOM      4  C   UNL     1      -6.903  11.873  20.146  0.00  0.00    +0.000 A 
ATOM      5  C   UNL     1      -5.531  11.992  19.898  0.00  0.00    +0.000 A 
ATOM      6  C   UNL     1      -5.014  11.395  18.736  0.00  0.00    +0.000 A 
ATOM      7  C   UNL     1      -3.662  11.517  18.440  0.00  0.00    +0.000 A 
ATOM      8  C   UNL     1      -2.787  12.078  19.363  0.00  0.00    +0.000 A 
ATOM      9  C   UNL     1      -3.300  12.636  20.543  0.00  0.00    +0.000 A 
ATOM     10  C   UNL     1      -4.697  12.729  20.789  0.00  0.00    +0.000 A 
ENDROOT
BRANCH   1  20
ATOM     11  C   UNL     1      -4.417  12.613  24.586  0.00  0.00    +0.000 C 
ATOM     12  C   UNL     1      -4.142  13.984  24.022  0.00  0.00    +0.000 C 
ATOM     13  C   UNL     1      -3.413  14.810  24.790  0.00  0.00    +0.000 C 
ATOM     14  C   UNL     1      -2.898  16.141  24.362  0.00  0.00    +0.000 C 
ATOM     15  C   UNL     1      -1.367  16.117  24.448  0.00  0.00    +0.000 C 
ATOM     16  C   UNL     1      -3.459  17.245  25.269  0.00  0.00    +0.000 C 
ATOM     17  N   UNL     1      -3.303  16.387  22.994  0.00  0.00    +0.000 N 
ATOM     18  C   UNL     1      -4.339  15.745  22.356  0.00  0.00    +0.000 C 
ATOM     19  S   UNL     1      -5.187  16.700  21.258  0.00  0.00    +0.000 S 
ATOM     20  N   UNL     1      -4.574  14.394  22.735  0.00  0.00    +0.000 N 
ATOM     21  H   UNL     1      -3.157  17.331  22.655  0.00  0.00    +0.000 HD
ENDBRANCH   1  20
BRANCH   7  22
ATOM     22  S   UNL     1      -3.079  10.997  16.857  0.00  0.00    +0.000 S 
ATOM     23  O   UNL     1      -2.535   9.665  16.959  0.00  0.00    +0.000 OA
ATOM     24  O   UNL     1      -4.049  11.367  15.850  0.00  0.00    +0.000 OA
BRANCH  22  25
ATOM     25  N   UNL     1      -1.770  12.024  16.644  0.00  0.00    +0.000 NA
ATOM     26  H   UNL     1      -1.549  12.510  17.515  0.00  0.00    +0.000 HD
ATOM     27  H   UNL     1      -0.986  11.532  16.220  0.00  0.00    +0.000 HD
ENDBRANCH  22  25
ENDBRANCH   7  22
TORSDOF 3
ENDMDL
MODEL 7
REMARK VINA RESULT:      -5.8      8.703     12.459
REMARK  Name = 
REMARK  6 active torsions:
REMARK  status: ('A' for Active; 'I' for Inactive)
REMARK    1  A    between atoms: C_1  and  C_2
REMARK    2  A    between atoms: C_4  and  C_5
REMARK    3  A    between atoms: C_4  and  C_6
REMARK    4  A    between atoms: N_10  and  C_11
REMARK    5  A    between atoms: C_17  and  S_18
REMARK    6  A    between atoms: S_18  and  N_19
REMARK                            x       y       z     vdW  Elec       q    Type
REMARK                         _______ _______ _______ _____ _____    ______ ____
ROOT
ATOM      1  C   UNL     1       3.282   5.894  18.666  0.00  0.00    +0.000 A 
ATOM      2  C   UNL     1       3.201   5.117  19.837  0.00  0.00    +0.000 A 
ATOM      3  C   UNL     1       2.380   5.467  20.906  0.00  0.00    +0.000 A 
ATOM      4  C   UNL     1       1.718   6.682  20.889  0.00  0.00    +0.000 A 
ATOM      5  C   UNL     1       1.841   7.544  19.793  0.00  0.00    +0.000 A 
ATOM      6  C   UNL     1       1.283   8.829  19.896  0.00  0.00    +0.000 A 
ATOM      7  C   UNL     1       1.410   9.723  18.841  0.00  0.00    +0.000 A 
ATOM      8  C   UNL     1       1.937   9.306  17.624  0.00  0.00    +0.000 A 
ATOM      9  C   UNL     1       2.455   8.009  17.510  0.00  0.00    +0.000 A 
ATOM     10  C   UNL     1       2.544   7.130  18.625  0.00  0.00    +0.000 A 
ENDROOT
BRANCH   1  20
ATOM     11  C   UNL     1       2.939   3.154  17.420  0.00  0.00    +0.000 C 
ATOM     12  C   UNL     1       3.983   4.147  16.974  0.00  0.00    +0.000 C 
ATOM     13  C   UNL     1       4.749   3.780  15.934  0.00  0.00    +0.000 C 
ATOM     14  C   UNL     1       5.726   4.665  15.240  0.00  0.00    +0.000 C 
ATOM     15  C   UNL     1       5.306   4.789  13.770  0.00  0.00    +0.000 C 
ATOM     16  C   UNL     1       7.139   4.076  15.337  0.00  0.00    +0.000 C 
ATOM     17  N   UNL     1       5.704   5.973  15.861  0.00  0.00    +0.000 N 
ATOM     18  C   UNL     1       5.226   6.232  17.125  0.00  0.00    +0.000 C 
ATOM     19  S   UNL     1       6.053   7.444  17.953  0.00  0.00    +0.000 S 
ATOM     20  N   UNL     1       4.142   5.425  17.568  0.00  0.00    +0.000 N 
ATOM     21  H   UNL     1       6.447   6.604  15.584  0.00  0.00    +0.000 HD
ENDBRANCH   1  20
BRANCH   7  22
ATOM     22  S   UNL     1       0.943  11.408  19.083  0.00  0.00    +0.000 S 
ATOM     23  O   UNL     1      -0.385  11.619  18.559  0.00  0.00    +0.000 OA
ATOM     24  O   UNL     1       1.331  11.821  20.413  0.00  0.00    +0.000 OA
BRANCH  22  25
ATOM     25  N   UNL     1       1.992  12.187  18.029  0.00  0.00    +0.000 NA
ATOM     26  H   UNL     1       2.951  12.139  18.377  0.00  0.00    +0.000 HD
ATOM     27  H   UNL     1       1.867  11.851  17.076  0.00  0.00    +0.000 HD
ENDBRANCH  22  25
ENDBRANCH   7  22
TORSDOF 3
ENDMDL
MODEL 8
REMARK VINA RESULT:      -5.7      4.304      6.940
REMARK  Name = 
REMARK  6 active torsions:
REMARK  status: ('A' for Active; 'I' for Inactive)
REMARK    1  A    between atoms: C_1  and  C_2
REMARK    2  A    between atoms: C_4  and  C_5
REMARK    3  A    between atoms: C_4  and  C_6
REMARK    4  A    between atoms: N_10  and  C_11
REMARK    5  A    between atoms: C_17  and  S_18
REMARK    6  A    between atoms: S_18  and  N_19
REMARK                            x       y       z     vdW  Elec       q    Type
REMARK                         _______ _______ _______ _____ _____    ______ ____
ROOT
ATOM      1  C   UNL     1      -1.288  12.178  19.817  0.00  0.00    +0.000 A 
ATOM      2  C   UNL     1      -0.732  11.036  20.422  0.00  0.00    +0.000 A 
ATOM      3  C   UNL     1       0.575  11.011  20.902  0.00  0.00    +0.000 A 
ATOM      4  C   UNL     1       1.410  12.088  20.667  0.00  0.00    +0.000 A 
ATOM      5  C   UNL     1       0.941  13.214  19.981  0.00  0.00    +0.000 A 
ATOM      6  C   UNL     1       1.869  14.207  19.626  0.00  0.00    +0.000 A 
ATOM      7  C   UNL     1       1.447  15.325  18.918  0.00  0.00    +0.000 A 
ATOM      8  C   UNL     1       0.093  15.553  18.702  0.00  0.00    +0.000 A 
ATOM      9  C   UNL     1      -0.836  14.579  19.094  0.00  0.00    +0.000 A 
ATOM     10  C   UNL     1      -0.436  13.323  19.627  0.00  0.00    +0.000 A 
ENDROOT
BRANCH   1  20
ATOM     11  C   UNL     1      -3.557  13.095  21.602  0.00  0.00    +0.000 C 
ATOM     12  C   UNL     1      -3.759  12.564  20.205  0.00  0.00    +0.000 C 
ATOM     13  C   UNL     1      -5.022  12.559  19.745  0.00  0.00    +0.000 C 
ATOM     14  C   UNL     1      -5.419  12.226  18.348  0.00  0.00    +0.000 C 
ATOM     15  C   UNL     1      -6.124  13.446  17.743  0.00  0.00    +0.000 C 
ATOM     16  C   UNL     1      -6.361  11.015  18.338  0.00  0.00    +0.000 C 
ATOM     17  N   UNL     1      -4.231  11.921  17.578  0.00  0.00    +0.000 N 
ATOM     18  C   UNL     1      -3.019  11.557  18.118  0.00  0.00    +0.000 C 
ATOM     19  S   UNL     1      -2.147  10.445  17.201  0.00  0.00    +0.000 S 
ATOM     20  N   UNL     1      -2.692  12.130  19.379  0.00  0.00    +0.000 N 
ATOM     21  H   UNL     1      -4.392  11.516  16.664  0.00  0.00    +0.000 HD
ENDBRANCH   1  20
BRANCH   7  22
ATOM     22  S   UNL     1       2.656  16.426  18.251  0.00  0.00    +0.000 S 
ATOM     23  O   UNL     1       1.998  17.443  17.467  0.00  0.00    +0.000 OA
ATOM     24  O   UNL     1       3.628  16.738  19.275  0.00  0.00    +0.000 OA
BRANCH  22  25
ATOM     25  N   UNL     1       3.436  15.422  17.157  0.00  0.00    +0.000 NA
ATOM     26  H   UNL     1       3.624  14.509  17.578  0.00  0.00    +0.000 HD
ATOM     27  H   UNL     1       2.936  15.388  16.272  0.00  0.00    +0.000 HD
ENDBRANCH  22  25
ENDBRANCH   7  22
TORSDOF 3
ENDMDL
MODEL 9
REMARK VINA RESULT:      -5.7      4.489      6.854
REMARK  Name = 
REMARK  6 active torsions:
REMARK  status: ('A' for Active; 'I' for Inactive)
REMARK    1  A    between atoms: C_1  and  C_2
REMARK    2  A    between atoms: C_4  and  C_5
REMARK    3  A    between atoms: C_4  and  C_6
REMARK    4  A    between atoms: N_10  and  C_11
REMARK    5  A    between atoms: C_17  and  S_18
REMARK    6  A    between atoms: S_18  and  N_19
REMARK                            x       y       z     vdW  Elec       q    Type
REMARK                         _______ _______ _______ _____ _____    ______ ____
ROOT
ATOM      1  C   UNL     1      -1.345  12.057  19.811  0.00  0.00    +0.000 A 
ATOM      2  C   UNL     1      -0.866  10.895  20.443  0.00  0.00    +0.000 A 
ATOM      3  C   UNL     1       0.424  10.807  20.958  0.00  0.00    +0.000 A 
ATOM      4  C   UNL     1       1.321  11.837  20.734  0.00  0.00    +0.000 A 
ATOM      5  C   UNL     1       0.930  12.978  20.024  0.00  0.00    +0.000 A 
ATOM      6  C   UNL     1       1.917  13.917  19.684  0.00  0.00    +0.000 A 
ATOM      7  C   UNL     1       1.574  15.047  18.953  0.00  0.00    +0.000 A 
ATOM      8  C   UNL     1       0.239  15.342  18.699  0.00  0.00    +0.000 A 
ATOM      9  C   UNL     1      -0.750  14.423  19.076  0.00  0.00    +0.000 A 
ATOM     10  C   UNL     1      -0.430  13.154  19.632  0.00  0.00    +0.000 A 
ENDROOT
BRANCH   1  20
ATOM     11  C   UNL     1      -2.109  11.093  17.042  0.00  0.00    +0.000 C 
ATOM     12  C   UNL     1      -3.105  11.621  18.045  0.00  0.00    +0.000 C 
ATOM     13  C   UNL     1      -4.395  11.599  17.671  0.00  0.00    +0.000 C 
ATOM     14  C   UNL     1      -5.546  11.924  18.560  0.00  0.00    +0.000 C 
ATOM     15  C   UNL     1      -6.452  10.690  18.649  0.00  0.00    +0.000 C 
ATOM     16  C   UNL     1      -6.332  13.116  17.998  0.00  0.00    +0.000 C 
ATOM     17  N   UNL     1      -5.046  12.254  19.880  0.00  0.00    +0.000 N 
ATOM     18  C   UNL     1      -3.755  12.643  20.153  0.00  0.00    +0.000 C 
ATOM     19  S   UNL     1      -3.611  13.772  21.395  0.00  0.00    +0.000 S 
ATOM     20  N   UNL     1      -2.738  12.077  19.336  0.00  0.00    +0.000 N 
ATOM     21  H   UNL     1      -5.722  12.656  20.517  0.00  0.00    +0.000 HD
ENDBRANCH   1  20
BRANCH   7  22
ATOM     22  S   UNL     1       2.855  16.075  18.308  0.00  0.00    +0.000 S 
ATOM     23  O   UNL     1       2.271  17.127  17.510  0.00  0.00    +0.000 OA
ATOM     24  O   UNL     1       3.824  16.335  19.350  0.00  0.00    +0.000 OA
BRANCH  22  25
ATOM     25  N   UNL     1       3.598  15.026  17.231  0.00  0.00    +0.000 NA
ATOM     26  H   UNL     1       3.036  14.924  16.384  0.00  0.00    +0.000 HD
ATOM     27  H   UNL     1       4.566  15.293  17.070  0.00  0.00    +0.000 HD
ENDBRANCH  22  25
ENDBRANCH   7  22
TORSDOF 3
ENDMDL
