MODEL 1
REMARK VINA RESULT:      -8.7      0.000      0.000
REMARK  Name = 
REMARK  9 active torsions:
REMARK  status: ('A' for Active; 'I' for Inactive)
REMARK    1  A    between atoms: C_2  and  C_27
REMARK    2  A    between atoms: N_3  and  C_4
REMARK    3  A    between atoms: C_4  and  C_5
REMARK    4  A    between atoms: C_9  and  C_10
REMARK    5  A    between atoms: C_14  and  C_15
REMARK    6  A    between atoms: C_24  and  O_25
REMARK    7  A    between atoms: C_27  and  C_28
REMARK    8  A    between atoms: C_27  and  C_30
REMARK    9  A    between atoms: C_28  and  O_29
REMARK                            x       y       z     vdW  Elec       q    Type
REMARK                         _______ _______ _______ _____ _____    ______ ____
ROOT
ATOM      1  C   UNL     1       2.039   7.500  19.593  0.00  0.00    +0.000 A 
ATOM      2  C   UNL     1       2.687   7.605  18.360  0.00  0.00    +0.000 A 
ATOM      3  C   UNL     1       2.538   8.757  17.590  0.00  0.00    +0.000 A 
ATOM      4  C   UNL     1       1.732   9.810  18.039  0.00  0.00    +0.000 A 
ATOM      5  C   UNL     1       1.066   9.746  19.276  0.00  0.00    +0.000 A 
ATOM      6  C   UNL     1       1.241   8.570  20.029  0.00  0.00    +0.000 A 
ENDROOT
BRANCH   5   7
ATOM      7  C   UNL     1       0.269  10.888  19.804  0.00  0.00    +0.000 A 
ATOM      8  C   UNL     1       0.877  11.839  20.648  0.00  0.00    +0.000 A 
ATOM      9  C   UNL     1       0.148  12.877  21.233  0.00  0.00    +0.000 A 
ATOM     10  C   UNL     1      -1.218  12.998  20.988  0.00  0.00    +0.000 A 
ATOM     11  C   UNL     1      -1.870  12.101  20.132  0.00  0.00    +0.000 A 
ATOM     12  C   UNL     1      -1.113  11.055  19.552  0.00  0.00    +0.000 A 
BRANCH  11  13
ATOM     13  C   UNL     1      -3.313  12.247  19.851  0.00  0.00    +0.000 A 
ATOM     14  C   UNL     1      -4.225  12.757  20.710  0.00  0.00    +0.000 A 
ATOM     15  C   UNL     1      -5.443  12.799  19.977  0.00  0.00    +0.000 A 
ATOM     16  C   UNL     1      -6.691  13.213  20.194  0.00  0.00    +0.000 A 
ATOM     17  N   UNL     1      -7.645  13.113  19.207  0.00  0.00    +0.000 N 
ATOM     18  C   UNL     1      -7.346  12.596  17.966  0.00  0.00    +0.000 A 
ATOM     19  C   UNL     1      -6.133  12.148  17.613  0.00  0.00    +0.000 A 
ATOM     20  C   UNL     1      -5.087  12.250  18.648  0.00  0.00    +0.000 A 
ATOM     21  N   UNL     1      -3.823  11.933  18.579  0.00  0.00    +0.000 NA
ATOM     22  H   UNL     1      -8.579  13.465  19.387  0.00  0.00    +0.000 HD
ENDBRANCH  11  13
BRANCH  12  23
ATOM     23  O   UNL     1      -1.734  10.173  18.691  0.00  0.00    +0.000 OA
ATOM     24  H   UNL     1      -1.088   9.966  17.979  0.00  0.00    +0.000 HD
ENDBRANCH  12  23
ENDBRANCH   5   7
BRANCH   1  25
ATOM     25  C   UNL     1       2.202   6.289  20.470  0.00  0.00    +0.000 C 
BRANCH  25  28
ATOM     26  O   UNL     1       1.640   4.141  18.836  0.00  0.00    +0.000 OA
ATOM     27  C   UNL     1       2.815   4.324  19.153  0.00  0.00    +0.000 C 
ATOM     28  N   UNL     1       3.199   5.365  19.976  0.00  0.00    +0.000 N 
ATOM     29  H   UNL     1       4.178   5.587  20.107  0.00  0.00    +0.000 HD
BRANCH  27  30
ATOM     30  C   UNL     1       3.936   3.399  18.686  0.00  0.00    +0.000 C 
BRANCH  30  31
ATOM     31  C   UNL     1       4.971   4.101  17.818  0.00  0.00    +0.000 A 
ATOM     32  C   UNL     1       4.682   4.392  16.474  0.00  0.00    +0.000 A 
ATOM     33  C   UNL     1       5.608   5.067  15.674  0.00  0.00    +0.000 A 
ATOM     34  C   UNL     1       6.831   5.468  16.204  0.00  0.00    +0.000 A 
ATOM     35  C   UNL     1       7.132   5.190  17.534  0.00  0.00    +0.000 A 
ATOM     36  C   UNL     1       6.212   4.508  18.332  0.00  0.00    +0.000 A 
ENDBRANCH  30  31
BRANCH  30  37
ATOM     37  C   UNL     1       3.322   2.161  17.994  0.00  0.00    +0.000 C 
BRANCH  37  38
ATOM     38  O   UNL     1       2.354   1.466  18.779  0.00  0.00    +0.000 OA
ATOM     39  H   UNL     1       2.159   2.039  19.552  0.00  0.00    +0.000 HD
ENDBRANCH  37  38
ENDBRANCH  30  37
ENDBRANCH  27  30
ENDBRANCH  25  28
ENDBRANCH   1  25
TORSDOF 9
ENDMDL
MODEL 2
REMARK VINA RESULT:      -8.5      2.347     11.104
REMARK  Name = 
REMARK  9 active torsions:
REMARK  status: ('A' for Active; 'I' for Inactive)
REMARK    1  A    between atoms: C_2  and  C_27
REMARK    2  A    between atoms: N_3  and  C_4
REMARK    3  A    between atoms: C_4  and  C_5
REMARK    4  A    between atoms: C_9  and  C_10
REMARK    5  A    between atoms: C_14  and  C_15
REMARK    6  A    between atoms: C_24  and  O_25
REMARK    7  A    between atoms: C_27  and  C_28
REMARK    8  A    between atoms: C_27  and  C_30
REMARK    9  A    between atoms: C_28  and  O_29
REMARK                            x       y       z     vdW  Elec       q    Type
REMARK                         _______ _______ _______ _____ _____    ______ ____
ROOT
ATOM      1  C   UNL     1      -1.632  11.860  21.705  0.00  0.00    +0.000 A 
ATOM      2  C   UNL     1      -1.560  11.380  23.014  0.00  0.00    +0.000 A 
ATOM      3  C   UNL     1      -0.717  10.313  23.321  0.00  0.00    +0.000 A 
ATOM      4  C   UNL     1       0.054   9.709  22.320  0.00  0.00    +0.000 A 
ATOM      5  C   UNL     1       0.015  10.165  20.991  0.00  0.00    +0.000 A 
ATOM      6  C   UNL     1      -0.845  11.246  20.717  0.00  0.00    +0.000 A 
ENDROOT
BRANCH   5   7
ATOM      7  C   UNL     1       0.886   9.586  19.931  0.00  0.00    +0.000 A 
ATOM      8  C   UNL     1       1.090  10.288  18.726  0.00  0.00    +0.000 A 
ATOM      9  C   UNL     1       1.830   9.747  17.674  0.00  0.00    +0.000 A 
ATOM     10  C   UNL     1       2.394   8.479  17.795  0.00  0.00    +0.000 A 
ATOM     11  C   UNL     1       2.253   7.747  18.981  0.00  0.00    +0.000 A 
ATOM     12  C   UNL     1       1.497   8.314  20.034  0.00  0.00    +0.000 A 
BRANCH  11  13
ATOM     13  C   UNL     1       2.876   6.414  19.118  0.00  0.00    +0.000 A 
ATOM     14  C   UNL     1       4.107   6.081  18.671  0.00  0.00    +0.000 A 
ATOM     15  C   UNL     1       4.317   4.747  19.118  0.00  0.00    +0.000 A 
ATOM     16  C   UNL     1       5.302   3.851  19.064  0.00  0.00    +0.000 A 
ATOM     17  N   UNL     1       5.156   2.613  19.648  0.00  0.00    +0.000 N 
ATOM     18  C   UNL     1       4.003   2.261  20.313  0.00  0.00    +0.000 A 
ATOM     19  C   UNL     1       2.939   3.066  20.446  0.00  0.00    +0.000 A 
ATOM     20  C   UNL     1       3.069   4.404  19.837  0.00  0.00    +0.000 A 
ATOM     21  N   UNL     1       2.224   5.398  19.840  0.00  0.00    +0.000 NA
ATOM     22  H   UNL     1       5.933   1.960  19.621  0.00  0.00    +0.000 HD
ENDBRANCH  11  13
BRANCH  12  23
ATOM     23  O   UNL     1       1.362   7.616  21.217  0.00  0.00    +0.000 OA
ATOM     24  H   UNL     1       1.131   6.690  20.979  0.00  0.00    +0.000 HD
ENDBRANCH  12  23
ENDBRANCH   5   7
BRANCH   1  25
ATOM     25  C   UNL     1      -2.502  13.031  21.339  0.00  0.00    +0.000 C 
BRANCH  25  28
ATOM     26  O   UNL     1      -5.111  12.387  21.957  0.00  0.00    +0.000 OA
ATOM     27  C   UNL     1      -4.793  12.400  20.767  0.00  0.00    +0.000 C 
ATOM     28  N   UNL     1      -3.509  12.699  20.355  0.00  0.00    +0.000 N 
ATOM     29  H   UNL     1      -3.303  12.849  19.375  0.00  0.00    +0.000 HD
BRANCH  27  30
ATOM     30  C   UNL     1      -5.785  12.059  19.658  0.00  0.00    +0.000 C 
BRANCH  30  31
ATOM     31  C   UNL     1      -6.184  13.264  18.818  0.00  0.00    +0.000 A 
ATOM     32  C   UNL     1      -6.394  13.119  17.436  0.00  0.00    +0.000 A 
ATOM     33  C   UNL     1      -6.795  14.208  16.657  0.00  0.00    +0.000 A 
ATOM     34  C   UNL     1      -7.000  15.453  17.244  0.00  0.00    +0.000 A 
ATOM     35  C   UNL     1      -6.800  15.612  18.612  0.00  0.00    +0.000 A 
ATOM     36  C   UNL     1      -6.390  14.529  19.391  0.00  0.00    +0.000 A 
ENDBRANCH  30  31
BRANCH  30  37
ATOM     37  C   UNL     1      -7.004  11.331  20.268  0.00  0.00    +0.000 C 
BRANCH  37  38
ATOM     38  O   UNL     1      -7.714  12.086  21.249  0.00  0.00    +0.000 OA
ATOM     39  H   UNL     1      -7.078  12.743  21.608  0.00  0.00    +0.000 HD
ENDBRANCH  37  38
ENDBRANCH  30  37
ENDBRANCH  27  30
ENDBRANCH  25  28
ENDBRANCH   1  25
TORSDOF 9
ENDMDL
MODEL 3
REMARK VINA RESULT:      -8.4      1.834      2.261
REMARK  Name = 
REMARK  9 active torsions:
REMARK  status: ('A' for Active; 'I' for Inactive)
REMARK    1  A    between atoms: C_2  and  C_27
REMARK    2  A    between atoms: N_3  and  C_4
REMARK    3  A    between atoms: C_4  and  C_5
REMARK    4  A    between atoms: C_9  and  C_10
REMARK    5  A    between atoms: C_14  and  C_15
REMARK    6  A    between atoms: C_24  and  O_25
REMARK    7  A    between atoms: C_27  and  C_28
REMARK    8  A    between atoms: C_27  and  C_30
REMARK    9  A    between atoms: C_28  and  O_29
REMARK                            x       y       z     vdW  Elec       q    Type
REMARK                         _______ _______ _______ _____ _____    ______ ____
ROOT
ATOM      1  C   UNL     1       2.018   7.517  19.574  0.00  0.00    +0.000 A 
ATOM      2  C   UNL     1       2.420   7.560  18.238  0.00  0.00    +0.000 A 
ATOM      3  C   UNL     1       2.296   8.742  17.510  0.00  0.00    +0.000 A 
ATOM      4  C   UNL     1       1.758   9.889  18.107  0.00  0.00    +0.000 A 
ATOM      5  C   UNL     1       1.345   9.888  19.451  0.00  0.00    +0.000 A 
ATOM      6  C   UNL     1       1.488   8.679  20.158  0.00  0.00    +0.000 A 
ENDROOT
BRANCH   5   7
ATOM      7  C   UNL     1       0.844  11.119  20.124  0.00  0.00    +0.000 A 
ATOM      8  C   UNL     1       1.659  12.267  20.187  0.00  0.00    +0.000 A 
ATOM      9  C   UNL     1       1.264  13.414  20.879  0.00  0.00    +0.000 A 
ATOM     10  C   UNL     1       0.034  13.448  21.532  0.00  0.00    +0.000 A 
ATOM     11  C   UNL     1      -0.832  12.349  21.477  0.00  0.00    +0.000 A 
ATOM     12  C   UNL     1      -0.411  11.196  20.772  0.00  0.00    +0.000 A 
BRANCH  11  13
ATOM     13  C   UNL     1      -2.148  12.397  22.147  0.00  0.00    +0.000 A 
ATOM     14  C   UNL     1      -2.348  12.278  23.479  0.00  0.00    +0.000 A 
ATOM     15  C   UNL     1      -3.742  12.493  23.666  0.00  0.00    +0.000 A 
ATOM     16  C   UNL     1      -4.582  12.556  24.698  0.00  0.00    +0.000 A 
ATOM     17  N   UNL     1      -5.920  12.813  24.498  0.00  0.00    +0.000 N 
ATOM     18  C   UNL     1      -6.433  13.022  23.238  0.00  0.00    +0.000 A 
ATOM     19  C   UNL     1      -5.701  12.991  22.116  0.00  0.00    +0.000 A 
ATOM     20  C   UNL     1      -4.261  12.726  22.298  0.00  0.00    +0.000 A 
ATOM     21  N   UNL     1      -3.310  12.676  21.406  0.00  0.00    +0.000 NA
ATOM     22  H   UNL     1      -6.533  12.888  25.304  0.00  0.00    +0.000 HD
ENDBRANCH  11  13
BRANCH  12  23
ATOM     23  O   UNL     1      -1.258  10.110  20.691  0.00  0.00    +0.000 OA
ATOM     24  H   UNL     1      -0.824   9.371  21.173  0.00  0.00    +0.000 HD
ENDBRANCH  12  23
ENDBRANCH   5   7
BRANCH   1  25
ATOM     25  C   UNL     1       2.167   6.271  20.405  0.00  0.00    +0.000 C 
BRANCH  25  28
ATOM     26  O   UNL     1       1.691   4.032  18.869  0.00  0.00    +0.000 OA
ATOM     27  C   UNL     1       2.862   4.297  19.143  0.00  0.00    +0.000 C 
ATOM     28  N   UNL     1       3.205   5.389  19.916  0.00  0.00    +0.000 N 
ATOM     29  H   UNL     1       4.172   5.674  20.009  0.00  0.00    +0.000 HD
BRANCH  27  30
ATOM     30  C   UNL     1       4.023   3.422  18.678  0.00  0.00    +0.000 C 
BRANCH  30  31
ATOM     31  C   UNL     1       5.037   4.173  17.826  0.00  0.00    +0.000 A 
ATOM     32  C   UNL     1       4.715   4.540  16.509  0.00  0.00    +0.000 A 
ATOM     33  C   UNL     1       5.622   5.261  15.727  0.00  0.00    +0.000 A 
ATOM     34  C   UNL     1       6.858   5.633  16.249  0.00  0.00    +0.000 A 
ATOM     35  C   UNL     1       7.190   5.280  17.554  0.00  0.00    +0.000 A 
ATOM     36  C   UNL     1       6.290   4.552  18.333  0.00  0.00    +0.000 A 
ENDBRANCH  30  31
BRANCH  30  37
ATOM     37  C   UNL     1       3.465   2.168  17.968  0.00  0.00    +0.000 C 
BRANCH  37  38
ATOM     38  O   UNL     1       2.526   1.421  18.740  0.00  0.00    +0.000 OA
ATOM     39  H   UNL     1       2.825   1.477  19.674  0.00  0.00    +0.000 HD
ENDBRANCH  37  38
ENDBRANCH  30  37
ENDBRANCH  27  30
ENDBRANCH  25  28
ENDBRANCH   1  25
TORSDOF 9
ENDMDL
MODEL 4
REMARK VINA RESULT:      -8.4      3.304      4.901
REMARK  Name = 
REMARK  9 active torsions:
REMARK  status: ('A' for Active; 'I' for Inactive)
REMARK    1  A    between atoms: C_2  and  C_27
REMARK    2  A    between atoms: N_3  and  C_4
REMARK    3  A    between atoms: C_4  and  C_5
REMARK    4  A    between atoms: C_9  and  C_10
REMARK    5  A    between atoms: C_14  and  C_15
REMARK    6  A    between atoms: C_24  and  O_25
REMARK    7  A    between atoms: C_27  and  C_28
REMARK    8  A    between atoms: C_27  and  C_30
REMARK    9  A    between atoms: C_28  and  O_29
REMARK                            x       y       z     vdW  Elec       q    Type
REMARK                         _______ _______ _______ _____ _____    ______ ____
ROOT
ATOM      1  C   UNL     1       3.145   3.589  19.349  0.00  0.00    +0.000 A 
ATOM      2  C   UNL     1       2.717   3.167  20.610  0.00  0.00    +0.000 A 
ATOM      3  C   UNL     1       2.078   4.063  21.465  0.00  0.00    +0.000 A 
ATOM      4  C   UNL     1       1.871   5.392  21.073  0.00  0.00    +0.000 A 
ATOM      5  C   UNL     1       2.282   5.854  19.811  0.00  0.00    +0.000 A 
ATOM      6  C   UNL     1       2.921   4.922  18.971  0.00  0.00    +0.000 A 
ENDROOT
BRANCH   5   7
ATOM      7  C   UNL     1       1.999   7.242  19.348  0.00  0.00    +0.000 A 
ATOM      8  C   UNL     1       2.348   7.631  18.039  0.00  0.00    +0.000 A 
ATOM      9  C   UNL     1       2.178   8.942  17.590  0.00  0.00    +0.000 A 
ATOM     10  C   UNL     1       1.649   9.909  18.441  0.00  0.00    +0.000 A 
ATOM     11  C   UNL     1       1.254   9.574  19.742  0.00  0.00    +0.000 A 
ATOM     12  C   UNL     1       1.437   8.240  20.177  0.00  0.00    +0.000 A 
BRANCH  11  13
ATOM     13  C   UNL     1       0.667  10.595  20.634  0.00  0.00    +0.000 A 
ATOM     14  C   UNL     1       1.043  11.893  20.684  0.00  0.00    +0.000 A 
ATOM     15  C   UNL     1       0.140  12.507  21.596  0.00  0.00    +0.000 A 
ATOM     16  C   UNL     1      -0.079  13.735  22.064  0.00  0.00    +0.000 A 
ATOM     17  N   UNL     1      -1.098  13.974  22.959  0.00  0.00    +0.000 N 
ATOM     18  C   UNL     1      -1.928  12.964  23.391  0.00  0.00    +0.000 A 
ATOM     19  C   UNL     1      -1.823  11.687  22.997  0.00  0.00    +0.000 A 
ATOM     20  C   UNL     1      -0.745  11.402  22.032  0.00  0.00    +0.000 A 
ATOM     21  N   UNL     1      -0.431  10.275  21.452  0.00  0.00    +0.000 NA
ATOM     22  H   UNL     1      -1.264  14.924  23.275  0.00  0.00    +0.000 HD
ENDBRANCH  11  13
BRANCH  12  23
ATOM     23  O   UNL     1       1.037   7.886  21.450  0.00  0.00    +0.000 OA
ATOM     24  H   UNL     1       0.912   8.721  21.953  0.00  0.00    +0.000 HD
ENDBRANCH  12  23
ENDBRANCH   5   7
BRANCH   1  25
ATOM     25  C   UNL     1       3.807   2.644  18.383  0.00  0.00    +0.000 C 
BRANCH  25  28
ATOM     26  O   UNL     1       3.938   3.836  15.900  0.00  0.00    +0.000 OA
ATOM     27  C   UNL     1       4.977   3.772  16.558  0.00  0.00    +0.000 C 
ATOM     28  N   UNL     1       5.019   3.185  17.807  0.00  0.00    +0.000 N 
ATOM     29  H   UNL     1       5.841   3.271  18.391  0.00  0.00    +0.000 HD
BRANCH  27  30
ATOM     30  C   UNL     1       6.305   4.309  16.032  0.00  0.00    +0.000 C 
BRANCH  30  31
ATOM     31  C   UNL     1       6.973   5.294  16.981  0.00  0.00    +0.000 A 
ATOM     32  C   UNL     1       7.034   6.658  16.651  0.00  0.00    +0.000 A 
ATOM     33  C   UNL     1       7.612   7.580  17.529  0.00  0.00    +0.000 A 
ATOM     34  C   UNL     1       8.131   7.156  18.749  0.00  0.00    +0.000 A 
ATOM     35  C   UNL     1       8.076   5.808  19.092  0.00  0.00    +0.000 A 
ATOM     36  C   UNL     1       7.507   4.884  18.213  0.00  0.00    +0.000 A 
ENDBRANCH  30  31
BRANCH  30  37
ATOM     37  C   UNL     1       6.095   4.897  14.618  0.00  0.00    +0.000 C 
BRANCH  37  38
ATOM     38  O   UNL     1       6.812   4.222  13.585  0.00  0.00    +0.000 OA
ATOM     39  H   UNL     1       6.944   4.877  12.865  0.00  0.00    +0.000 HD
ENDBRANCH  37  38
ENDBRANCH  30  37
ENDBRANCH  27  30
ENDBRANCH  25  28
ENDBRANCH   1  25
TORSDOF 9
ENDMDL
MODEL 5
REMARK VINA RESULT:      -8.4      3.247      4.942
REMARK  Name = 
REMARK  9 active torsions:
REMARK  status: ('A' for Active; 'I' for Inactive)
REMARK    1  A    between atoms: C_2  and  C_27
REMARK    2  A    between atoms: N_3  and  C_4
REMARK    3  A    between atoms: C_4  and  C_5
REMARK    4  A    between atoms: C_9  and  C_10
REMARK    5  A    between atoms: C_14  and  C_15
REMARK    6  A    between atoms: C_24  and  O_25
REMARK    7  A    between atoms: C_27  and  C_28
REMARK    8  A    between atoms: C_27  and  C_30
REMARK    9  A    between atoms: C_28  and  O_29
REMARK                            x       y       z     vdW  Elec       q    Type
REMARK                         _______ _______ _______ _____ _____    ______ ____
ROOT
ATOM      1  C   UNL     1       3.734   4.169  19.653  0.00  0.00    +0.000 A 
ATOM      2  C   UNL     1       2.884   3.469  20.511  0.00  0.00    +0.000 A 
ATOM      3  C   UNL     1       1.741   4.086  21.017  0.00  0.00    +0.000 A 
ATOM      4  C   UNL     1       1.444   5.412  20.680  0.00  0.00    +0.000 A 
ATOM      5  C   UNL     1       2.272   6.150  19.817  0.00  0.00    +0.000 A 
ATOM      6  C   UNL     1       3.415   5.495  19.321  0.00  0.00    +0.000 A 
ENDROOT
BRANCH   5   7
ATOM      7  C   UNL     1       1.929   7.534  19.385  0.00  0.00    +0.000 A 
ATOM      8  C   UNL     1       2.250   7.965  18.082  0.00  0.00    +0.000 A 
ATOM      9  C   UNL     1       2.023   9.277  17.663  0.00  0.00    +0.000 A 
ATOM     10  C   UNL     1       1.464  10.205  18.539  0.00  0.00    +0.000 A 
ATOM     11  C   UNL     1       1.094   9.826  19.836  0.00  0.00    +0.000 A 
ATOM     12  C   UNL     1       1.335   8.492  20.241  0.00  0.00    +0.000 A 
BRANCH  11  13
ATOM     13  C   UNL     1       0.475  10.804  20.755  0.00  0.00    +0.000 A 
ATOM     14  C   UNL     1       0.847  12.098  20.880  0.00  0.00    +0.000 A 
ATOM     15  C   UNL     1      -0.088  12.667  21.787  0.00  0.00    +0.000 A 
ATOM     16  C   UNL     1      -0.325  13.872  22.306  0.00  0.00    +0.000 A 
ATOM     17  N   UNL     1      -1.375  14.068  23.174  0.00  0.00    +0.000 N 
ATOM     18  C   UNL     1      -2.218  13.039  23.528  0.00  0.00    +0.000 A 
ATOM     19  C   UNL     1      -2.098  11.782  23.078  0.00  0.00    +0.000 A 
ATOM     20  C   UNL     1      -0.986  11.543  22.139  0.00  0.00    +0.000 A 
ATOM     21  N   UNL     1      -0.651  10.445  21.517  0.00  0.00    +0.000 NA
ATOM     22  H   UNL     1      -1.553  15.002  23.530  0.00  0.00    +0.000 HD
ENDBRANCH  11  13
BRANCH  12  23
ATOM     23  O   UNL     1       0.961   8.095  21.509  0.00  0.00    +0.000 OA
ATOM     24  H   UNL     1       0.103   7.624  21.420  0.00  0.00    +0.000 HD
ENDBRANCH  12  23
ENDBRANCH   5   7
BRANCH   1  25
ATOM     25  C   UNL     1       4.958   3.528  19.057  0.00  0.00    +0.000 C 
BRANCH  25  28
ATOM     26  O   UNL     1       4.270   3.829  16.404  0.00  0.00    +0.000 OA
ATOM     27  C   UNL     1       5.225   4.484  16.824  0.00  0.00    +0.000 C 
ATOM     28  N   UNL     1       5.655   4.396  18.133  0.00  0.00    +0.000 N 
ATOM     29  H   UNL     1       6.342   5.044  18.496  0.00  0.00    +0.000 HD
BRANCH  27  30
ATOM     30  C   UNL     1       6.025   5.421  15.923  0.00  0.00    +0.000 C 
BRANCH  30  31
ATOM     31  C   UNL     1       6.316   4.832  14.550  0.00  0.00    +0.000 A 
ATOM     32  C   UNL     1       5.410   3.930  13.965  0.00  0.00    +0.000 A 
ATOM     33  C   UNL     1       5.645   3.409  12.690  0.00  0.00    +0.000 A 
ATOM     34  C   UNL     1       6.781   3.783  11.977  0.00  0.00    +0.000 A 
ATOM     35  C   UNL     1       7.686   4.677  12.542  0.00  0.00    +0.000 A 
ATOM     36  C   UNL     1       7.458   5.193  13.818  0.00  0.00    +0.000 A 
ENDBRANCH  30  31
BRANCH  30  37
ATOM     37  C   UNL     1       7.307   5.868  16.661  0.00  0.00    +0.000 C 
BRANCH  37  38
ATOM     38  O   UNL     1       7.480   7.282  16.743  0.00  0.00    +0.000 OA
ATOM     39  H   UNL     1       7.914   7.558  15.906  0.00  0.00    +0.000 HD
ENDBRANCH  37  38
ENDBRANCH  30  37
ENDBRANCH  27  30
ENDBRANCH  25  28
ENDBRANCH   1  25
TORSDOF 9
ENDMDL
MODEL 6
REMARK VINA RESULT:      -8.2      2.520      4.653
REMARK  Name = 
REMARK  9 active torsions:
REMARK  status: ('A' for Active; 'I' for Inactive)
REMARK    1  A    between atoms: C_2  and  C_27
REMARK    2  A    between atoms: N_3  and  C_4
REMARK    3  A    between atoms: C_4  and  C_5
REMARK    4  A    between atoms: C_9  and  C_10
REMARK    5  A    between atoms: C_14  and  C_15
REMARK    6  A    between atoms: C_24  and  O_25
REMARK    7  A    between atoms: C_27  and  C_28
REMARK    8  A    between atoms: C_27  and  C_30
REMARK    9  A    between atoms: C_28  and  O_29
REMARK                            x       y       z     vdW  Elec       q    Type
REMARK                         _______ _______ _______ _____ _____    ______ ____
ROOT
ATOM      1  C   UNL     1       3.157   3.761  19.224  0.00  0.00    +0.000 A 
ATOM      2  C   UNL     1       2.713   3.337  20.478  0.00  0.00    +0.000 A 
ATOM      3  C   UNL     1       2.054   4.227  21.323  0.00  0.00    +0.000 A 
ATOM      4  C   UNL     1       1.841   5.554  20.928  0.00  0.00    +0.000 A 
ATOM      5  C   UNL     1       2.268   6.020  19.672  0.00  0.00    +0.000 A 
ATOM      6  C   UNL     1       2.927   5.093  18.842  0.00  0.00    +0.000 A 
ENDROOT
BRANCH   5   7
ATOM      7  C   UNL     1       1.980   7.405  19.204  0.00  0.00    +0.000 A 
ATOM      8  C   UNL     1       2.630   7.909  18.060  0.00  0.00    +0.000 A 
ATOM      9  C   UNL     1       2.454   9.227  17.634  0.00  0.00    +0.000 A 
ATOM     10  C   UNL     1       1.617  10.086  18.343  0.00  0.00    +0.000 A 
ATOM     11  C   UNL     1       0.920   9.631  19.470  0.00  0.00    +0.000 A 
ATOM     12  C   UNL     1       1.115   8.292  19.885  0.00  0.00    +0.000 A 
BRANCH  11  13
ATOM     13  C   UNL     1       0.011  10.535  20.205  0.00  0.00    +0.000 A 
ATOM     14  C   UNL     1      -0.897  11.358  19.633  0.00  0.00    +0.000 A 
ATOM     15  C   UNL     1      -1.605  11.942  20.720  0.00  0.00    +0.000 A 
ATOM     16  C   UNL     1      -2.625  12.787  20.870  0.00  0.00    +0.000 A 
ATOM     17  N   UNL     1      -3.074  13.127  22.125  0.00  0.00    +0.000 N 
ATOM     18  C   UNL     1      -2.499  12.606  23.263  0.00  0.00    +0.000 A 
ATOM     19  C   UNL     1      -1.472  11.745  23.256  0.00  0.00    +0.000 A 
ATOM     20  C   UNL     1      -0.973  11.354  21.924  0.00  0.00    +0.000 A 
ATOM     21  N   UNL     1      -0.023  10.516  21.610  0.00  0.00    +0.000 NA
ATOM     22  H   UNL     1      -3.874  13.747  22.211  0.00  0.00    +0.000 HD
ENDBRANCH  11  13
BRANCH  12  23
ATOM     23  O   UNL     1       0.422   7.820  20.982  0.00  0.00    +0.000 OA
ATOM     24  H   UNL     1       1.088   7.625  21.678  0.00  0.00    +0.000 HD
ENDBRANCH  12  23
ENDBRANCH   5   7
BRANCH   1  25
ATOM     25  C   UNL     1       3.841   2.823  18.268  0.00  0.00    +0.000 C 
BRANCH  25  28
ATOM     26  O   UNL     1       4.222   4.017  15.813  0.00  0.00    +0.000 OA
ATOM     27  C   UNL     1       5.199   3.916  16.555  0.00  0.00    +0.000 C 
ATOM     28  N   UNL     1       5.115   3.324  17.800  0.00  0.00    +0.000 N 
ATOM     29  H   UNL     1       5.887   3.380  18.453  0.00  0.00    +0.000 HD
BRANCH  27  30
ATOM     30  C   UNL     1       6.584   4.410  16.147  0.00  0.00    +0.000 C 
BRANCH  30  31
ATOM     31  C   UNL     1       7.133   5.489  17.070  0.00  0.00    +0.000 A 
ATOM     32  C   UNL     1       7.702   5.136  18.305  0.00  0.00    +0.000 A 
ATOM     33  C   UNL     1       8.243   6.112  19.147  0.00  0.00    +0.000 A 
ATOM     34  C   UNL     1       8.231   7.451  18.767  0.00  0.00    +0.000 A 
ATOM     35  C   UNL     1       7.674   7.817  17.545  0.00  0.00    +0.000 A 
ATOM     36  C   UNL     1       7.125   6.845  16.706  0.00  0.00    +0.000 A 
ENDBRANCH  30  31
BRANCH  30  37
ATOM     37  C   UNL     1       6.553   4.854  14.667  0.00  0.00    +0.000 C 
BRANCH  37  38
ATOM     38  O   UNL     1       7.819   5.252  14.143  0.00  0.00    +0.000 OA
ATOM     39  H   UNL     1       7.651   6.033  13.572  0.00  0.00    +0.000 HD
ENDBRANCH  37  38
ENDBRANCH  30  37
ENDBRANCH  27  30
ENDBRANCH  25  28
ENDBRANCH   1  25
TORSDOF 9
ENDMDL
MODEL 7
REMARK VINA RESULT:      -8.2      2.559     10.627
REMARK  Name = 
REMARK  9 active torsions:
REMARK  status: ('A' for Active; 'I' for Inactive)
REMARK    1  A    between atoms: C_2  and  C_27
REMARK    2  A    between atoms: N_3  and  C_4
REMARK    3  A    between atoms: C_4  and  C_5
REMARK    4  A    between atoms: C_9  and  C_10
REMARK    5  A    between atoms: C_14  and  C_15
REMARK    6  A    between atoms: C_24  and  O_25
REMARK    7  A    between atoms: C_27  and  C_28
REMARK    8  A    between atoms: C_27  and  C_30
REMARK    9  A    between atoms: C_28  and  O_29
REMARK                            x       y       z     vdW  Elec       q    Type
REMARK                         _______ _______ _______ _____ _____    ______ ____
ROOT
ATOM      1  C   UNL     1       0.371  10.583  19.968  0.00  0.00    +0.000 A 
ATOM      2  C   UNL     1      -0.009  10.839  21.287  0.00  0.00    +0.000 A 
ATOM      3  C   UNL     1       0.170   9.865  22.267  0.00  0.00    +0.000 A 
ATOM      4  C   UNL     1       0.720   8.620  21.936  0.00  0.00    +0.000 A 
ATOM      5  C   UNL     1       1.119   8.323  20.622  0.00  0.00    +0.000 A 
ATOM      6  C   UNL     1       0.927   9.332  19.658  0.00  0.00    +0.000 A 
ENDROOT
BRANCH   5   7
ATOM      7  C   UNL     1       1.778   7.035  20.268  0.00  0.00    +0.000 A 
ATOM      8  C   UNL     1       1.529   5.883  21.040  0.00  0.00    +0.000 A 
ATOM      9  C   UNL     1       2.187   4.676  20.796  0.00  0.00    +0.000 A 
ATOM     10  C   UNL     1       3.120   4.584  19.765  0.00  0.00    +0.000 A 
ATOM     11  C   UNL     1       3.385   5.687  18.944  0.00  0.00    +0.000 A 
ATOM     12  C   UNL     1       2.708   6.901  19.211  0.00  0.00    +0.000 A 
BRANCH  11  13
ATOM     13  C   UNL     1       4.354   5.580  17.834  0.00  0.00    +0.000 A 
ATOM     14  C   UNL     1       5.589   6.130  17.823  0.00  0.00    +0.000 A 
ATOM     15  C   UNL     1       6.187   5.677  16.615  0.00  0.00    +0.000 A 
ATOM     16  C   UNL     1       7.370   5.801  16.013  0.00  0.00    +0.000 A 
ATOM     17  N   UNL     1       7.612   5.181  14.808  0.00  0.00    +0.000 N 
ATOM     18  C   UNL     1       6.655   4.408  14.190  0.00  0.00    +0.000 A 
ATOM     19  C   UNL     1       5.428   4.195  14.687  0.00  0.00    +0.000 A 
ATOM     20  C   UNL     1       5.141   4.841  15.982  0.00  0.00    +0.000 A 
ATOM     21  N   UNL     1       4.062   4.782  16.714  0.00  0.00    +0.000 NA
ATOM     22  H   UNL     1       8.532   5.266  14.387  0.00  0.00    +0.000 HD
ENDBRANCH  11  13
BRANCH  12  23
ATOM     23  O   UNL     1       2.942   7.994  18.401  0.00  0.00    +0.000 OA
ATOM     24  H   UNL     1       2.768   8.795  18.944  0.00  0.00    +0.000 HD
ENDBRANCH  12  23
ENDBRANCH   5   7
BRANCH   1  25
ATOM     25  C   UNL     1       0.227  11.620  18.888  0.00  0.00    +0.000 C 
BRANCH  25  28
ATOM     26  O   UNL     1      -2.410  12.413  19.022  0.00  0.00    +0.000 OA
ATOM     27  C   UNL     1      -2.068  11.730  18.056  0.00  0.00    +0.000 C 
ATOM     28  N   UNL     1      -0.774  11.273  17.903  0.00  0.00    +0.000 N 
ATOM     29  H   UNL     1      -0.478  10.841  17.037  0.00  0.00    +0.000 HD
BRANCH  27  30
ATOM     30  C   UNL     1      -3.054  11.310  16.970  0.00  0.00    +0.000 C 
BRANCH  30  31
ATOM     31  C   UNL     1      -4.506  11.366  17.422  0.00  0.00    +0.000 A 
ATOM     32  C   UNL     1      -5.003  10.401  18.315  0.00  0.00    +0.000 A 
ATOM     33  C   UNL     1      -6.324  10.459  18.767  0.00  0.00    +0.000 A 
ATOM     34  C   UNL     1      -7.166  11.483  18.342  0.00  0.00    +0.000 A 
ATOM     35  C   UNL     1      -6.689  12.448  17.460  0.00  0.00    +0.000 A 
ATOM     36  C   UNL     1      -5.372  12.387  17.000  0.00  0.00    +0.000 A 
ENDBRANCH  30  31
BRANCH  30  37
ATOM     37  C   UNL     1      -2.654   9.920  16.426  0.00  0.00    +0.000 C 
BRANCH  37  38
ATOM     38  O   UNL     1      -3.019   9.690  15.066  0.00  0.00    +0.000 OA
ATOM     39  H   UNL     1      -2.885   8.732  14.900  0.00  0.00    +0.000 HD
ENDBRANCH  37  38
ENDBRANCH  30  37
ENDBRANCH  27  30
ENDBRANCH  25  28
ENDBRANCH   1  25
TORSDOF 9
ENDMDL
MODEL 8
REMARK VINA RESULT:      -8.2      0.697      1.406
REMARK  Name = 
REMARK  9 active torsions:
REMARK  status: ('A' for Active; 'I' for Inactive)
REMARK    1  A    between atoms: C_2  and  C_27
REMARK    2  A    between atoms: N_3  and  C_4
REMARK    3  A    between atoms: C_4  and  C_5
REMARK    4  A    between atoms: C_9  and  C_10
REMARK    5  A    between atoms: C_14  and  C_15
REMARK    6  A    between atoms: C_24  and  O_25
REMARK    7  A    between atoms: C_27  and  C_28
REMARK    8  A    between atoms: C_27  and  C_30
REMARK    9  A    between atoms: C_28  and  O_29
REMARK                            x       y       z     vdW  Elec       q    Type
REMARK                         _______ _______ _______ _____ _____    ______ ____
ROOT
ATOM      1  C   UNL     1       1.989   7.479  19.571  0.00  0.00    +0.000 A 
ATOM      2  C   UNL     1       2.601   7.557  18.319  0.00  0.00    +0.000 A 
ATOM      3  C   UNL     1       2.486   8.718  17.557  0.00  0.00    +0.000 A 
ATOM      4  C   UNL     1       1.749   9.809  18.035  0.00  0.00    +0.000 A 
ATOM      5  C   UNL     1       1.121   9.773  19.292  0.00  0.00    +0.000 A 
ATOM      6  C   UNL     1       1.260   8.585  20.037  0.00  0.00    +0.000 A 
ENDROOT
BRANCH   5   7
ATOM      7  C   UNL     1       0.400  10.951  19.849  0.00  0.00    +0.000 A 
ATOM      8  C   UNL     1       1.105  11.921  20.591  0.00  0.00    +0.000 A 
ATOM      9  C   UNL     1       0.456  12.996  21.201  0.00  0.00    +0.000 A 
ATOM     10  C   UNL     1      -0.925  13.136  21.087  0.00  0.00    +0.000 A 
ATOM     11  C   UNL     1      -1.674  12.222  20.335  0.00  0.00    +0.000 A 
ATOM     12  C   UNL     1      -0.996  11.138  19.727  0.00  0.00    +0.000 A 
BRANCH  11  13
ATOM     13  C   UNL     1      -3.135  12.388  20.192  0.00  0.00    +0.000 A 
ATOM     14  C   UNL     1      -3.823  12.255  19.035  0.00  0.00    +0.000 A 
ATOM     15  C   UNL     1      -5.191  12.394  19.399  0.00  0.00    +0.000 A 
ATOM     16  C   UNL     1      -6.369  12.334  18.779  0.00  0.00    +0.000 A 
ATOM     17  N   UNL     1      -7.541  12.506  19.482  0.00  0.00    +0.000 N 
ATOM     18  C   UNL     1      -7.540  12.734  20.839  0.00  0.00    +0.000 A 
ATOM     19  C   UNL     1      -6.429  12.814  21.585  0.00  0.00    +0.000 A 
ATOM     20  C   UNL     1      -5.157  12.625  20.862  0.00  0.00    +0.000 A 
ATOM     21  N   UNL     1      -3.937  12.612  21.325  0.00  0.00    +0.000 NA
ATOM     22  H   UNL     1      -8.426  12.423  18.992  0.00  0.00    +0.000 HD
ENDBRANCH  11  13
BRANCH  12  23
ATOM     23  O   UNL     1      -1.715  10.237  18.968  0.00  0.00    +0.000 OA
ATOM     24  H   UNL     1      -2.082  10.735  18.204  0.00  0.00    +0.000 HD
ENDBRANCH  12  23
ENDBRANCH   5   7
BRANCH   1  25
ATOM     25  C   UNL     1       2.118   6.257  20.439  0.00  0.00    +0.000 C 
BRANCH  25  28
ATOM     26  O   UNL     1       1.500   4.094  18.846  0.00  0.00    +0.000 OA
ATOM     27  C   UNL     1       2.683   4.266  19.141  0.00  0.00    +0.000 C 
ATOM     28  N   UNL     1       3.094   5.313  19.942  0.00  0.00    +0.000 N 
ATOM     29  H   UNL     1       4.078   5.524  20.053  0.00  0.00    +0.000 HD
BRANCH  27  30
ATOM     30  C   UNL     1       3.784   3.320  18.668  0.00  0.00    +0.000 C 
BRANCH  30  31
ATOM     31  C   UNL     1       4.838   4.005  17.810  0.00  0.00    +0.000 A 
ATOM     32  C   UNL     1       6.068   4.383  18.375  0.00  0.00    +0.000 A 
ATOM     33  C   UNL     1       7.060   4.980  17.592  0.00  0.00    +0.000 A 
ATOM     34  C   UNL     1       6.843   5.202  16.235  0.00  0.00    +0.000 A 
ATOM     35  C   UNL     1       5.631   4.831  15.659  0.00  0.00    +0.000 A 
ATOM     36  C   UNL     1       4.636   4.242  16.441  0.00  0.00    +0.000 A 
ENDBRANCH  30  31
BRANCH  30  37
ATOM     37  C   UNL     1       3.144   2.103  17.963  0.00  0.00    +0.000 C 
BRANCH  37  38
ATOM     38  O   UNL     1       2.204   1.385  18.761  0.00  0.00    +0.000 OA
ATOM     39  H   UNL     1       1.371   1.905  18.745  0.00  0.00    +0.000 HD
ENDBRANCH  37  38
ENDBRANCH  30  37
ENDBRANCH  27  30
ENDBRANCH  25  28
ENDBRANCH   1  25
TORSDOF 9
ENDMDL
MODEL 9
REMARK VINA RESULT:      -8.1      2.377     10.696
REMARK  Name = 
REMARK  9 active torsions:
REMARK  status: ('A' for Active; 'I' for Inactive)
REMARK    1  A    between atoms: C_2  and  C_27
REMARK    2  A    between atoms: N_3  and  C_4
REMARK    3  A    between atoms: C_4  and  C_5
REMARK    4  A    between atoms: C_9  and  C_10
REMARK    5  A    between atoms: C_14  and  C_15
REMARK    6  A    between atoms: C_24  and  O_25
REMARK    7  A    between atoms: C_27  and  C_28
REMARK    8  A    between atoms: C_27  and  C_30
REMARK    9  A    between atoms: C_28  and  O_29
REMARK                            x       y       z     vdW  Elec       q    Type
REMARK                         _______ _______ _______ _____ _____    ______ ____
ROOT
ATOM      1  C   UNL     1      -1.587  11.897  18.239  0.00  0.00    +0.000 A 
ATOM      2  C   UNL     1      -0.778  13.028  18.111  0.00  0.00    +0.000 A 
ATOM      3  C   UNL     1       0.571  12.964  18.456  0.00  0.00    +0.000 A 
ATOM      4  C   UNL     1       1.121  11.772  18.944  0.00  0.00    +0.000 A 
ATOM      5  C   UNL     1       0.342  10.610  19.084  0.00  0.00    +0.000 A 
ATOM      6  C   UNL     1      -1.015  10.710  18.722  0.00  0.00    +0.000 A 
ENDROOT
BRANCH   5   7
ATOM      7  C   UNL     1       0.928   9.314  19.526  0.00  0.00    +0.000 A 
ATOM      8  C   UNL     1       0.696   8.848  20.836  0.00  0.00    +0.000 A 
ATOM      9  C   UNL     1       1.293   7.681  21.318  0.00  0.00    +0.000 A 
ATOM     10  C   UNL     1       2.145   6.941  20.502  0.00  0.00    +0.000 A 
ATOM     11  C   UNL     1       2.388   7.339  19.181  0.00  0.00    +0.000 A 
ATOM     12  C   UNL     1       1.774   8.525  18.713  0.00  0.00    +0.000 A 
BRANCH  11  13
ATOM     13  C   UNL     1       3.270   6.538  18.307  0.00  0.00    +0.000 A 
ATOM     14  C   UNL     1       3.241   5.190  18.199  0.00  0.00    +0.000 A 
ATOM     15  C   UNL     1       4.179   4.880  17.175  0.00  0.00    +0.000 A 
ATOM     16  C   UNL     1       4.607   3.781  16.554  0.00  0.00    +0.000 A 
ATOM     17  N   UNL     1       5.550   3.863  15.555  0.00  0.00    +0.000 N 
ATOM     18  C   UNL     1       6.075   5.072  15.156  0.00  0.00    +0.000 A 
ATOM     19  C   UNL     1       5.730   6.251  15.692  0.00  0.00    +0.000 A 
ATOM     20  C   UNL     1       4.715   6.197  16.760  0.00  0.00    +0.000 A 
ATOM     21  N   UNL     1       4.165   7.174  17.429  0.00  0.00    +0.000 NA
ATOM     22  H   UNL     1       5.836   3.015  15.075  0.00  0.00    +0.000 HD
ENDBRANCH  11  13
BRANCH  12  23
ATOM     23  O   UNL     1       1.987   8.923  17.408  0.00  0.00    +0.000 OA
ATOM     24  H   UNL     1       1.333   8.443  16.852  0.00  0.00    +0.000 HD
ENDBRANCH  12  23
ENDBRANCH   5   7
BRANCH   1  25
ATOM     25  C   UNL     1      -3.038  11.915  17.843  0.00  0.00    +0.000 C 
BRANCH  25  28
ATOM     26  O   UNL     1      -5.418  10.800  18.676  0.00  0.00    +0.000 OA
ATOM     27  C   UNL     1      -5.062  11.849  19.212  0.00  0.00    +0.000 C 
ATOM     28  N   UNL     1      -3.892  12.493  18.858  0.00  0.00    +0.000 N 
ATOM     29  H   UNL     1      -3.543  13.270  19.405  0.00  0.00    +0.000 HD
BRANCH  27  30
ATOM     30  C   UNL     1      -5.899  12.537  20.287  0.00  0.00    +0.000 C 
BRANCH  30  31
ATOM     31  C   UNL     1      -5.179  12.656  21.624  0.00  0.00    +0.000 A 
ATOM     32  C   UNL     1      -5.911  12.912  22.796  0.00  0.00    +0.000 A 
ATOM     33  C   UNL     1      -5.270  12.988  24.035  0.00  0.00    +0.000 A 
ATOM     34  C   UNL     1      -3.893  12.804  24.125  0.00  0.00    +0.000 A 
ATOM     35  C   UNL     1      -3.154  12.546  22.973  0.00  0.00    +0.000 A 
ATOM     36  C   UNL     1      -3.791  12.478  21.733  0.00  0.00    +0.000 A 
ENDBRANCH  30  31
BRANCH  30  37
ATOM     37  C   UNL     1      -7.263  11.821  20.409  0.00  0.00    +0.000 C 
BRANCH  37  38
ATOM     38  O   UNL     1      -7.180  10.457  20.819  0.00  0.00    +0.000 OA
ATOM     39  H   UNL     1      -6.320  10.118  20.486  0.00  0.00    +0.000 HD
ENDBRANCH  37  38
ENDBRANCH  30  37
ENDBRANCH  27  30
ENDBRANCH  25  28
ENDBRANCH   1  25
TORSDOF 9
ENDMDL
