MODEL 1
REMARK VINA RESULT:      -8.1      0.000      0.000
REMARK  Name = 
REMARK  9 active torsions:
REMARK  status: ('A' for Active; 'I' for Inactive)
REMARK    1  A    between atoms: C_1  and  O_2
REMARK    2  A    between atoms: O_2  and  C_3
REMARK    3  A    between atoms: C_5  and  C_6
REMARK    4  A    between atoms: C_12  and  C_13
REMARK    5  A    between atoms: C_17  and  C_18
REMARK    6  A    between atoms: C_24  and  O_25
REMARK    7  A    between atoms: O_25  and  C_26
REMARK    8  A    between atoms: C_27  and  O_28
REMARK    9  A    between atoms: O_28  and  C_29
REMARK                            x       y       z     vdW  Elec       q    Type
REMARK                         _______ _______ _______ _____ _____    ______ ____
ROOT
ATOM      1  C   UNL     1       1.727   8.618  19.092  0.00  0.00    +0.000 A 
ATOM      2  N   UNL     1       1.767   8.961  17.791  0.00  0.00    +0.000 NA
ATOM      3  N   UNL     1       1.748  10.260  17.820  0.00  0.00    +0.000 N 
ATOM      4  C   UNL     1       0.973  10.838  18.778  0.00  0.00    +0.000 A 
ATOM      5  C   UNL     1       0.359  12.106  18.714  0.00  0.00    +0.000 A 
ATOM      6  C   UNL     1      -0.209  12.710  19.833  0.00  0.00    +0.000 A 
ATOM      7  C   UNL     1      -0.164  12.104  21.090  0.00  0.00    +0.000 A 
ATOM      8  C   UNL     1       0.575  10.744  21.130  0.00  0.00    +0.000 A 
ATOM      9  C   UNL     1       1.079   9.980  19.866  0.00  0.00    +0.000 A 
ATOM     10  H   UNL     1       2.327  10.766  17.151  0.00  0.00    +0.000 HD
ENDROOT
BRANCH   1  13
ATOM     11  C   UNL     1       2.584   4.674  20.237  0.00  0.00    +0.000 A 
ATOM     12  C   UNL     1       2.099   6.072  20.264  0.00  0.00    +0.000 A 
ATOM     13  C   UNL     1       2.310   7.114  19.165  0.00  0.00    +0.000 A 
ATOM     14  C   UNL     1       3.015   6.600  18.105  0.00  0.00    +0.000 A 
ATOM     15  C   UNL     1       3.471   5.248  18.051  0.00  0.00    +0.000 A 
ATOM     16  C   UNL     1       3.295   4.270  19.091  0.00  0.00    +0.000 A 
BRANCH  11  18
ATOM     17  C   UNL     1       1.402   2.765  21.364  0.00  0.00    +0.000 C 
ATOM     18  O   UNL     1       2.475   3.701  21.216  0.00  0.00    +0.000 OA
ENDBRANCH  11  18
BRANCH  15  19
ATOM     19  O   UNL     1       4.198   5.054  16.896  0.00  0.00    +0.000 OA
ATOM     20  C   UNL     1       5.377   5.817  16.697  0.00  0.00    +0.000 C 
ENDBRANCH  15  19
BRANCH  16  21
ATOM     21  O   UNL     1       3.914   3.089  18.798  0.00  0.00    +0.000 OA
ATOM     22  C   UNL     1       3.427   1.860  18.298  0.00  0.00    +0.000 C 
ENDBRANCH  16  21
ENDBRANCH   1  13
BRANCH   7  23
ATOM     23  C   UNL     1      -0.983  12.907  22.205  0.00  0.00    +0.000 A 
ATOM     24  C   UNL     1      -0.635  14.149  22.754  0.00  0.00    +0.000 A 
ATOM     25  C   UNL     1      -1.400  14.788  23.785  0.00  0.00    +0.000 A 
ATOM     26  C   UNL     1      -2.574  14.222  24.300  0.00  0.00    +0.000 A 
ATOM     27  C   UNL     1      -3.024  13.032  23.753  0.00  0.00    +0.000 A 
ATOM     28  C   UNL     1      -2.256  12.416  22.709  0.00  0.00    +0.000 A 
BRANCH  27  29
ATOM     29  C   UNL     1      -4.217  12.451  24.320  0.00  0.00    +0.000 C 
ATOM     30  N   UNL     1      -5.224  12.075  24.715  0.00  0.00    +0.000 NA
ENDBRANCH  27  29
ENDBRANCH   7  23
TORSDOF 6
ENDMDL
MODEL 2
REMARK VINA RESULT:      -8.0      4.083     10.916
REMARK  Name = 
REMARK  9 active torsions:
REMARK  status: ('A' for Active; 'I' for Inactive)
REMARK    1  A    between atoms: C_1  and  O_2
REMARK    2  A    between atoms: O_2  and  C_3
REMARK    3  A    between atoms: C_5  and  C_6
REMARK    4  A    between atoms: C_12  and  C_13
REMARK    5  A    between atoms: C_17  and  C_18
REMARK    6  A    between atoms: C_24  and  O_25
REMARK    7  A    between atoms: O_25  and  C_26
REMARK    8  A    between atoms: C_27  and  O_28
REMARK    9  A    between atoms: O_28  and  C_29
REMARK                            x       y       z     vdW  Elec       q    Type
REMARK                         _______ _______ _______ _____ _____    ______ ____
ROOT
ATOM      1  C   UNL     1       2.441   7.423  19.055  0.00  0.00    +0.000 A 
ATOM      2  N   UNL     1       2.120   6.511  19.991  0.00  0.00    +0.000 NA
ATOM      3  N   UNL     1       3.121   5.683  19.961  0.00  0.00    +0.000 N 
ATOM      4  C   UNL     1       3.663   5.422  18.740  0.00  0.00    +0.000 A 
ATOM      5  C   UNL     1       4.332   4.243  18.349  0.00  0.00    +0.000 A 
ATOM      6  C   UNL     1       5.060   4.166  17.164  0.00  0.00    +0.000 A 
ATOM      7  C   UNL     1       5.196   5.269  16.319  0.00  0.00    +0.000 A 
ATOM      8  C   UNL     1       4.501   6.559  16.816  0.00  0.00    +0.000 A 
ATOM      9  C   UNL     1       3.555   6.627  18.055  0.00  0.00    +0.000 A 
ATOM     10  H   UNL     1       3.458   5.301  20.844  0.00  0.00    +0.000 HD
ENDROOT
BRANCH   1  13
ATOM     11  C   UNL     1      -0.034  10.805  18.862  0.00  0.00    +0.000 A 
ATOM     12  C   UNL     1       0.813   9.659  18.464  0.00  0.00    +0.000 A 
ATOM     13  C   UNL     1       1.582   8.741  19.417  0.00  0.00    +0.000 A 
ATOM     14  C   UNL     1       1.392   9.097  20.729  0.00  0.00    +0.000 A 
ATOM     15  C   UNL     1       0.560  10.184  21.132  0.00  0.00    +0.000 A 
ATOM     16  C   UNL     1      -0.147  11.064  20.241  0.00  0.00    +0.000 A 
BRANCH  11  18
ATOM     17  C   UNL     1      -2.073  11.603  17.630  0.00  0.00    +0.000 C 
ATOM     18  O   UNL     1      -0.709  11.703  18.053  0.00  0.00    +0.000 OA
ENDBRANCH  11  18
BRANCH  15  19
ATOM     19  O   UNL     1       0.623  10.328  22.502  0.00  0.00    +0.000 OA
ATOM     20  C   UNL     1      -0.200   9.504  23.312  0.00  0.00    +0.000 C 
ENDBRANCH  15  19
BRANCH  16  21
ATOM     21  O   UNL     1      -0.789  12.067  20.908  0.00  0.00    +0.000 OA
ATOM     22  C   UNL     1      -2.101  12.176  21.424  0.00  0.00    +0.000 C 
ENDBRANCH  16  21
ENDBRANCH   1  13
BRANCH   7  23
ATOM     23  C   UNL     1       5.963   4.926  14.957  0.00  0.00    +0.000 A 
ATOM     24  C   UNL     1       7.172   5.488  14.523  0.00  0.00    +0.000 A 
ATOM     25  C   UNL     1       7.777   5.160  13.266  0.00  0.00    +0.000 A 
ATOM     26  C   UNL     1       7.210   4.227  12.387  0.00  0.00    +0.000 A 
ATOM     27  C   UNL     1       6.056   3.573  12.780  0.00  0.00    +0.000 A 
ATOM     28  C   UNL     1       5.473   3.899  14.050  0.00  0.00    +0.000 A 
BRANCH  27  29
ATOM     29  C   UNL     1       5.471   2.640  11.848  0.00  0.00    +0.000 C 
ATOM     30  N   UNL     1       5.107   1.836  11.117  0.00  0.00    +0.000 NA
ENDBRANCH  27  29
ENDBRANCH   7  23
TORSDOF 6
ENDMDL
MODEL 3
REMARK VINA RESULT:      -7.8      0.602      2.318
REMARK  Name = 
REMARK  9 active torsions:
REMARK  status: ('A' for Active; 'I' for Inactive)
REMARK    1  A    between atoms: C_1  and  O_2
REMARK    2  A    between atoms: O_2  and  C_3
REMARK    3  A    between atoms: C_5  and  C_6
REMARK    4  A    between atoms: C_12  and  C_13
REMARK    5  A    between atoms: C_17  and  C_18
REMARK    6  A    between atoms: C_24  and  O_25
REMARK    7  A    between atoms: O_25  and  C_26
REMARK    8  A    between atoms: C_27  and  O_28
REMARK    9  A    between atoms: O_28  and  C_29
REMARK                            x       y       z     vdW  Elec       q    Type
REMARK                         _______ _______ _______ _____ _____    ______ ____
ROOT
ATOM      1  C   UNL     1       1.803   8.742  18.891  0.00  0.00    +0.000 A 
ATOM      2  N   UNL     1       1.715   9.073  17.589  0.00  0.00    +0.000 NA
ATOM      3  N   UNL     1       1.597  10.366  17.614  0.00  0.00    +0.000 N 
ATOM      4  C   UNL     1       0.858  10.895  18.626  0.00  0.00    +0.000 A 
ATOM      5  C   UNL     1       0.145  12.112  18.604  0.00  0.00    +0.000 A 
ATOM      6  C   UNL     1      -0.378  12.683  19.762  0.00  0.00    +0.000 A 
ATOM      7  C   UNL     1      -0.187  12.097  21.014  0.00  0.00    +0.000 A 
ATOM      8  C   UNL     1       0.654  10.798  21.003  0.00  0.00    +0.000 A 
ATOM      9  C   UNL     1       1.115  10.060  19.707  0.00  0.00    +0.000 A 
ATOM     10  H   UNL     1       2.081  10.908  16.898  0.00  0.00    +0.000 HD
ENDROOT
BRANCH   1  13
ATOM     11  C   UNL     1       4.288   5.443  18.160  0.00  0.00    +0.000 A 
ATOM     12  C   UNL     1       3.619   6.756  18.025  0.00  0.00    +0.000 A 
ATOM     13  C   UNL     1       2.504   7.289  18.927  0.00  0.00    +0.000 A 
ATOM     14  C   UNL     1       2.181   6.395  19.918  0.00  0.00    +0.000 A 
ATOM     15  C   UNL     1       2.832   5.135  20.077  0.00  0.00    +0.000 A 
ATOM     16  C   UNL     1       3.865   4.619  19.220  0.00  0.00    +0.000 A 
BRANCH  11  18
ATOM     17  C   UNL     1       5.041   4.195  16.114  0.00  0.00    +0.000 C 
ATOM     18  O   UNL     1       5.261   4.880  17.351  0.00  0.00    +0.000 OA
ENDBRANCH  11  18
BRANCH  15  19
ATOM     19  O   UNL     1       2.245   4.443  21.115  0.00  0.00    +0.000 OA
ATOM     20  C   UNL     1       1.116   3.629  20.839  0.00  0.00    +0.000 C 
ENDBRANCH  15  19
BRANCH  16  21
ATOM     21  O   UNL     1       4.234   3.351  19.564  0.00  0.00    +0.000 OA
ATOM     22  C   UNL     1       3.885   2.085  19.041  0.00  0.00    +0.000 C 
ENDBRANCH  16  21
ENDBRANCH   1  13
BRANCH   7  23
ATOM     23  C   UNL     1      -0.976  12.848  22.186  0.00  0.00    +0.000 A 
ATOM     24  C   UNL     1      -0.584  14.036  22.819  0.00  0.00    +0.000 A 
ATOM     25  C   UNL     1      -1.324  14.627  23.895  0.00  0.00    +0.000 A 
ATOM     26  C   UNL     1      -2.516  14.067  24.376  0.00  0.00    +0.000 A 
ATOM     27  C   UNL     1      -3.008  12.935  23.749  0.00  0.00    +0.000 A 
ATOM     28  C   UNL     1      -2.265  12.366  22.661  0.00  0.00    +0.000 A 
BRANCH  27  29
ATOM     29  C   UNL     1      -4.219  12.356  24.279  0.00  0.00    +0.000 C 
ATOM     30  N   UNL     1      -5.222  12.008  24.709  0.00  0.00    +0.000 NA
ENDBRANCH  27  29
ENDBRANCH   7  23
TORSDOF 6
ENDMDL
MODEL 4
REMARK VINA RESULT:      -7.8      1.475      2.830
REMARK  Name = 
REMARK  9 active torsions:
REMARK  status: ('A' for Active; 'I' for Inactive)
REMARK    1  A    between atoms: C_1  and  O_2
REMARK    2  A    between atoms: O_2  and  C_3
REMARK    3  A    between atoms: C_5  and  C_6
REMARK    4  A    between atoms: C_12  and  C_13
REMARK    5  A    between atoms: C_17  and  C_18
REMARK    6  A    between atoms: C_24  and  O_25
REMARK    7  A    between atoms: O_25  and  C_26
REMARK    8  A    between atoms: C_27  and  O_28
REMARK    9  A    between atoms: O_28  and  C_29
REMARK                            x       y       z     vdW  Elec       q    Type
REMARK                         _______ _______ _______ _____ _____    ______ ____
ROOT
ATOM      1  C   UNL     1       1.752   8.781  18.782  0.00  0.00    +0.000 A 
ATOM      2  N   UNL     1       2.078   9.370  17.616  0.00  0.00    +0.000 NA
ATOM      3  N   UNL     1       1.864  10.631  17.845  0.00  0.00    +0.000 N 
ATOM      4  C   UNL     1       0.792  10.937  18.626  0.00  0.00    +0.000 A 
ATOM      5  C   UNL     1       0.038  12.130  18.594  0.00  0.00    +0.000 A 
ATOM      6  C   UNL     1      -0.882  12.449  19.589  0.00  0.00    +0.000 A 
ATOM      7  C   UNL     1      -1.076  11.620  20.695  0.00  0.00    +0.000 A 
ATOM      8  C   UNL     1      -0.185  10.355  20.725  0.00  0.00    +0.000 A 
ATOM      9  C   UNL     1       0.735   9.900  19.549  0.00  0.00    +0.000 A 
ATOM     10  H   UNL     1       2.517  11.310  17.455  0.00  0.00    +0.000 HD
ENDROOT
BRANCH   1  13
ATOM     11  C   UNL     1       4.338   5.588  17.935  0.00  0.00    +0.000 A 
ATOM     12  C   UNL     1       3.617   6.876  17.838  0.00  0.00    +0.000 A 
ATOM     13  C   UNL     1       2.508   7.354  18.776  0.00  0.00    +0.000 A 
ATOM     14  C   UNL     1       2.244   6.435  19.762  0.00  0.00    +0.000 A 
ATOM     15  C   UNL     1       2.946   5.198  19.885  0.00  0.00    +0.000 A 
ATOM     16  C   UNL     1       3.974   4.733  18.993  0.00  0.00    +0.000 A 
BRANCH  11  18
ATOM     17  C   UNL     1       5.080   4.298  15.911  0.00  0.00    +0.000 C 
ATOM     18  O   UNL     1       5.308   5.074  17.092  0.00  0.00    +0.000 OA
ENDBRANCH  11  18
BRANCH  15  19
ATOM     19  O   UNL     1       2.414   4.470  20.928  0.00  0.00    +0.000 OA
ATOM     20  C   UNL     1       1.178   3.801  20.730  0.00  0.00    +0.000 C 
ENDBRANCH  15  19
BRANCH  16  21
ATOM     21  O   UNL     1       4.400   3.476  19.308  0.00  0.00    +0.000 OA
ATOM     22  C   UNL     1       3.995   2.197  18.861  0.00  0.00    +0.000 C 
ENDBRANCH  16  21
ENDBRANCH   1  13
BRANCH   7  23
ATOM     23  C   UNL     1      -2.264  12.111  21.647  0.00  0.00    +0.000 A 
ATOM     24  C   UNL     1      -2.302  12.005  23.046  0.00  0.00    +0.000 A 
ATOM     25  C   UNL     1      -3.425  12.431  23.829  0.00  0.00    +0.000 A 
ATOM     26  C   UNL     1      -4.561  13.011  23.249  0.00  0.00    +0.000 A 
ATOM     27  C   UNL     1      -4.566  13.218  21.880  0.00  0.00    +0.000 A 
ATOM     28  C   UNL     1      -3.426  12.804  21.112  0.00  0.00    +0.000 A 
BRANCH  27  29
ATOM     29  C   UNL     1      -5.758  13.787  21.299  0.00  0.00    +0.000 C 
ATOM     30  N   UNL     1      -6.762  14.146  20.880  0.00  0.00    +0.000 NA
ENDBRANCH  27  29
ENDBRANCH   7  23
TORSDOF 6
ENDMDL
MODEL 5
REMARK VINA RESULT:      -7.7      1.397      1.617
REMARK  Name = 
REMARK  9 active torsions:
REMARK  status: ('A' for Active; 'I' for Inactive)
REMARK    1  A    between atoms: C_1  and  O_2
REMARK    2  A    between atoms: O_2  and  C_3
REMARK    3  A    between atoms: C_5  and  C_6
REMARK    4  A    between atoms: C_12  and  C_13
REMARK    5  A    between atoms: C_17  and  C_18
REMARK    6  A    between atoms: C_24  and  O_25
REMARK    7  A    between atoms: O_25  and  C_26
REMARK    8  A    between atoms: C_27  and  O_28
REMARK    9  A    between atoms: O_28  and  C_29
REMARK                            x       y       z     vdW  Elec       q    Type
REMARK                         _______ _______ _______ _____ _____    ______ ____
ROOT
ATOM      1  C   UNL     1       1.733   8.513  18.899  0.00  0.00    +0.000 A 
ATOM      2  N   UNL     1       2.137   9.063  17.739  0.00  0.00    +0.000 NA
ATOM      3  N   UNL     1       2.004  10.338  17.946  0.00  0.00    +0.000 N 
ATOM      4  C   UNL     1       0.930  10.728  18.686  0.00  0.00    +0.000 A 
ATOM      5  C   UNL     1       0.263  11.969  18.615  0.00  0.00    +0.000 A 
ATOM      6  C   UNL     1      -0.665  12.365  19.575  0.00  0.00    +0.000 A 
ATOM      7  C   UNL     1      -0.953  11.566  20.683  0.00  0.00    +0.000 A 
ATOM      8  C   UNL     1      -0.154  10.244  20.757  0.00  0.00    +0.000 A 
ATOM      9  C   UNL     1       0.771   9.710  19.619  0.00  0.00    +0.000 A 
ATOM     10  H   UNL     1       2.715  10.965  17.571  0.00  0.00    +0.000 HD
ENDROOT
BRANCH   1  13
ATOM     11  C   UNL     1       2.759   4.579  19.931  0.00  0.00    +0.000 A 
ATOM     12  C   UNL     1       2.205   5.949  19.994  0.00  0.00    +0.000 A 
ATOM     13  C   UNL     1       2.387   7.037  18.935  0.00  0.00    +0.000 A 
ATOM     14  C   UNL     1       3.138   6.595  17.874  0.00  0.00    +0.000 A 
ATOM     15  C   UNL     1       3.661   5.269  17.786  0.00  0.00    +0.000 A 
ATOM     16  C   UNL     1       3.512   4.249  18.788  0.00  0.00    +0.000 A 
BRANCH  11  18
ATOM     17  C   UNL     1       1.488   2.886  21.285  0.00  0.00    +0.000 C 
ATOM     18  O   UNL     1       2.678   3.569  20.874  0.00  0.00    +0.000 OA
ENDBRANCH  11  18
BRANCH  15  19
ATOM     19  O   UNL     1       4.420   5.150  16.641  0.00  0.00    +0.000 OA
ATOM     20  C   UNL     1       5.293   6.212  16.290  0.00  0.00    +0.000 C 
ENDBRANCH  15  19
BRANCH  16  21
ATOM     21  O   UNL     1       4.194   3.111  18.470  0.00  0.00    +0.000 OA
ATOM     22  C   UNL     1       3.762   1.824  18.072  0.00  0.00    +0.000 C 
ENDBRANCH  16  21
ENDBRANCH   1  13
BRANCH   7  23
ATOM     23  C   UNL     1      -2.136  12.151  21.589  0.00  0.00    +0.000 A 
ATOM     24  C   UNL     1      -2.196  12.122  22.990  0.00  0.00    +0.000 A 
ATOM     25  C   UNL     1      -3.313  12.630  23.732  0.00  0.00    +0.000 A 
ATOM     26  C   UNL     1      -4.419  13.219  23.104  0.00  0.00    +0.000 A 
ATOM     27  C   UNL     1      -4.397  13.352  21.726  0.00  0.00    +0.000 A 
ATOM     28  C   UNL     1      -3.264  12.856  21.000  0.00  0.00    +0.000 A 
BRANCH  27  29
ATOM     29  C   UNL     1      -5.559  13.932  21.096  0.00  0.00    +0.000 C 
ATOM     30  N   UNL     1      -6.525  14.282  20.589  0.00  0.00    +0.000 NA
ENDBRANCH  27  29
ENDBRANCH   7  23
TORSDOF 6
ENDMDL
MODEL 6
REMARK VINA RESULT:      -7.7      1.302      2.886
REMARK  Name = 
REMARK  9 active torsions:
REMARK  status: ('A' for Active; 'I' for Inactive)
REMARK    1  A    between atoms: C_1  and  O_2
REMARK    2  A    between atoms: O_2  and  C_3
REMARK    3  A    between atoms: C_5  and  C_6
REMARK    4  A    between atoms: C_12  and  C_13
REMARK    5  A    between atoms: C_17  and  C_18
REMARK    6  A    between atoms: C_24  and  O_25
REMARK    7  A    between atoms: O_25  and  C_26
REMARK    8  A    between atoms: C_27  and  O_28
REMARK    9  A    between atoms: O_28  and  C_29
REMARK                            x       y       z     vdW  Elec       q    Type
REMARK                         _______ _______ _______ _____ _____    ______ ____
ROOT
ATOM      1  C   UNL     1       1.861   8.636  18.844  0.00  0.00    +0.000 A 
ATOM      2  N   UNL     1       1.960   9.113  17.589  0.00  0.00    +0.000 NA
ATOM      3  N   UNL     1       1.867  10.399  17.746  0.00  0.00    +0.000 N 
ATOM      4  C   UNL     1       1.006  10.837  18.704  0.00  0.00    +0.000 A 
ATOM      5  C   UNL     1       0.327  12.074  18.726  0.00  0.00    +0.000 A 
ATOM      6  C   UNL     1      -0.340  12.530  19.861  0.00  0.00    +0.000 A 
ATOM      7  C   UNL     1      -0.336  11.801  21.051  0.00  0.00    +0.000 A 
ATOM      8  C   UNL     1       0.473  10.483  21.004  0.00  0.00    +0.000 A 
ATOM      9  C   UNL     1       1.094   9.878  19.706  0.00  0.00    +0.000 A 
ATOM     10  H   UNL     1       2.456  10.999  17.170  0.00  0.00    +0.000 HD
ENDROOT
BRANCH   1  13
ATOM     11  C   UNL     1       4.173   5.275  17.865  0.00  0.00    +0.000 A 
ATOM     12  C   UNL     1       3.531   6.607  17.801  0.00  0.00    +0.000 A 
ATOM     13  C   UNL     1       2.521   7.163  18.805  0.00  0.00    +0.000 A 
ATOM     14  C   UNL     1       2.266   6.271  19.817  0.00  0.00    +0.000 A 
ATOM     15  C   UNL     1       2.893   4.992  19.909  0.00  0.00    +0.000 A 
ATOM     16  C   UNL     1       3.827   4.454  18.956  0.00  0.00    +0.000 A 
BRANCH  11  18
ATOM     17  C   UNL     1       6.479   4.750  17.016  0.00  0.00    +0.000 C 
ATOM     18  O   UNL     1       5.049   4.692  16.965  0.00  0.00    +0.000 OA
ENDBRANCH  11  18
BRANCH  15  19
ATOM     19  O   UNL     1       2.387   4.308  20.993  0.00  0.00    +0.000 OA
ATOM     20  C   UNL     1       1.175   3.586  20.837  0.00  0.00    +0.000 C 
ENDBRANCH  15  19
BRANCH  16  21
ATOM     21  O   UNL     1       4.191   3.174  19.257  0.00  0.00    +0.000 OA
ATOM     22  C   UNL     1       3.754   1.923  18.765  0.00  0.00    +0.000 C 
ENDBRANCH  16  21
ENDBRANCH   1  13
BRANCH   7  23
ATOM     23  C   UNL     1      -1.264  12.444  22.184  0.00  0.00    +0.000 A 
ATOM     24  C   UNL     1      -2.512  11.962  22.605  0.00  0.00    +0.000 A 
ATOM     25  C   UNL     1      -3.307  12.620  23.600  0.00  0.00    +0.000 A 
ATOM     26  C   UNL     1      -2.877  13.788  24.245  0.00  0.00    +0.000 A 
ATOM     27  C   UNL     1      -1.621  14.282  23.938  0.00  0.00    +0.000 A 
ATOM     28  C   UNL     1      -0.830  13.600  22.953  0.00  0.00    +0.000 A 
BRANCH  27  29
ATOM     29  C   UNL     1      -1.210  15.502  24.590  0.00  0.00    +0.000 C 
ATOM     30  N   UNL     1      -0.852  16.403  25.200  0.00  0.00    +0.000 NA
ENDBRANCH  27  29
ENDBRANCH   7  23
TORSDOF 6
ENDMDL
MODEL 7
REMARK VINA RESULT:      -7.7      4.099     10.792
REMARK  Name = 
REMARK  9 active torsions:
REMARK  status: ('A' for Active; 'I' for Inactive)
REMARK    1  A    between atoms: C_1  and  O_2
REMARK    2  A    between atoms: O_2  and  C_3
REMARK    3  A    between atoms: C_5  and  C_6
REMARK    4  A    between atoms: C_12  and  C_13
REMARK    5  A    between atoms: C_17  and  C_18
REMARK    6  A    between atoms: C_24  and  O_25
REMARK    7  A    between atoms: O_25  and  C_26
REMARK    8  A    between atoms: C_27  and  O_28
REMARK    9  A    between atoms: O_28  and  C_29
REMARK                            x       y       z     vdW  Elec       q    Type
REMARK                         _______ _______ _______ _____ _____    ______ ____
ROOT
ATOM      1  C   UNL     1       2.519   7.006  19.138  0.00  0.00    +0.000 A 
ATOM      2  N   UNL     1       1.982   6.008  19.864  0.00  0.00    +0.000 NA
ATOM      3  N   UNL     1       2.841   5.042  19.730  0.00  0.00    +0.000 N 
ATOM      4  C   UNL     1       3.436   4.917  18.512  0.00  0.00    +0.000 A 
ATOM      5  C   UNL     1       3.944   3.733  17.939  0.00  0.00    +0.000 A 
ATOM      6  C   UNL     1       4.747   3.748  16.801  0.00  0.00    +0.000 A 
ATOM      7  C   UNL     1       5.124   4.946  16.192  0.00  0.00    +0.000 A 
ATOM      8  C   UNL     1       4.600   6.224  16.888  0.00  0.00    +0.000 A 
ATOM      9  C   UNL     1       3.575   6.226  18.066  0.00  0.00    +0.000 A 
ATOM     10  H   UNL     1       3.038   4.456  20.540  0.00  0.00    +0.000 HD
ENDROOT
BRANCH   1  13
ATOM     11  C   UNL     1       0.845   9.960  21.602  0.00  0.00    +0.000 A 
ATOM     12  C   UNL     1       1.371   8.664  21.121  0.00  0.00    +0.000 A 
ATOM     13  C   UNL     1       1.848   8.364  19.699  0.00  0.00    +0.000 A 
ATOM     14  C   UNL     1       1.741   9.463  18.884  0.00  0.00    +0.000 A 
ATOM     15  C   UNL     1       1.258  10.728  19.336  0.00  0.00    +0.000 A 
ATOM     16  C   UNL     1       0.788  11.011  20.666  0.00  0.00    +0.000 A 
BRANCH  11  18
ATOM     17  C   UNL     1      -1.025  10.260  23.252  0.00  0.00    +0.000 C 
ATOM     18  O   UNL     1       0.349  10.282  22.854  0.00  0.00    +0.000 OA
ENDBRANCH  11  18
BRANCH  15  19
ATOM     19  O   UNL     1       1.211  11.608  18.276  0.00  0.00    +0.000 OA
ATOM     20  C   UNL     1       2.290  12.510  18.091  0.00  0.00    +0.000 C 
ENDBRANCH  15  19
BRANCH  16  21
ATOM     21  O   UNL     1       0.303  12.281  20.782  0.00  0.00    +0.000 OA
ATOM     22  C   UNL     1      -1.004  12.811  20.678  0.00  0.00    +0.000 C 
ENDBRANCH  16  21
ENDBRANCH   1  13
BRANCH   7  23
ATOM     23  C   UNL     1       5.940   4.729  14.832  0.00  0.00    +0.000 A 
ATOM     24  C   UNL     1       7.055   5.467  14.409  0.00  0.00    +0.000 A 
ATOM     25  C   UNL     1       7.708   5.240  13.153  0.00  0.00    +0.000 A 
ATOM     26  C   UNL     1       7.289   4.240  12.265  0.00  0.00    +0.000 A 
ATOM     27  C   UNL     1       6.242   3.420  12.647  0.00  0.00    +0.000 A 
ATOM     28  C   UNL     1       5.611   3.647  13.916  0.00  0.00    +0.000 A 
BRANCH  27  29
ATOM     29  C   UNL     1       5.806   2.417  11.705  0.00  0.00    +0.000 C 
ATOM     30  N   UNL     1       5.460   1.545  11.048  0.00  0.00    +0.000 NA
ENDBRANCH  27  29
ENDBRANCH   7  23
TORSDOF 6
ENDMDL
MODEL 8
REMARK VINA RESULT:      -7.7      1.268      1.715
REMARK  Name = 
REMARK  9 active torsions:
REMARK  status: ('A' for Active; 'I' for Inactive)
REMARK    1  A    between atoms: C_1  and  O_2
REMARK    2  A    between atoms: O_2  and  C_3
REMARK    3  A    between atoms: C_5  and  C_6
REMARK    4  A    between atoms: C_12  and  C_13
REMARK    5  A    between atoms: C_17  and  C_18
REMARK    6  A    between atoms: C_24  and  O_25
REMARK    7  A    between atoms: O_25  and  C_26
REMARK    8  A    between atoms: C_27  and  O_28
REMARK    9  A    between atoms: O_28  and  C_29
REMARK                            x       y       z     vdW  Elec       q    Type
REMARK                         _______ _______ _______ _____ _____    ______ ____
ROOT
ATOM      1  C   UNL     1       1.531   8.760  19.264  0.00  0.00    +0.000 A 
ATOM      2  N   UNL     1       1.650   9.212  18.002  0.00  0.00    +0.000 NA
ATOM      3  N   UNL     1       1.572  10.502  18.135  0.00  0.00    +0.000 N 
ATOM      4  C   UNL     1       0.705  10.969  19.074  0.00  0.00    +0.000 A 
ATOM      5  C   UNL     1       0.042  12.214  19.066  0.00  0.00    +0.000 A 
ATOM      6  C   UNL     1      -0.632  12.700  20.184  0.00  0.00    +0.000 A 
ATOM      7  C   UNL     1      -0.651  11.993  21.387  0.00  0.00    +0.000 A 
ATOM      8  C   UNL     1       0.141  10.664  21.373  0.00  0.00    +0.000 A 
ATOM      9  C   UNL     1       0.769  10.027  20.094  0.00  0.00    +0.000 A 
ATOM     10  H   UNL     1       2.176  11.084  17.555  0.00  0.00    +0.000 HD
ENDROOT
BRANCH   1  13
ATOM     11  C   UNL     1       2.537   4.797  20.200  0.00  0.00    +0.000 A 
ATOM     12  C   UNL     1       1.996   6.170  20.300  0.00  0.00    +0.000 A 
ATOM     13  C   UNL     1       2.172   7.278  19.260  0.00  0.00    +0.000 A 
ATOM     14  C   UNL     1       2.902   6.851  18.179  0.00  0.00    +0.000 A 
ATOM     15  C   UNL     1       3.411   5.523  18.055  0.00  0.00    +0.000 A 
ATOM     16  C   UNL     1       3.269   4.483  19.039  0.00  0.00    +0.000 A 
BRANCH  11  18
ATOM     17  C   UNL     1       1.415   2.796  21.226  0.00  0.00    +0.000 C 
ATOM     18  O   UNL     1       2.461   3.768  21.124  0.00  0.00    +0.000 OA
ENDBRANCH  11  18
BRANCH  15  19
ATOM     19  O   UNL     1       4.151   5.420  16.897  0.00  0.00    +0.000 OA
ATOM     20  C   UNL     1       5.038   6.476  16.559  0.00  0.00    +0.000 C 
ENDBRANCH  15  19
BRANCH  16  21
ATOM     21  O   UNL     1       3.935   3.346  18.687  0.00  0.00    +0.000 OA
ATOM     22  C   UNL     1       3.501   2.132  18.106  0.00  0.00    +0.000 C 
ENDBRANCH  16  21
ENDBRANCH   1  13
BRANCH   7  23
ATOM     23  C   UNL     1      -1.584  12.669  22.497  0.00  0.00    +0.000 A 
ATOM     24  C   UNL     1      -2.868  12.245  22.869  0.00  0.00    +0.000 A 
ATOM     25  C   UNL     1      -3.663  12.930  23.846  0.00  0.00    +0.000 A 
ATOM     26  C   UNL     1      -3.196  14.066  24.522  0.00  0.00    +0.000 A 
ATOM     27  C   UNL     1      -1.907  14.500  24.263  0.00  0.00    +0.000 A 
ATOM     28  C   UNL     1      -1.118  13.791  23.297  0.00  0.00    +0.000 A 
BRANCH  27  29
ATOM     29  C   UNL     1      -1.458  15.689  24.946  0.00  0.00    +0.000 C 
ATOM     30  N   UNL     1      -1.036  16.562  25.556  0.00  0.00    +0.000 NA
ENDBRANCH  27  29
ENDBRANCH   7  23
TORSDOF 6
ENDMDL
MODEL 9
REMARK VINA RESULT:      -7.6      3.985     10.834
REMARK  Name = 
REMARK  9 active torsions:
REMARK  status: ('A' for Active; 'I' for Inactive)
REMARK    1  A    between atoms: C_1  and  O_2
REMARK    2  A    between atoms: O_2  and  C_3
REMARK    3  A    between atoms: C_5  and  C_6
REMARK    4  A    between atoms: C_12  and  C_13
REMARK    5  A    between atoms: C_17  and  C_18
REMARK    6  A    between atoms: C_24  and  O_25
REMARK    7  A    between atoms: O_25  and  C_26
REMARK    8  A    between atoms: C_27  and  O_28
REMARK    9  A    between atoms: O_28  and  C_29
REMARK                            x       y       z     vdW  Elec       q    Type
REMARK                         _______ _______ _______ _____ _____    ______ ____
ROOT
ATOM      1  C   UNL     1       2.335   7.455  19.300  0.00  0.00    +0.000 A 
ATOM      2  N   UNL     1       2.020   6.560  20.255  0.00  0.00    +0.000 NA
ATOM      3  N   UNL     1       2.999   5.708  20.206  0.00  0.00    +0.000 N 
ATOM      4  C   UNL     1       3.499   5.421  18.973  0.00  0.00    +0.000 A 
ATOM      5  C   UNL     1       4.128   4.222  18.576  0.00  0.00    +0.000 A 
ATOM      6  C   UNL     1       4.819   4.115  17.371  0.00  0.00    +0.000 A 
ATOM      7  C   UNL     1       4.958   5.205  16.511  0.00  0.00    +0.000 A 
ATOM      8  C   UNL     1       4.309   6.517  17.013  0.00  0.00    +0.000 A 
ATOM      9  C   UNL     1       3.401   6.621  18.278  0.00  0.00    +0.000 A 
ATOM     10  H   UNL     1       3.352   5.327  21.083  0.00  0.00    +0.000 HD
ENDROOT
BRANCH   1  13
ATOM     11  C   UNL     1       0.585  11.266  19.216  0.00  0.00    +0.000 A 
ATOM     12  C   UNL     1       1.423  10.097  18.871  0.00  0.00    +0.000 A 
ATOM     13  C   UNL     1       1.519   8.797  19.672  0.00  0.00    +0.000 A 
ATOM     14  C   UNL     1       0.711   8.822  20.781  0.00  0.00    +0.000 A 
ATOM     15  C   UNL     1      -0.122   9.933  21.117  0.00  0.00    +0.000 A 
ATOM     16  C   UNL     1      -0.199  11.166  20.380  0.00  0.00    +0.000 A 
BRANCH  11  18
ATOM     17  C   UNL     1       1.576  13.382  18.292  0.00  0.00    +0.000 C 
ATOM     18  O   UNL     1       0.494  12.486  18.568  0.00  0.00    +0.000 OA
ENDBRANCH  11  18
BRANCH  15  19
ATOM     19  O   UNL     1      -0.760   9.683  22.313  0.00  0.00    +0.000 OA
ATOM     20  C   UNL     1       0.028   9.480  23.475  0.00  0.00    +0.000 C 
ENDBRANCH  15  19
BRANCH  16  21
ATOM     21  O   UNL     1      -1.012  12.078  20.988  0.00  0.00    +0.000 OA
ATOM     22  C   UNL     1      -0.743  13.148  21.872  0.00  0.00    +0.000 C 
ENDBRANCH  16  21
ENDBRANCH   1  13
BRANCH   7  23
ATOM     23  C   UNL     1       5.676   4.829  15.131  0.00  0.00    +0.000 A 
ATOM     24  C   UNL     1       7.019   5.071  14.804  0.00  0.00    +0.000 A 
ATOM     25  C   UNL     1       7.581   4.743  13.527  0.00  0.00    +0.000 A 
ATOM     26  C   UNL     1       6.827   4.129  12.517  0.00  0.00    +0.000 A 
ATOM     27  C   UNL     1       5.514   3.789  12.793  0.00  0.00    +0.000 A 
ATOM     28  C   UNL     1       4.972   4.107  14.083  0.00  0.00    +0.000 A 
BRANCH  27  29
ATOM     29  C   UNL     1       4.747   3.185  11.730  0.00  0.00    +0.000 C 
ATOM     30  N   UNL     1       4.180   2.602  10.923  0.00  0.00    +0.000 NA
ENDBRANCH  27  29
ENDBRANCH   7  23
TORSDOF 6
ENDMDL
