MODEL 1
REMARK VINA RESULT:      -8.7      0.000      0.000
REMARK  Name = 
REMARK  6 active torsions:
REMARK  status: ('A' for Active; 'I' for Inactive)
REMARK    1  A    between atoms: C_2  and  C_3
REMARK    2  A    between atoms: N_5  and  C_6
REMARK    3  A    between atoms: C_10  and  N_11
REMARK    4  A    between atoms: N_17  and  C_18
REMARK    5  A    between atoms: C_21  and  C_22
REMARK    6  A    between atoms: C_25  and  C_26
REMARK                            x       y       z     vdW  Elec       q    Type
REMARK                         _______ _______ _______ _____ _____    ______ ____
ROOT
ATOM      1  N   UNL     1       4.219  14.009  17.703  0.00  0.00    +0.000 N 
ATOM      2  C   UNL     1       2.915  13.997  18.231  0.00  0.00    +0.000 A 
ATOM      3  N   UNL     1       2.336  15.137  18.593  0.00  0.00    +0.000 NA
ATOM      4  C   UNL     1       1.136  15.007  19.135  0.00  0.00    +0.000 A 
ATOM      5  N   UNL     1       0.487  13.869  19.326  0.00  0.00    +0.000 NA
ATOM      6  C   UNL     1       1.145  12.780  18.941  0.00  0.00    +0.000 A 
ATOM      7  N   UNL     1       0.506  11.576  19.228  0.00  0.00    +0.000 N 
ATOM      8  N   UNL     1       2.350  12.807  18.377  0.00  0.00    +0.000 NA
ATOM      9  H   UNL     1       4.512  13.035  17.674  0.00  0.00    +0.000 HD
ATOM     10  H   UNL     1      -0.366  11.769  19.698  0.00  0.00    +0.000 HD
ENDROOT
BRANCH   1  15
ATOM     11  C   UNL     1       7.615  15.490  18.113  0.00  0.00    +0.000 A 
ATOM     12  C   UNL     1       7.375  16.387  19.157  0.00  0.00    +0.000 A 
ATOM     13  C   UNL     1       6.116  16.492  19.734  0.00  0.00    +0.000 A 
ATOM     14  C   UNL     1       5.071  15.711  19.260  0.00  0.00    +0.000 A 
ATOM     15  C   UNL     1       5.261  14.842  18.176  0.00  0.00    +0.000 A 
ATOM     16  C   UNL     1       6.548  14.723  17.622  0.00  0.00    +0.000 A 
BRANCH  11  19
ATOM     17  C   UNL     1       9.907  14.538  18.025  0.00  0.00    +0.000 C 
ATOM     18  O   UNL     1       9.842  13.794  18.997  0.00  0.00    +0.000 OA
ATOM     19  N   UNL     1       8.893  15.333  17.524  0.00  0.00    +0.000 N 
ATOM     20  H   UNL     1       9.035  15.784  16.631  0.00  0.00    +0.000 HD
BRANCH  17  22
ATOM     21  C   UNL     1      11.607  13.515  16.604  0.00  0.00    +0.000 C 
ATOM     22  C   UNL     1      11.160  14.615  17.226  0.00  0.00    +0.000 C 
ENDBRANCH  17  22
ENDBRANCH  11  19
ENDBRANCH   1  15
BRANCH   7  23
ATOM     23  C   UNL     1       0.997  10.270  19.320  0.00  0.00    +0.000 A 
ATOM     24  C   UNL     1       1.565   9.680  18.186  0.00  0.00    +0.000 A 
ATOM     25  C   UNL     1       2.051   8.366  18.216  0.00  0.00    +0.000 A 
ATOM     26  C   UNL     1       2.016   7.599  19.391  0.00  0.00    +0.000 A 
ATOM     27  C   UNL     1       1.444   8.196  20.522  0.00  0.00    +0.000 A 
ATOM     28  C   UNL     1       0.948   9.504  20.486  0.00  0.00    +0.000 A 
BRANCH  26  29
ATOM     29  C   UNL     1       2.585   6.239  19.449  0.00  0.00    +0.000 A 
ATOM     30  C   UNL     1       3.571   5.813  18.550  0.00  0.00    +0.000 A 
ATOM     31  C   UNL     1       4.117   4.533  18.644  0.00  0.00    +0.000 A 
ATOM     32  C   UNL     1       3.673   3.688  19.652  0.00  0.00    +0.000 A 
ATOM     33  C   UNL     1       4.238   2.309  19.806  0.00  0.00    +0.000 C 
ATOM     34  N   UNL     1       2.725   4.057  20.539  0.00  0.00    +0.000 NA
ATOM     35  C   UNL     1       2.208   5.304  20.414  0.00  0.00    +0.000 A 
ENDBRANCH  26  29
ENDBRANCH   7  23
TORSDOF 5
ENDMDL
MODEL 2
REMARK VINA RESULT:      -8.6      0.767      1.045
REMARK  Name = 
REMARK  6 active torsions:
REMARK  status: ('A' for Active; 'I' for Inactive)
REMARK    1  A    between atoms: C_2  and  C_3
REMARK    2  A    between atoms: N_5  and  C_6
REMARK    3  A    between atoms: C_10  and  N_11
REMARK    4  A    between atoms: N_17  and  C_18
REMARK    5  A    between atoms: C_21  and  C_22
REMARK    6  A    between atoms: C_25  and  C_26
REMARK                            x       y       z     vdW  Elec       q    Type
REMARK                         _______ _______ _______ _____ _____    ______ ____
ROOT
ATOM      1  N   UNL     1       3.776  14.088  17.618  0.00  0.00    +0.000 N 
ATOM      2  C   UNL     1       2.550  14.080  18.308  0.00  0.00    +0.000 A 
ATOM      3  N   UNL     1       2.010  15.224  18.714  0.00  0.00    +0.000 NA
ATOM      4  C   UNL     1       0.890  15.099  19.407  0.00  0.00    +0.000 A 
ATOM      5  N   UNL     1       0.281  13.961  19.705  0.00  0.00    +0.000 NA
ATOM      6  C   UNL     1       0.897  12.868  19.264  0.00  0.00    +0.000 A 
ATOM      7  N   UNL     1       0.311  11.666  19.658  0.00  0.00    +0.000 N 
ATOM      8  N   UNL     1       2.020  12.890  18.551  0.00  0.00    +0.000 NA
ATOM      9  H   UNL     1       4.073  13.117  17.574  0.00  0.00    +0.000 HD
ATOM     10  H   UNL     1      -0.496  11.864  20.230  0.00  0.00    +0.000 HD
ENDROOT
BRANCH   1  15
ATOM     11  C   UNL     1       7.274  15.285  18.098  0.00  0.00    +0.000 A 
ATOM     12  C   UNL     1       7.035  16.545  18.656  0.00  0.00    +0.000 A 
ATOM     13  C   UNL     1       5.740  16.989  18.890  0.00  0.00    +0.000 A 
ATOM     14  C   UNL     1       4.662  16.184  18.550  0.00  0.00    +0.000 A 
ATOM     15  C   UNL     1       4.862  14.941  17.936  0.00  0.00    +0.000 A 
ATOM     16  C   UNL     1       6.178  14.490  17.734  0.00  0.00    +0.000 A 
BRANCH  11  19
ATOM     17  C   UNL     1       9.262  13.938  18.727  0.00  0.00    +0.000 C 
ATOM     18  O   UNL     1       8.828  13.426  19.753  0.00  0.00    +0.000 OA
ATOM     19  N   UNL     1       8.580  14.787  17.876  0.00  0.00    +0.000 N 
ATOM     20  H   UNL     1       9.005  15.019  16.989  0.00  0.00    +0.000 HD
BRANCH  17  22
ATOM     21  C   UNL     1      10.850  13.363  16.966  0.00  0.00    +0.000 C 
ATOM     22  C   UNL     1      10.642  13.627  18.263  0.00  0.00    +0.000 C 
ENDBRANCH  17  22
ENDBRANCH  11  19
ENDBRANCH   1  15
BRANCH   7  23
ATOM     23  C   UNL     1       0.823  10.367  19.717  0.00  0.00    +0.000 A 
ATOM     24  C   UNL     1       1.362   9.800  18.557  0.00  0.00    +0.000 A 
ATOM     25  C   UNL     1       1.867   8.493  18.554  0.00  0.00    +0.000 A 
ATOM     26  C   UNL     1       1.881   7.710  19.719  0.00  0.00    +0.000 A 
ATOM     27  C   UNL     1       1.337   8.284  20.876  0.00  0.00    +0.000 A 
ATOM     28  C   UNL     1       0.822   9.585  20.873  0.00  0.00    +0.000 A 
BRANCH  26  29
ATOM     29  C   UNL     1       2.471   6.358  19.740  0.00  0.00    +0.000 A 
ATOM     30  C   UNL     1       1.959   5.342  20.557  0.00  0.00    +0.000 A 
ATOM     31  C   UNL     1       2.514   4.063  20.536  0.00  0.00    +0.000 A 
ATOM     32  C   UNL     1       3.579   3.808  19.683  0.00  0.00    +0.000 A 
ATOM     33  C   UNL     1       4.201   2.447  19.612  0.00  0.00    +0.000 C 
ATOM     34  N   UNL     1       4.105   4.758  18.880  0.00  0.00    +0.000 NA
ATOM     35  C   UNL     1       3.548   5.993  18.931  0.00  0.00    +0.000 A 
ENDBRANCH  26  29
ENDBRANCH   7  23
TORSDOF 5
ENDMDL
MODEL 3
REMARK VINA RESULT:      -8.5      2.824      5.429
REMARK  Name = 
REMARK  6 active torsions:
REMARK  status: ('A' for Active; 'I' for Inactive)
REMARK    1  A    between atoms: C_2  and  C_3
REMARK    2  A    between atoms: N_5  and  C_6
REMARK    3  A    between atoms: C_10  and  N_11
REMARK    4  A    between atoms: N_17  and  C_18
REMARK    5  A    between atoms: C_21  and  C_22
REMARK    6  A    between atoms: C_25  and  C_26
REMARK                            x       y       z     vdW  Elec       q    Type
REMARK                         _______ _______ _______ _____ _____    ______ ____
ROOT
ATOM      1  N   UNL     1      -0.586  11.463  19.446  0.00  0.00    +0.000 N 
ATOM      2  C   UNL     1      -0.357  10.656  20.576  0.00  0.00    +0.000 A 
ATOM      3  N   UNL     1      -0.681  11.100  21.785  0.00  0.00    +0.000 NA
ATOM      4  C   UNL     1      -0.366  10.289  22.782  0.00  0.00    +0.000 A 
ATOM      5  N   UNL     1       0.215   9.104  22.668  0.00  0.00    +0.000 NA
ATOM      6  C   UNL     1       0.509   8.745  21.423  0.00  0.00    +0.000 A 
ATOM      7  N   UNL     1       1.207   7.544  21.308  0.00  0.00    +0.000 N 
ATOM      8  N   UNL     1       0.224   9.485  20.354  0.00  0.00    +0.000 NA
ATOM      9  H   UNL     1      -0.104  11.003  18.678  0.00  0.00    +0.000 HD
ATOM     10  H   UNL     1       1.367   7.166  22.229  0.00  0.00    +0.000 HD
ENDROOT
BRANCH   1  15
ATOM     11  C   UNL     1       1.092  14.752  18.938  0.00  0.00    +0.000 A 
ATOM     12  C   UNL     1       0.114  15.615  19.440  0.00  0.00    +0.000 A 
ATOM     13  C   UNL     1      -1.077  15.121  19.958  0.00  0.00    +0.000 A 
ATOM     14  C   UNL     1      -1.314  13.754  19.963  0.00  0.00    +0.000 A 
ATOM     15  C   UNL     1      -0.381  12.863  19.415  0.00  0.00    +0.000 A 
ATOM     16  C   UNL     1       0.833  13.373  18.923  0.00  0.00    +0.000 A 
BRANCH  11  19
ATOM     17  C   UNL     1       3.535  15.162  19.109  0.00  0.00    +0.000 C 
ATOM     18  O   UNL     1       3.739  14.643  20.200  0.00  0.00    +0.000 OA
ATOM     19  N   UNL     1       2.330  15.217  18.433  0.00  0.00    +0.000 N 
ATOM     20  H   UNL     1       2.332  15.544  17.477  0.00  0.00    +0.000 HD
BRANCH  17  22
ATOM     21  C   UNL     1       5.648  14.999  17.899  0.00  0.00    +0.000 C 
ATOM     22  C   UNL     1       4.659  15.780  18.353  0.00  0.00    +0.000 C 
ENDBRANCH  17  22
ENDBRANCH  11  19
ENDBRANCH   1  15
BRANCH   7  23
ATOM     23  C   UNL     1       1.985   7.025  20.269  0.00  0.00    +0.000 A 
ATOM     24  C   UNL     1       2.232   7.824  19.147  0.00  0.00    +0.000 A 
ATOM     25  C   UNL     1       2.987   7.347  18.067  0.00  0.00    +0.000 A 
ATOM     26  C   UNL     1       3.549   6.060  18.078  0.00  0.00    +0.000 A 
ATOM     27  C   UNL     1       3.295   5.267  19.204  0.00  0.00    +0.000 A 
ATOM     28  C   UNL     1       2.532   5.742  20.275  0.00  0.00    +0.000 A 
BRANCH  26  29
ATOM     29  C   UNL     1       4.399   5.574  16.974  0.00  0.00    +0.000 A 
ATOM     30  C   UNL     1       4.572   4.207  16.722  0.00  0.00    +0.000 A 
ATOM     31  C   UNL     1       5.354   3.773  15.653  0.00  0.00    +0.000 A 
ATOM     32  C   UNL     1       5.955   4.719  14.834  0.00  0.00    +0.000 A 
ATOM     33  C   UNL     1       6.794   4.304  13.664  0.00  0.00    +0.000 C 
ATOM     34  N   UNL     1       5.817   6.046  15.041  0.00  0.00    +0.000 NA
ATOM     35  C   UNL     1       5.057   6.435  16.094  0.00  0.00    +0.000 A 
ENDBRANCH  26  29
ENDBRANCH   7  23
TORSDOF 5
ENDMDL
MODEL 4
REMARK VINA RESULT:      -8.4      3.707      5.821
REMARK  Name = 
REMARK  6 active torsions:
REMARK  status: ('A' for Active; 'I' for Inactive)
REMARK    1  A    between atoms: C_2  and  C_3
REMARK    2  A    between atoms: N_5  and  C_6
REMARK    3  A    between atoms: C_10  and  N_11
REMARK    4  A    between atoms: N_17  and  C_18
REMARK    5  A    between atoms: C_21  and  C_22
REMARK    6  A    between atoms: C_25  and  C_26
REMARK                            x       y       z     vdW  Elec       q    Type
REMARK                         _______ _______ _______ _____ _____    ______ ____
ROOT
ATOM      1  N   UNL     1      -1.191  11.765  19.744  0.00  0.00    +0.000 N 
ATOM      2  C   UNL     1      -0.931  10.942  20.856  0.00  0.00    +0.000 A 
ATOM      3  N   UNL     1      -1.287  11.339  22.072  0.00  0.00    +0.000 NA
ATOM      4  C   UNL     1      -0.939  10.520  23.052  0.00  0.00    +0.000 A 
ATOM      5  N   UNL     1      -0.298   9.369  22.914  0.00  0.00    +0.000 NA
ATOM      6  C   UNL     1       0.024   9.057  21.663  0.00  0.00    +0.000 A 
ATOM      7  N   UNL     1       0.783   7.896  21.524  0.00  0.00    +0.000 N 
ATOM      8  N   UNL     1      -0.289   9.809  20.611  0.00  0.00    +0.000 NA
ATOM      9  H   UNL     1      -0.680  11.351  18.970  0.00  0.00    +0.000 HD
ATOM     10  H   UNL     1       0.955   7.503  22.438  0.00  0.00    +0.000 HD
ENDROOT
BRANCH   1  15
ATOM     11  C   UNL     1       0.245  15.155  19.160  0.00  0.00    +0.000 A 
ATOM     12  C   UNL     1      -0.690  15.945  19.835  0.00  0.00    +0.000 A 
ATOM     13  C   UNL     1      -1.771  15.370  20.491  0.00  0.00    +0.000 A 
ATOM     14  C   UNL     1      -1.942  13.993  20.466  0.00  0.00    +0.000 A 
ATOM     15  C   UNL     1      -1.057  13.175  19.750  0.00  0.00    +0.000 A 
ATOM     16  C   UNL     1       0.050  13.767  19.117  0.00  0.00    +0.000 A 
BRANCH  11  19
ATOM     17  C   UNL     1       2.644  15.786  19.051  0.00  0.00    +0.000 C 
ATOM     18  O   UNL     1       3.008  15.337  20.132  0.00  0.00    +0.000 OA
ATOM     19  N   UNL     1       1.375  15.704  18.508  0.00  0.00    +0.000 N 
ATOM     20  H   UNL     1       1.247  15.986  17.546  0.00  0.00    +0.000 HD
BRANCH  17  22
ATOM     21  C   UNL     1       3.233  16.837  16.929  0.00  0.00    +0.000 C 
ATOM     22  C   UNL     1       3.621  16.466  18.157  0.00  0.00    +0.000 C 
ENDBRANCH  17  22
ENDBRANCH  11  19
ENDBRANCH   1  15
BRANCH   7  23
ATOM     23  C   UNL     1       1.595   7.444  20.480  0.00  0.00    +0.000 A 
ATOM     24  C   UNL     1       2.127   6.152  20.549  0.00  0.00    +0.000 A 
ATOM     25  C   UNL     1       2.966   5.656  19.542  0.00  0.00    +0.000 A 
ATOM     26  C   UNL     1       3.284   6.424  18.411  0.00  0.00    +0.000 A 
ATOM     27  C   UNL     1       2.749   7.717  18.350  0.00  0.00    +0.000 A 
ATOM     28  C   UNL     1       1.922   8.214  19.363  0.00  0.00    +0.000 A 
BRANCH  26  29
ATOM     29  C   UNL     1       4.113   5.886  17.315  0.00  0.00    +0.000 A 
ATOM     30  C   UNL     1       4.220   4.510  17.077  0.00  0.00    +0.000 A 
ATOM     31  C   UNL     1       4.984   4.027  16.015  0.00  0.00    +0.000 A 
ATOM     32  C   UNL     1       5.633   4.935  15.189  0.00  0.00    +0.000 A 
ATOM     33  C   UNL     1       6.455   4.468  14.027  0.00  0.00    +0.000 C 
ATOM     34  N   UNL     1       5.559   6.269  15.383  0.00  0.00    +0.000 NA
ATOM     35  C   UNL     1       4.815   6.705  16.429  0.00  0.00    +0.000 A 
ENDBRANCH  26  29
ENDBRANCH   7  23
TORSDOF 5
ENDMDL
MODEL 5
REMARK VINA RESULT:      -8.4      1.154      1.680
REMARK  Name = 
REMARK  6 active torsions:
REMARK  status: ('A' for Active; 'I' for Inactive)
REMARK    1  A    between atoms: C_2  and  C_3
REMARK    2  A    between atoms: N_5  and  C_6
REMARK    3  A    between atoms: C_10  and  N_11
REMARK    4  A    between atoms: N_17  and  C_18
REMARK    5  A    between atoms: C_21  and  C_22
REMARK    6  A    between atoms: C_25  and  C_26
REMARK                            x       y       z     vdW  Elec       q    Type
REMARK                         _______ _______ _______ _____ _____    ______ ____
ROOT
ATOM      1  N   UNL     1       4.354  14.231  17.756  0.00  0.00    +0.000 N 
ATOM      2  C   UNL     1       2.992  14.171  18.104  0.00  0.00    +0.000 A 
ATOM      3  N   UNL     1       2.331  15.287  18.391  0.00  0.00    +0.000 NA
ATOM      4  C   UNL     1       1.074  15.112  18.765  0.00  0.00    +0.000 A 
ATOM      5  N   UNL     1       0.443  13.951  18.859  0.00  0.00    +0.000 NA
ATOM      6  C   UNL     1       1.184  12.889  18.559  0.00  0.00    +0.000 A 
ATOM      7  N   UNL     1       0.552  11.661  18.748  0.00  0.00    +0.000 N 
ATOM      8  N   UNL     1       2.452  12.962  18.163  0.00  0.00    +0.000 NA
ATOM      9  H   UNL     1       4.681  13.268  17.760  0.00  0.00    +0.000 HD
ATOM     10  H   UNL     1      -0.381  11.821  19.098  0.00  0.00    +0.000 HD
ENDROOT
BRANCH   1  15
ATOM     11  C   UNL     1       7.427  15.380  19.526  0.00  0.00    +0.000 A 
ATOM     12  C   UNL     1       7.129  16.735  19.695  0.00  0.00    +0.000 A 
ATOM     13  C   UNL     1       5.924  17.263  19.249  0.00  0.00    +0.000 A 
ATOM     14  C   UNL     1       5.005  16.443  18.609  0.00  0.00    +0.000 A 
ATOM     15  C   UNL     1       5.294  15.092  18.371  0.00  0.00    +0.000 A 
ATOM     16  C   UNL     1       6.503  14.564  18.855  0.00  0.00    +0.000 A 
BRANCH  11  19
ATOM     17  C   UNL     1       9.773  14.621  19.241  0.00  0.00    +0.000 C 
ATOM     18  O   UNL     1       9.955  14.994  18.088  0.00  0.00    +0.000 OA
ATOM     19  N   UNL     1       8.630  14.801  19.997  0.00  0.00    +0.000 N 
ATOM     20  H   UNL     1       8.665  14.575  20.981  0.00  0.00    +0.000 HD
BRANCH  17  22
ATOM     21  C   UNL     1      10.562  12.881  20.758  0.00  0.00    +0.000 C 
ATOM     22  C   UNL     1      10.864  13.933  19.984  0.00  0.00    +0.000 C 
ENDBRANCH  17  22
ENDBRANCH  11  19
ENDBRANCH   1  15
BRANCH   7  23
ATOM     23  C   UNL     1       1.070  10.371  18.898  0.00  0.00    +0.000 A 
ATOM     24  C   UNL     1       0.882   9.705  20.113  0.00  0.00    +0.000 A 
ATOM     25  C   UNL     1       1.400   8.420  20.325  0.00  0.00    +0.000 A 
ATOM     26  C   UNL     1       2.102   7.738  19.319  0.00  0.00    +0.000 A 
ATOM     27  C   UNL     1       2.287   8.413  18.106  0.00  0.00    +0.000 A 
ATOM     28  C   UNL     1       1.780   9.700  17.901  0.00  0.00    +0.000 A 
BRANCH  26  29
ATOM     29  C   UNL     1       2.593   6.360  19.512  0.00  0.00    +0.000 A 
ATOM     30  C   UNL     1       1.998   5.486  20.430  0.00  0.00    +0.000 A 
ATOM     31  C   UNL     1       2.460   4.177  20.571  0.00  0.00    +0.000 A 
ATOM     32  C   UNL     1       3.516   3.750  19.778  0.00  0.00    +0.000 A 
ATOM     33  C   UNL     1       4.039   2.351  19.881  0.00  0.00    +0.000 C 
ATOM     34  N   UNL     1       4.119   4.559  18.881  0.00  0.00    +0.000 NA
ATOM     35  C   UNL     1       3.653   5.828  18.776  0.00  0.00    +0.000 A 
ENDBRANCH  26  29
ENDBRANCH   7  23
TORSDOF 5
ENDMDL
MODEL 6
REMARK VINA RESULT:      -8.4      3.322      5.714
REMARK  Name = 
REMARK  6 active torsions:
REMARK  status: ('A' for Active; 'I' for Inactive)
REMARK    1  A    between atoms: C_2  and  C_3
REMARK    2  A    between atoms: N_5  and  C_6
REMARK    3  A    between atoms: C_10  and  N_11
REMARK    4  A    between atoms: N_17  and  C_18
REMARK    5  A    between atoms: C_21  and  C_22
REMARK    6  A    between atoms: C_25  and  C_26
REMARK                            x       y       z     vdW  Elec       q    Type
REMARK                         _______ _______ _______ _____ _____    ______ ____
ROOT
ATOM      1  N   UNL     1       0.515  10.874  18.536  0.00  0.00    +0.000 N 
ATOM      2  C   UNL     1       0.793   9.964  19.573  0.00  0.00    +0.000 A 
ATOM      3  N   UNL     1       0.506  10.284  20.830  0.00  0.00    +0.000 NA
ATOM      4  C   UNL     1       0.865   9.385  21.732  0.00  0.00    +0.000 A 
ATOM      5  N   UNL     1       1.455   8.225  21.483  0.00  0.00    +0.000 NA
ATOM      6  C   UNL     1       1.709   7.993  20.199  0.00  0.00    +0.000 A 
ATOM      7  N   UNL     1       2.415   6.819  19.944  0.00  0.00    +0.000 N 
ATOM      8  N   UNL     1       1.379   8.829  19.219  0.00  0.00    +0.000 NA
ATOM      9  H   UNL     1       0.975  10.498  17.710  0.00  0.00    +0.000 HD
ATOM     10  H   UNL     1       2.612   6.356  20.818  0.00  0.00    +0.000 HD
ENDROOT
BRANCH   1  15
ATOM     11  C   UNL     1       2.216  14.163  18.959  0.00  0.00    +0.000 A 
ATOM     12  C   UNL     1       1.113  15.022  18.948  0.00  0.00    +0.000 A 
ATOM     13  C   UNL     1      -0.178  14.525  18.821  0.00  0.00    +0.000 A 
ATOM     14  C   UNL     1      -0.382  13.158  18.685  0.00  0.00    +0.000 A 
ATOM     15  C   UNL     1       0.704  12.274  18.634  0.00  0.00    +0.000 A 
ATOM     16  C   UNL     1       2.003  12.787  18.795  0.00  0.00    +0.000 A 
BRANCH  11  19
ATOM     17  C   UNL     1       4.280  15.277  18.144  0.00  0.00    +0.000 C 
ATOM     18  O   UNL     1       3.890  15.611  17.032  0.00  0.00    +0.000 OA
ATOM     19  N   UNL     1       3.542  14.632  19.119  0.00  0.00    +0.000 N 
ATOM     20  H   UNL     1       3.941  14.547  20.044  0.00  0.00    +0.000 HD
BRANCH  17  22
ATOM     21  C   UNL     1       6.700  15.050  17.926  0.00  0.00    +0.000 C 
ATOM     22  C   UNL     1       5.667  15.602  18.578  0.00  0.00    +0.000 C 
ENDBRANCH  17  22
ENDBRANCH  11  19
ENDBRANCH   1  15
BRANCH   7  23
ATOM     23  C   UNL     1       3.163   6.415  18.834  0.00  0.00    +0.000 A 
ATOM     24  C   UNL     1       3.047   5.095  18.386  0.00  0.00    +0.000 A 
ATOM     25  C   UNL     1       3.791   4.630  17.292  0.00  0.00    +0.000 A 
ATOM     26  C   UNL     1       4.658   5.477  16.584  0.00  0.00    +0.000 A 
ATOM     27  C   UNL     1       4.770   6.797  17.040  0.00  0.00    +0.000 A 
ATOM     28  C   UNL     1       4.036   7.254  18.139  0.00  0.00    +0.000 A 
BRANCH  26  29
ATOM     29  C   UNL     1       5.394   5.013  15.392  0.00  0.00    +0.000 A 
ATOM     30  C   UNL     1       4.858   4.060  14.518  0.00  0.00    +0.000 A 
ATOM     31  C   UNL     1       5.559   3.661  13.380  0.00  0.00    +0.000 A 
ATOM     32  C   UNL     1       6.798   4.233  13.122  0.00  0.00    +0.000 A 
ATOM     33  C   UNL     1       7.584   3.850  11.906  0.00  0.00    +0.000 C 
ATOM     34  N   UNL     1       7.353   5.154  13.938  0.00  0.00    +0.000 NA
ATOM     35  C   UNL     1       6.649   5.513  15.040  0.00  0.00    +0.000 A 
ENDBRANCH  26  29
ENDBRANCH   7  23
TORSDOF 5
ENDMDL
MODEL 7
REMARK VINA RESULT:      -8.4      2.727      4.395
REMARK  Name = 
REMARK  6 active torsions:
REMARK  status: ('A' for Active; 'I' for Inactive)
REMARK    1  A    between atoms: C_2  and  C_3
REMARK    2  A    between atoms: N_5  and  C_6
REMARK    3  A    between atoms: C_10  and  N_11
REMARK    4  A    between atoms: N_17  and  C_18
REMARK    5  A    between atoms: C_21  and  C_22
REMARK    6  A    between atoms: C_25  and  C_26
REMARK                            x       y       z     vdW  Elec       q    Type
REMARK                         _______ _______ _______ _____ _____    ______ ____
ROOT
ATOM      1  N   UNL     1       0.171  12.993  18.875  0.00  0.00    +0.000 N 
ATOM      2  C   UNL     1       0.037  12.210  20.036  0.00  0.00    +0.000 A 
ATOM      3  N   UNL     1      -0.365  12.771  21.171  0.00  0.00    +0.000 NA
ATOM      4  C   UNL     1      -0.398  11.959  22.216  0.00  0.00    +0.000 A 
ATOM      5  N   UNL     1      -0.083  10.672  22.212  0.00  0.00    +0.000 NA
ATOM      6  C   UNL     1       0.315  10.199  21.035  0.00  0.00    +0.000 A 
ATOM      7  N   UNL     1       0.737   8.871  21.049  0.00  0.00    +0.000 N 
ATOM      8  N   UNL     1       0.371  10.932  19.926  0.00  0.00    +0.000 NA
ATOM      9  H   UNL     1       0.654  12.404  18.201  0.00  0.00    +0.000 HD
ATOM     10  H   UNL     1       0.664   8.511  21.989  0.00  0.00    +0.000 HD
ENDROOT
BRANCH   1  15
ATOM     11  C   UNL     1       2.565  15.830  19.215  0.00  0.00    +0.000 A 
ATOM     12  C   UNL     1       1.715  16.910  18.958  0.00  0.00    +0.000 A 
ATOM     13  C   UNL     1       0.366  16.710  18.694  0.00  0.00    +0.000 A 
ATOM     14  C   UNL     1      -0.149  15.422  18.666  0.00  0.00    +0.000 A 
ATOM     15  C   UNL     1       0.685  14.312  18.861  0.00  0.00    +0.000 A 
ATOM     16  C   UNL     1       2.042  14.530  19.158  0.00  0.00    +0.000 A 
BRANCH  11  19
ATOM     17  C   UNL     1       4.985  15.632  18.695  0.00  0.00    +0.000 C 
ATOM     18  O   UNL     1       4.899  15.184  17.557  0.00  0.00    +0.000 OA
ATOM     19  N   UNL     1       3.937  15.998  19.519  0.00  0.00    +0.000 N 
ATOM     20  H   UNL     1       4.151  16.490  20.375  0.00  0.00    +0.000 HD
BRANCH  17  22
ATOM     21  C   UNL     1       6.464  15.760  20.631  0.00  0.00    +0.000 C 
ATOM     22  C   UNL     1       6.321  15.875  19.303  0.00  0.00    +0.000 C 
ENDBRANCH  17  22
ENDBRANCH  11  19
ENDBRANCH   1  15
BRANCH   7  23
ATOM     23  C   UNL     1       1.534   8.147  20.157  0.00  0.00    +0.000 A 
ATOM     24  C   UNL     1       1.841   8.712  18.915  0.00  0.00    +0.000 A 
ATOM     25  C   UNL     1       2.616   8.022  17.973  0.00  0.00    +0.000 A 
ATOM     26  C   UNL     1       3.140   6.749  18.249  0.00  0.00    +0.000 A 
ATOM     27  C   UNL     1       2.827   6.190  19.494  0.00  0.00    +0.000 A 
ATOM     28  C   UNL     1       2.043   6.876  20.427  0.00  0.00    +0.000 A 
BRANCH  26  29
ATOM     29  C   UNL     1       4.011   6.043  17.290  0.00  0.00    +0.000 A 
ATOM     30  C   UNL     1       4.050   4.645  17.218  0.00  0.00    +0.000 A 
ATOM     31  C   UNL     1       4.858   4.001  16.281  0.00  0.00    +0.000 A 
ATOM     32  C   UNL     1       5.619   4.770  15.411  0.00  0.00    +0.000 A 
ATOM     33  C   UNL     1       6.491   4.127  14.377  0.00  0.00    +0.000 C 
ATOM     34  N   UNL     1       5.613   6.120  15.446  0.00  0.00    +0.000 NA
ATOM     35  C   UNL     1       4.824   6.714  16.375  0.00  0.00    +0.000 A 
ENDBRANCH  26  29
ENDBRANCH   7  23
TORSDOF 5
ENDMDL
MODEL 8
REMARK VINA RESULT:      -8.4      1.170      1.636
REMARK  Name = 
REMARK  6 active torsions:
REMARK  status: ('A' for Active; 'I' for Inactive)
REMARK    1  A    between atoms: C_2  and  C_3
REMARK    2  A    between atoms: N_5  and  C_6
REMARK    3  A    between atoms: C_10  and  N_11
REMARK    4  A    between atoms: N_17  and  C_18
REMARK    5  A    between atoms: C_21  and  C_22
REMARK    6  A    between atoms: C_25  and  C_26
REMARK                            x       y       z     vdW  Elec       q    Type
REMARK                         _______ _______ _______ _____ _____    ______ ____
ROOT
ATOM      1  N   UNL     1       4.334  14.021  17.825  0.00  0.00    +0.000 N 
ATOM      2  C   UNL     1       2.973  13.944  18.175  0.00  0.00    +0.000 A 
ATOM      3  N   UNL     1       2.304  15.050  18.482  0.00  0.00    +0.000 NA
ATOM      4  C   UNL     1       1.049  14.858  18.856  0.00  0.00    +0.000 A 
ATOM      5  N   UNL     1       0.429  13.690  18.932  0.00  0.00    +0.000 NA
ATOM      6  C   UNL     1       1.178  12.639  18.614  0.00  0.00    +0.000 A 
ATOM      7  N   UNL     1       0.557  11.403  18.785  0.00  0.00    +0.000 N 
ATOM      8  N   UNL     1       2.444  12.729  18.216  0.00  0.00    +0.000 NA
ATOM      9  H   UNL     1       4.669  13.061  17.812  0.00  0.00    +0.000 HD
ATOM     10  H   UNL     1      -0.376  11.549  19.139  0.00  0.00    +0.000 HD
ENDROOT
BRANCH   1  15
ATOM     11  C   UNL     1       7.539  15.772  18.572  0.00  0.00    +0.000 A 
ATOM     12  C   UNL     1       7.178  16.478  19.724  0.00  0.00    +0.000 A 
ATOM     13  C   UNL     1       5.902  16.365  20.261  0.00  0.00    +0.000 A 
ATOM     14  C   UNL     1       4.960  15.557  19.640  0.00  0.00    +0.000 A 
ATOM     15  C   UNL     1       5.268  14.881  18.451  0.00  0.00    +0.000 A 
ATOM     16  C   UNL     1       6.572  14.979  17.936  0.00  0.00    +0.000 A 
BRANCH  11  19
ATOM     17  C   UNL     1       9.511  17.003  17.702  0.00  0.00    +0.000 C 
ATOM     18  O   UNL     1       9.133  18.148  17.921  0.00  0.00    +0.000 OA
ATOM     19  N   UNL     1       8.839  15.837  18.016  0.00  0.00    +0.000 N 
ATOM     20  H   UNL     1       9.329  14.959  17.914  0.00  0.00    +0.000 HD
BRANCH  17  22
ATOM     21  C   UNL     1      11.561  15.701  17.462  0.00  0.00    +0.000 C 
ATOM     22  C   UNL     1      10.840  16.763  17.075  0.00  0.00    +0.000 C 
ENDBRANCH  17  22
ENDBRANCH  11  19
ENDBRANCH   1  15
BRANCH   7  23
ATOM     23  C   UNL     1       1.087  10.115  18.912  0.00  0.00    +0.000 A 
ATOM     24  C   UNL     1       1.030   9.482  20.158  0.00  0.00    +0.000 A 
ATOM     25  C   UNL     1       1.566   8.201  20.348  0.00  0.00    +0.000 A 
ATOM     26  C   UNL     1       2.155   7.490  19.290  0.00  0.00    +0.000 A 
ATOM     27  C   UNL     1       2.209   8.132  18.046  0.00  0.00    +0.000 A 
ATOM     28  C   UNL     1       1.684   9.416  17.863  0.00  0.00    +0.000 A 
BRANCH  26  29
ATOM     29  C   UNL     1       2.662   6.116  19.465  0.00  0.00    +0.000 A 
ATOM     30  C   UNL     1       1.970   5.164  20.226  0.00  0.00    +0.000 A 
ATOM     31  C   UNL     1       2.454   3.863  20.351  0.00  0.00    +0.000 A 
ATOM     32  C   UNL     1       3.631   3.519  19.700  0.00  0.00    +0.000 A 
ATOM     33  C   UNL     1       4.184   2.130  19.790  0.00  0.00    +0.000 C 
ATOM     34  N   UNL     1       4.330   4.404  18.957  0.00  0.00    +0.000 NA
ATOM     35  C   UNL     1       3.838   5.664  18.864  0.00  0.00    +0.000 A 
ENDBRANCH  26  29
ENDBRANCH   7  23
TORSDOF 5
ENDMDL
MODEL 9
REMARK VINA RESULT:      -8.3      5.528      8.716
REMARK  Name = 
REMARK  6 active torsions:
REMARK  status: ('A' for Active; 'I' for Inactive)
REMARK    1  A    between atoms: C_2  and  C_3
REMARK    2  A    between atoms: N_5  and  C_6
REMARK    3  A    between atoms: C_10  and  N_11
REMARK    4  A    between atoms: N_17  and  C_18
REMARK    5  A    between atoms: C_21  and  C_22
REMARK    6  A    between atoms: C_25  and  C_26
REMARK                            x       y       z     vdW  Elec       q    Type
REMARK                         _______ _______ _______ _____ _____    ______ ____
ROOT
ATOM      1  N   UNL     1      -0.749  13.189  22.395  0.00  0.00    +0.000 N 
ATOM      2  C   UNL     1      -0.507  13.377  21.022  0.00  0.00    +0.000 A 
ATOM      3  N   UNL     1      -1.054  14.408  20.387  0.00  0.00    +0.000 NA
ATOM      4  C   UNL     1      -0.813  14.455  19.087  0.00  0.00    +0.000 A 
ATOM      5  N   UNL     1      -0.082  13.592  18.398  0.00  0.00    +0.000 NA
ATOM      6  C   UNL     1       0.419  12.590  19.114  0.00  0.00    +0.000 A 
ATOM      7  N   UNL     1       1.107  11.629  18.376  0.00  0.00    +0.000 N 
ATOM      8  N   UNL     1       0.242  12.460  20.426  0.00  0.00    +0.000 NA
ATOM      9  H   UNL     1      -0.390  12.263  22.614  0.00  0.00    +0.000 HD
ATOM     10  H   UNL     1       1.086  11.884  17.400  0.00  0.00    +0.000 HD
ENDROOT
BRANCH   1  15
ATOM     11  C   UNL     1      -4.411  13.021  23.073  0.00  0.00    +0.000 A 
ATOM     12  C   UNL     1      -4.510  13.910  24.148  0.00  0.00    +0.000 A 
ATOM     13  C   UNL     1      -3.390  14.572  24.633  0.00  0.00    +0.000 A 
ATOM     14  C   UNL     1      -2.147  14.339  24.060  0.00  0.00    +0.000 A 
ATOM     15  C   UNL     1      -2.001  13.411  23.019  0.00  0.00    +0.000 A 
ATOM     16  C   UNL     1      -3.148  12.772  22.517  0.00  0.00    +0.000 A 
BRANCH  11  19
ATOM     17  C   UNL     1      -6.545  12.959  21.806  0.00  0.00    +0.000 C 
ATOM     18  O   UNL     1      -6.591  14.132  21.453  0.00  0.00    +0.000 OA
ATOM     19  N   UNL     1      -5.536  12.354  22.532  0.00  0.00    +0.000 N 
ATOM     20  H   UNL     1      -5.552  11.348  22.628  0.00  0.00    +0.000 HD
BRANCH  17  22
ATOM     21  C   UNL     1      -7.335  10.969  20.635  0.00  0.00    +0.000 C 
ATOM     22  C   UNL     1      -7.630  12.018  21.415  0.00  0.00    +0.000 C 
ENDBRANCH  17  22
ENDBRANCH  11  19
ENDBRANCH   1  15
BRANCH   7  23
ATOM     23  C   UNL     1       1.448  10.306  18.675  0.00  0.00    +0.000 A 
ATOM     24  C   UNL     1       2.153   9.560  17.725  0.00  0.00    +0.000 A 
ATOM     25  C   UNL     1       2.500   8.223  17.963  0.00  0.00    +0.000 A 
ATOM     26  C   UNL     1       2.179   7.587  19.173  0.00  0.00    +0.000 A 
ATOM     27  C   UNL     1       1.471   8.341  20.118  0.00  0.00    +0.000 A 
ATOM     28  C   UNL     1       1.116   9.672  19.873  0.00  0.00    +0.000 A 
BRANCH  26  29
ATOM     29  C   UNL     1       2.597   6.201  19.457  0.00  0.00    +0.000 A 
ATOM     30  C   UNL     1       2.037   5.461  20.506  0.00  0.00    +0.000 A 
ATOM     31  C   UNL     1       2.425   4.141  20.735  0.00  0.00    +0.000 A 
ATOM     32  C   UNL     1       3.374   3.567  19.899  0.00  0.00    +0.000 A 
ATOM     33  C   UNL     1       3.814   2.149  20.094  0.00  0.00    +0.000 C 
ATOM     34  N   UNL     1       3.941   4.244  18.878  0.00  0.00    +0.000 NA
ATOM     35  C   UNL     1       3.548   5.527  18.688  0.00  0.00    +0.000 A 
ENDBRANCH  26  29
ENDBRANCH   7  23
TORSDOF 5
ENDMDL
