MODEL 1
REMARK VINA RESULT:      -7.8      0.000      0.000
REMARK  Name = 
REMARK  4 active torsions:
REMARK  status: ('A' for Active; 'I' for Inactive)
REMARK    1  A    between atoms: C_1  and  C_2
REMARK    2  A    between atoms: C_5  and  C_6
REMARK    3  A    between atoms: C_9  and  N_10
REMARK    4  A    between atoms: C_12  and  C_13
REMARK                            x       y       z     vdW  Elec       q    Type
REMARK                         _______ _______ _______ _____ _____    ______ ____
ROOT
ATOM      1  C   UNL     1       6.046   4.251  16.233  0.00  0.00    +0.000 A 
ATOM      2  C   UNL     1       4.769   3.678  16.206  0.00  0.00    +0.000 A 
ATOM      3  C   UNL     1       4.078   3.389  17.394  0.00  0.00    +0.000 A 
ATOM      4  C   UNL     1       4.637   3.688  18.642  0.00  0.00    +0.000 A 
ATOM      5  C   UNL     1       5.911   4.264  18.669  0.00  0.00    +0.000 A 
ATOM      6  C   UNL     1       6.604   4.522  17.483  0.00  0.00    +0.000 A 
ATOM      7  F   UNL     1       7.832   5.052  17.591  0.00  0.00    +0.000 F 
ENDROOT
BRANCH   1  12
ATOM      8  C   UNL     1       7.475   4.757  11.554  0.00  0.00    +0.000 C 
ATOM      9  C   UNL     1       7.398   4.856  13.023  0.00  0.00    +0.000 A 
ATOM     10  N   UNL     1       8.196   5.664  13.730  0.00  0.00    +0.000 NA
ATOM     11  O   UNL     1       7.752   5.478  15.040  0.00  0.00    +0.000 OA
ATOM     12  C   UNL     1       6.724   4.577  14.985  0.00  0.00    +0.000 A 
ATOM     13  N   UNL     1       6.481   4.154  13.762  0.00  0.00    +0.000 NA
ENDBRANCH   1  12
BRANCH   4  14
ATOM     14  N   UNL     1       3.936   3.438  19.844  0.00  0.00    +0.000 N 
ATOM     15  C   UNL     1       2.927   4.306  20.372  0.00  0.00    +0.000 C 
ATOM     16  C   UNL     1       2.305   3.470  21.473  0.00  0.00    +0.000 C 
ATOM     17  O   UNL     1       3.350   2.551  21.825  0.00  0.00    +0.000 OA
ATOM     18  C   UNL     1       4.209   2.436  20.763  0.00  0.00    +0.000 C 
ATOM     19  O   UNL     1       5.079   1.585  20.722  0.00  0.00    +0.000 OA
BRANCH  16  20
ATOM     20  C   UNL     1       1.073   2.692  20.996  0.00  0.00    +0.000 C 
ATOM     21  I   UNL     1       0.717   3.029  18.896  0.00  0.00    +0.000 I 
ENDBRANCH  16  20
ENDBRANCH   4  14
TORSDOF 3
ENDMDL
MODEL 2
REMARK VINA RESULT:      -7.6      6.124      8.426
REMARK  Name = 
REMARK  4 active torsions:
REMARK  status: ('A' for Active; 'I' for Inactive)
REMARK    1  A    between atoms: C_1  and  C_2
REMARK    2  A    between atoms: C_5  and  C_6
REMARK    3  A    between atoms: C_9  and  N_10
REMARK    4  A    between atoms: C_12  and  C_13
REMARK                            x       y       z     vdW  Elec       q    Type
REMARK                         _______ _______ _______ _____ _____    ______ ____
ROOT
ATOM      1  C   UNL     1       1.129   9.415  19.830  0.00  0.00    +0.000 A 
ATOM      2  C   UNL     1       1.493   9.475  18.479  0.00  0.00    +0.000 A 
ATOM      3  C   UNL     1       2.173   8.411  17.863  0.00  0.00    +0.000 A 
ATOM      4  C   UNL     1       2.487   7.248  18.576  0.00  0.00    +0.000 A 
ATOM      5  C   UNL     1       2.120   7.188  19.924  0.00  0.00    +0.000 A 
ATOM      6  C   UNL     1       1.469   8.261  20.538  0.00  0.00    +0.000 A 
ATOM      7  F   UNL     1       1.173   8.137  21.840  0.00  0.00    +0.000 F 
ENDROOT
BRANCH   1  12
ATOM      8  C   UNL     1      -2.250  12.670  21.303  0.00  0.00    +0.000 C 
ATOM      9  C   UNL     1      -0.984  11.936  21.124  0.00  0.00    +0.000 A 
ATOM     10  N   UNL     1       0.109  12.202  21.848  0.00  0.00    +0.000 NA
ATOM     11  O   UNL     1       1.029  11.258  21.388  0.00  0.00    +0.000 OA
ATOM     12  C   UNL     1       0.390  10.515  20.434  0.00  0.00    +0.000 A 
ATOM     13  N   UNL     1      -0.850  10.908  20.226  0.00  0.00    +0.000 NA
ENDBRANCH   1  12
BRANCH   4  14
ATOM     14  N   UNL     1       3.136   6.156  17.958  0.00  0.00    +0.000 N 
ATOM     15  C   UNL     1       4.331   6.278  17.177  0.00  0.00    +0.000 C 
ATOM     16  C   UNL     1       4.765   4.837  16.995  0.00  0.00    +0.000 C 
ATOM     17  O   UNL     1       3.542   4.099  17.146  0.00  0.00    +0.000 OA
ATOM     18  C   UNL     1       2.658   4.858  17.868  0.00  0.00    +0.000 C 
ATOM     19  O   UNL     1       1.613   4.402  18.298  0.00  0.00    +0.000 OA
BRANCH  16  20
ATOM     20  C   UNL     1       5.772   4.388  18.061  0.00  0.00    +0.000 C 
ATOM     21  I   UNL     1       7.306   5.877  18.343  0.00  0.00    +0.000 I 
ENDBRANCH  16  20
ENDBRANCH   4  14
TORSDOF 3
ENDMDL
MODEL 3
REMARK VINA RESULT:      -7.6      4.527      7.620
REMARK  Name = 
REMARK  4 active torsions:
REMARK  status: ('A' for Active; 'I' for Inactive)
REMARK    1  A    between atoms: C_1  and  C_2
REMARK    2  A    between atoms: C_5  and  C_6
REMARK    3  A    between atoms: C_9  and  N_10
REMARK    4  A    between atoms: C_12  and  C_13
REMARK                            x       y       z     vdW  Elec       q    Type
REMARK                         _______ _______ _______ _____ _____    ______ ____
ROOT
ATOM      1  C   UNL     1       2.490   7.407  19.227  0.00  0.00    +0.000 A 
ATOM      2  C   UNL     1       2.987   6.191  19.713  0.00  0.00    +0.000 A 
ATOM      3  C   UNL     1       3.956   5.467  19.000  0.00  0.00    +0.000 A 
ATOM      4  C   UNL     1       4.472   5.950  17.792  0.00  0.00    +0.000 A 
ATOM      5  C   UNL     1       3.979   7.166  17.309  0.00  0.00    +0.000 A 
ATOM      6  C   UNL     1       2.994   7.868  18.010  0.00  0.00    +0.000 A 
ATOM      7  F   UNL     1       2.553   9.014  17.469  0.00  0.00    +0.000 F 
ENDROOT
BRANCH   1  12
ATOM      8  C   UNL     1      -0.339   9.375  22.735  0.00  0.00    +0.000 C 
ATOM      9  C   UNL     1       0.276   9.058  21.433  0.00  0.00    +0.000 A 
ATOM     10  N   UNL     1       0.004   9.752  20.322  0.00  0.00    +0.000 NA
ATOM     11  O   UNL     1       0.826   9.152  19.367  0.00  0.00    +0.000 OA
ATOM     12  C   UNL     1       1.515   8.157  20.005  0.00  0.00    +0.000 A 
ATOM     13  N   UNL     1       1.196   8.053  21.279  0.00  0.00    +0.000 NA
ENDBRANCH   1  12
BRANCH   4  14
ATOM     14  N   UNL     1       5.476   5.250  17.085  0.00  0.00    +0.000 N 
ATOM     15  C   UNL     1       5.208   4.171  16.182  0.00  0.00    +0.000 C 
ATOM     16  C   UNL     1       6.542   3.971  15.490  0.00  0.00    +0.000 C 
ATOM     17  O   UNL     1       7.490   4.489  16.435  0.00  0.00    +0.000 OA
ATOM     18  C   UNL     1       6.846   5.373  17.262  0.00  0.00    +0.000 C 
ATOM     19  O   UNL     1       7.450   6.095  18.035  0.00  0.00    +0.000 OA
BRANCH  16  20
ATOM     20  C   UNL     1       6.645   4.753  14.175  0.00  0.00    +0.000 C 
ATOM     21  I   UNL     1       6.055   3.525  12.503  0.00  0.00    +0.000 I 
ENDBRANCH  16  20
ENDBRANCH   4  14
TORSDOF 3
ENDMDL
MODEL 4
REMARK VINA RESULT:      -7.6      5.778      8.355
REMARK  Name = 
REMARK  4 active torsions:
REMARK  status: ('A' for Active; 'I' for Inactive)
REMARK    1  A    between atoms: C_1  and  C_2
REMARK    2  A    between atoms: C_5  and  C_6
REMARK    3  A    between atoms: C_9  and  N_10
REMARK    4  A    between atoms: C_12  and  C_13
REMARK                            x       y       z     vdW  Elec       q    Type
REMARK                         _______ _______ _______ _____ _____    ______ ____
ROOT
ATOM      1  C   UNL     1       1.266   8.927  20.015  0.00  0.00    +0.000 A 
ATOM      2  C   UNL     1       1.684   7.742  20.632  0.00  0.00    +0.000 A 
ATOM      3  C   UNL     1       2.356   6.745  19.907  0.00  0.00    +0.000 A 
ATOM      4  C   UNL     1       2.649   6.916  18.549  0.00  0.00    +0.000 A 
ATOM      5  C   UNL     1       2.234   8.101  17.934  0.00  0.00    +0.000 A 
ATOM      6  C   UNL     1       1.541   9.077  18.655  0.00  0.00    +0.000 A 
ATOM      7  F   UNL     1       1.155  10.175  17.989  0.00  0.00    +0.000 F 
ENDROOT
BRANCH   1  12
ATOM      8  C   UNL     1      -1.627  11.553  23.002  0.00  0.00    +0.000 C 
ATOM      9  C   UNL     1      -0.565  11.155  22.060  0.00  0.00    +0.000 A 
ATOM     10  N   UNL     1       0.425  11.982  21.702  0.00  0.00    +0.000 NA
ATOM     11  O   UNL     1       1.205  11.190  20.858  0.00  0.00    +0.000 OA
ATOM     12  C   UNL     1       0.606   9.962  20.800  0.00  0.00    +0.000 A 
ATOM     13  N   UNL     1      -0.498   9.899  21.514  0.00  0.00    +0.000 NA
ENDBRANCH   1  12
BRANCH   4  14
ATOM     14  N   UNL     1       3.358   5.937  17.818  0.00  0.00    +0.000 N 
ATOM     15  C   UNL     1       4.545   6.211  17.064  0.00  0.00    +0.000 C 
ATOM     16  C   UNL     1       5.059   4.825  16.727  0.00  0.00    +0.000 C 
ATOM     17  O   UNL     1       3.880   4.008  16.785  0.00  0.00    +0.000 OA
ATOM     18  C   UNL     1       2.953   4.632  17.580  0.00  0.00    +0.000 C 
ATOM     19  O   UNL     1       1.935   4.074  17.949  0.00  0.00    +0.000 OA
BRANCH  16  20
ATOM     20  C   UNL     1       6.089   4.316  17.743  0.00  0.00    +0.000 C 
ATOM     21  I   UNL     1       7.345   5.927  18.435  0.00  0.00    +0.000 I 
ENDBRANCH  16  20
ENDBRANCH   4  14
TORSDOF 3
ENDMDL
MODEL 5
REMARK VINA RESULT:      -7.5      4.504      7.580
REMARK  Name = 
REMARK  4 active torsions:
REMARK  status: ('A' for Active; 'I' for Inactive)
REMARK    1  A    between atoms: C_1  and  C_2
REMARK    2  A    between atoms: C_5  and  C_6
REMARK    3  A    between atoms: C_9  and  N_10
REMARK    4  A    between atoms: C_12  and  C_13
REMARK                            x       y       z     vdW  Elec       q    Type
REMARK                         _______ _______ _______ _____ _____    ______ ____
ROOT
ATOM      1  C   UNL     1       2.481   7.355  19.323  0.00  0.00    +0.000 A 
ATOM      2  C   UNL     1       3.066   7.889  18.168  0.00  0.00    +0.000 A 
ATOM      3  C   UNL     1       4.003   7.154  17.423  0.00  0.00    +0.000 A 
ATOM      4  C   UNL     1       4.365   5.856  17.801  0.00  0.00    +0.000 A 
ATOM      5  C   UNL     1       3.778   5.322  18.953  0.00  0.00    +0.000 A 
ATOM      6  C   UNL     1       2.867   6.069  19.705  0.00  0.00    +0.000 A 
ATOM      7  F   UNL     1       2.367   5.497  20.810  0.00  0.00    +0.000 F 
ENDROOT
BRANCH   1  12
ATOM      8  C   UNL     1      -0.472   9.380  22.693  0.00  0.00    +0.000 C 
ATOM      9  C   UNL     1       0.195   9.047  21.421  0.00  0.00    +0.000 A 
ATOM     10  N   UNL     1      -0.021   9.737  20.295  0.00  0.00    +0.000 NA
ATOM     11  O   UNL     1       0.834   9.120  19.380  0.00  0.00    +0.000 OA
ATOM     12  C   UNL     1       1.482   8.122  20.054  0.00  0.00    +0.000 A 
ATOM     13  N   UNL     1       1.108   8.030  21.313  0.00  0.00    +0.000 NA
ENDBRANCH   1  12
BRANCH   4  14
ATOM     14  N   UNL     1       5.278   5.092  17.039  0.00  0.00    +0.000 N 
ATOM     15  C   UNL     1       4.884   4.070  16.116  0.00  0.00    +0.000 C 
ATOM     16  C   UNL     1       6.171   3.775  15.370  0.00  0.00    +0.000 C 
ATOM     17  O   UNL     1       7.193   4.177  16.295  0.00  0.00    +0.000 OA
ATOM     18  C   UNL     1       6.658   5.088  17.170  0.00  0.00    +0.000 C 
ATOM     19  O   UNL     1       7.350   5.729  17.940  0.00  0.00    +0.000 OA
BRANCH  16  20
ATOM     20  C   UNL     1       6.299   4.585  14.075  0.00  0.00    +0.000 C 
ATOM     21  I   UNL     1       6.034   3.321  12.348  0.00  0.00    +0.000 I 
ENDBRANCH  16  20
ENDBRANCH   4  14
TORSDOF 3
ENDMDL
MODEL 6
REMARK VINA RESULT:      -7.4      5.116      7.930
REMARK  Name = 
REMARK  4 active torsions:
REMARK  status: ('A' for Active; 'I' for Inactive)
REMARK    1  A    between atoms: C_1  and  C_2
REMARK    2  A    between atoms: C_5  and  C_6
REMARK    3  A    between atoms: C_9  and  N_10
REMARK    4  A    between atoms: C_12  and  C_13
REMARK                            x       y       z     vdW  Elec       q    Type
REMARK                         _______ _______ _______ _____ _____    ______ ____
ROOT
ATOM      1  C   UNL     1       1.814   8.129  19.560  0.00  0.00    +0.000 A 
ATOM      2  C   UNL     1       2.314   8.598  18.339  0.00  0.00    +0.000 A 
ATOM      3  C   UNL     1       3.183   7.815  17.561  0.00  0.00    +0.000 A 
ATOM      4  C   UNL     1       3.558   6.532  17.973  0.00  0.00    +0.000 A 
ATOM      5  C   UNL     1       3.056   6.062  19.191  0.00  0.00    +0.000 A 
ATOM      6  C   UNL     1       2.215   6.857  19.973  0.00  0.00    +0.000 A 
ATOM      7  F   UNL     1       1.795   6.346  21.140  0.00  0.00    +0.000 F 
ENDROOT
BRANCH   1  12
ATOM      8  C   UNL     1      -0.804  10.402  23.047  0.00  0.00    +0.000 C 
ATOM      9  C   UNL     1      -0.270   9.969  21.743  0.00  0.00    +0.000 A 
ATOM     10  N   UNL     1      -0.618  10.557  20.593  0.00  0.00    +0.000 NA
ATOM     11  O   UNL     1       0.147   9.874  19.646  0.00  0.00    +0.000 OA
ATOM     12  C   UNL     1       0.884   8.945  20.327  0.00  0.00    +0.000 A 
ATOM     13  N   UNL     1       0.648   8.957  21.623  0.00  0.00    +0.000 NA
ENDBRANCH   1  12
BRANCH   4  14
ATOM     14  N   UNL     1       4.401   5.719  17.181  0.00  0.00    +0.000 N 
ATOM     15  C   UNL     1       5.561   6.205  16.496  0.00  0.00    +0.000 C 
ATOM     16  C   UNL     1       6.251   4.930  16.053  0.00  0.00    +0.000 C 
ATOM     17  O   UNL     1       5.182   3.974  15.997  0.00  0.00    +0.000 OA
ATOM     18  C   UNL     1       4.167   4.403  16.814  0.00  0.00    +0.000 C 
ATOM     19  O   UNL     1       3.219   3.693  17.096  0.00  0.00    +0.000 OA
BRANCH  16  20
ATOM     20  C   UNL     1       7.313   4.458  17.053  0.00  0.00    +0.000 C 
ATOM     21  I   UNL     1       7.534   5.876  18.664  0.00  0.00    +0.000 I 
ENDBRANCH  16  20
ENDBRANCH   4  14
TORSDOF 3
ENDMDL
MODEL 7
REMARK VINA RESULT:      -7.3      5.759      7.392
REMARK  Name = 
REMARK  4 active torsions:
REMARK  status: ('A' for Active; 'I' for Inactive)
REMARK    1  A    between atoms: C_1  and  C_2
REMARK    2  A    between atoms: C_5  and  C_6
REMARK    3  A    between atoms: C_9  and  N_10
REMARK    4  A    between atoms: C_12  and  C_13
REMARK                            x       y       z     vdW  Elec       q    Type
REMARK                         _______ _______ _______ _____ _____    ______ ____
ROOT
ATOM      1  C   UNL     1       1.380   9.155  18.987  0.00  0.00    +0.000 A 
ATOM      2  C   UNL     1       2.144   8.744  17.888  0.00  0.00    +0.000 A 
ATOM      3  C   UNL     1       2.900   7.561  17.932  0.00  0.00    +0.000 A 
ATOM      4  C   UNL     1       2.895   6.745  19.070  0.00  0.00    +0.000 A 
ATOM      5  C   UNL     1       2.129   7.154  20.165  0.00  0.00    +0.000 A 
ATOM      6  C   UNL     1       1.401   8.347  20.125  0.00  0.00    +0.000 A 
ATOM      7  F   UNL     1       0.712   8.685  21.224  0.00  0.00    +0.000 F 
ENDROOT
BRANCH   1  12
ATOM      8  C   UNL     1      -0.332  13.738  18.485  0.00  0.00    +0.000 C 
ATOM      9  C   UNL     1      -0.245  12.280  18.688  0.00  0.00    +0.000 A 
ATOM     10  N   UNL     1      -1.329  11.498  18.753  0.00  0.00    +0.000 NA
ATOM     11  O   UNL     1      -0.786  10.220  18.899  0.00  0.00    +0.000 OA
ATOM     12  C   UNL     1       0.574  10.365  18.900  0.00  0.00    +0.000 A 
ATOM     13  N   UNL     1       0.954  11.621  18.788  0.00  0.00    +0.000 NA
ENDBRANCH   1  12
BRANCH   4  14
ATOM     14  N   UNL     1       3.620   5.533  19.112  0.00  0.00    +0.000 N 
ATOM     15  C   UNL     1       3.311   4.451  19.998  0.00  0.00    +0.000 C 
ATOM     16  C   UNL     1       4.166   3.320  19.461  0.00  0.00    +0.000 C 
ATOM     17  O   UNL     1       5.233   4.000  18.783  0.00  0.00    +0.000 OA
ATOM     18  C   UNL     1       4.806   5.260  18.448  0.00  0.00    +0.000 C 
ATOM     19  O   UNL     1       5.445   5.984  17.706  0.00  0.00    +0.000 OA
BRANCH  16  20
ATOM     20  C   UNL     1       3.408   2.431  18.467  0.00  0.00    +0.000 C 
ATOM     21  I   UNL     1       1.284   2.510  18.830  0.00  0.00    +0.000 I 
ENDBRANCH  16  20
ENDBRANCH   4  14
TORSDOF 3
ENDMDL
MODEL 8
REMARK VINA RESULT:      -7.3      5.676      7.319
REMARK  Name = 
REMARK  4 active torsions:
REMARK  status: ('A' for Active; 'I' for Inactive)
REMARK    1  A    between atoms: C_1  and  C_2
REMARK    2  A    between atoms: C_5  and  C_6
REMARK    3  A    between atoms: C_9  and  N_10
REMARK    4  A    between atoms: C_12  and  C_13
REMARK                            x       y       z     vdW  Elec       q    Type
REMARK                         _______ _______ _______ _____ _____    ______ ____
ROOT
ATOM      1  C   UNL     1       2.692   6.306  19.385  0.00  0.00    +0.000 A 
ATOM      2  C   UNL     1       1.957   6.655  20.525  0.00  0.00    +0.000 A 
ATOM      3  C   UNL     1       1.351   7.917  20.639  0.00  0.00    +0.000 A 
ATOM      4  C   UNL     1       1.444   8.857  19.606  0.00  0.00    +0.000 A 
ATOM      5  C   UNL     1       2.176   8.506  18.467  0.00  0.00    +0.000 A 
ATOM      6  C   UNL     1       2.800   7.260  18.372  0.00  0.00    +0.000 A 
ATOM      7  F   UNL     1       3.504   7.007  17.259  0.00  0.00    +0.000 F 
ENDROOT
BRANCH   1  12
ATOM      8  C   UNL     1       3.646   1.551  18.569  0.00  0.00    +0.000 C 
ATOM      9  C   UNL     1       3.776   2.970  18.950  0.00  0.00    +0.000 A 
ATOM     10  N   UNL     1       4.945   3.514  19.307  0.00  0.00    +0.000 NA
ATOM     11  O   UNL     1       4.615   4.851  19.529  0.00  0.00    +0.000 OA
ATOM     12  C   UNL     1       3.277   4.977  19.276  0.00  0.00    +0.000 A 
ATOM     13  N   UNL     1       2.714   3.837  18.930  0.00  0.00    +0.000 NA
ENDBRANCH   1  12
BRANCH   4  14
ATOM     14  N   UNL     1       0.807  10.115  19.692  0.00  0.00    +0.000 N 
ATOM     15  C   UNL     1       0.382  10.872  18.553  0.00  0.00    +0.000 C 
ATOM     16  C   UNL     1      -0.475  11.960  19.170  0.00  0.00    +0.000 C 
ATOM     17  O   UNL     1       0.025  12.058  20.512  0.00  0.00    +0.000 OA
ATOM     18  C   UNL     1       0.638  10.875  20.839  0.00  0.00    +0.000 C 
ATOM     19  O   UNL     1       0.986  10.620  21.978  0.00  0.00    +0.000 OA
BRANCH  16  20
ATOM     20  C   UNL     1      -1.963  11.589  19.201  0.00  0.00    +0.000 C 
ATOM     21  I   UNL     1      -2.471  10.312  17.539  0.00  0.00    +0.000 I 
ENDBRANCH  16  20
ENDBRANCH   4  14
TORSDOF 3
ENDMDL
MODEL 9
REMARK VINA RESULT:      -7.3      5.602      8.018
REMARK  Name = 
REMARK  4 active torsions:
REMARK  status: ('A' for Active; 'I' for Inactive)
REMARK    1  A    between atoms: C_1  and  C_2
REMARK    2  A    between atoms: C_5  and  C_6
REMARK    3  A    between atoms: C_9  and  N_10
REMARK    4  A    between atoms: C_12  and  C_13
REMARK                            x       y       z     vdW  Elec       q    Type
REMARK                         _______ _______ _______ _____ _____    ______ ____
ROOT
ATOM      1  C   UNL     1       1.301   8.825  19.907  0.00  0.00    +0.000 A 
ATOM      2  C   UNL     1       1.492   7.694  20.710  0.00  0.00    +0.000 A 
ATOM      3  C   UNL     1       2.203   6.579  20.236  0.00  0.00    +0.000 A 
ATOM      4  C   UNL     1       2.761   6.574  18.952  0.00  0.00    +0.000 A 
ATOM      5  C   UNL     1       2.573   7.705  18.152  0.00  0.00    +0.000 A 
ATOM      6  C   UNL     1       1.841   8.800  18.620  0.00  0.00    +0.000 A 
ATOM      7  F   UNL     1       1.682   9.837  17.784  0.00  0.00    +0.000 F 
ENDROOT
BRANCH   1  12
ATOM      8  C   UNL     1      -1.885  12.426  20.942  0.00  0.00    +0.000 C 
ATOM      9  C   UNL     1      -0.707  11.540  20.955  0.00  0.00    +0.000 A 
ATOM     10  N   UNL     1       0.243  11.621  21.893  0.00  0.00    +0.000 NA
ATOM     11  O   UNL     1       1.115  10.587  21.549  0.00  0.00    +0.000 OA
ATOM     12  C   UNL     1       0.595   9.983  20.438  0.00  0.00    +0.000 A 
ATOM     13  N   UNL     1      -0.522  10.548  20.026  0.00  0.00    +0.000 NA
ENDBRANCH   1  12
BRANCH   4  14
ATOM     14  N   UNL     1       3.511   5.474  18.478  0.00  0.00    +0.000 N 
ATOM     15  C   UNL     1       2.987   4.476  17.594  0.00  0.00    +0.000 C 
ATOM     16  C   UNL     1       4.229   3.716  17.170  0.00  0.00    +0.000 C 
ATOM     17  O   UNL     1       5.148   3.950  18.248  0.00  0.00    +0.000 OA
ATOM     18  C   UNL     1       4.777   5.099  18.898  0.00  0.00    +0.000 C 
ATOM     19  O   UNL     1       5.488   5.628  19.734  0.00  0.00    +0.000 OA
BRANCH  16  20
ATOM     20  C   UNL     1       4.825   4.246  15.861  0.00  0.00    +0.000 C 
ATOM     21  I   UNL     1       6.925   4.679  16.093  0.00  0.00    +0.000 I 
ENDBRANCH  16  20
ENDBRANCH   4  14
TORSDOF 3
ENDMDL
