MODEL 1
REMARK VINA RESULT:      -9.3      0.000      0.000
REMARK  Name = 
REMARK  2 active torsions:
REMARK  status: ('A' for Active; 'I' for Inactive)
REMARK    1  A    between atoms: N_13  and  C_14
REMARK    2  A    between atoms: C_14  and  C_15
REMARK                            x       y       z     vdW  Elec       q    Type
REMARK                         _______ _______ _______ _____ _____    ______ ____
ROOT
ATOM      1  O   UNL     1       1.238   6.823  21.197  0.00  0.00    +0.000 OA
ATOM      2  C   UNL     1       1.841   6.982  20.137  0.00  0.00    +0.000 A 
ATOM      3  C   UNL     1       1.663   8.312  19.505  0.00  0.00    +0.000 A 
ATOM      4  C   UNL     1       0.787   9.228  20.122  0.00  0.00    +0.000 A 
ATOM      5  C   UNL     1       0.598  10.492  19.581  0.00  0.00    +0.000 A 
ATOM      6  F   UNL     1      -0.229  11.356  20.185  0.00  0.00    +0.000 F 
ATOM      7  C   UNL     1       1.258  10.874  18.426  0.00  0.00    +0.000 A 
ATOM      8  C   UNL     1       2.120   9.971  17.808  0.00  0.00    +0.000 A 
ATOM      9  C   UNL     1       2.331   8.688  18.344  0.00  0.00    +0.000 A 
ATOM     10  S   UNL     1       3.464   7.656  17.490  0.00  0.00    +0.000 S 
ATOM     11  C   UNL     1       3.384   6.100  18.356  0.00  0.00    +0.000 A 
ATOM     12  C   UNL     1       4.090   5.020  17.786  0.00  0.00    +0.000 A 
ATOM     13  N   UNL     1       4.668   5.173  16.512  0.00  0.00    +0.000 N 
ATOM     14  N   UNL     1       4.171   3.821  18.390  0.00  0.00    +0.000 NA
ATOM     15  C   UNL     1       3.542   3.614  19.553  0.00  0.00    +0.000 A 
ATOM     16  C   UNL     1       3.695   2.356  20.128  0.00  0.00    +0.000 A 
ATOM     17  C   UNL     1       3.057   1.991  21.313  0.00  0.00    +0.000 A 
ATOM     18  C   UNL     1       2.241   2.905  21.945  0.00  0.00    +0.000 A 
ATOM     19  C   UNL     1       2.089   4.179  21.393  0.00  0.00    +0.000 A 
ATOM     20  C   UNL     1       2.741   4.587  20.188  0.00  0.00    +0.000 A 
ATOM     21  C   UNL     1       2.674   5.878  19.549  0.00  0.00    +0.000 A 
ATOM     22  H   UNL     1       5.307   5.963  16.505  0.00  0.00    +0.000 HD
ENDROOT
BRANCH  13  23
ATOM     23  C   UNL     1       5.193   3.984  15.861  0.00  0.00    +0.000 C 
BRANCH  23  24
ATOM     24  C   UNL     1       6.002   4.331  14.628  0.00  0.00    +0.000 A 
ATOM     25  C   UNL     1       5.835   3.720  13.379  0.00  0.00    +0.000 A 
ATOM     26  C   UNL     1       6.703   4.020  12.330  0.00  0.00    +0.000 A 
ATOM     27  C   UNL     1       7.728   4.922  12.563  0.00  0.00    +0.000 A 
ATOM     28  N   UNL     1       7.925   5.540  13.746  0.00  0.00    +0.000 NA
ATOM     29  C   UNL     1       7.066   5.224  14.746  0.00  0.00    +0.000 A 
ENDBRANCH  23  24
ENDBRANCH  13  23
TORSDOF 2
ENDMDL
MODEL 2
REMARK VINA RESULT:      -8.1      4.790      8.086
REMARK  Name = 
REMARK  2 active torsions:
REMARK  status: ('A' for Active; 'I' for Inactive)
REMARK    1  A    between atoms: N_13  and  C_14
REMARK    2  A    between atoms: C_14  and  C_15
REMARK                            x       y       z     vdW  Elec       q    Type
REMARK                         _______ _______ _______ _____ _____    ______ ____
ROOT
ATOM      1  O   UNL     1      -4.323  12.953  19.761  0.00  0.00    +0.000 OA
ATOM      2  C   UNL     1      -3.194  12.592  20.092  0.00  0.00    +0.000 A 
ATOM      3  C   UNL     1      -2.721  13.121  21.394  0.00  0.00    +0.000 A 
ATOM      4  C   UNL     1      -3.556  14.021  22.088  0.00  0.00    +0.000 A 
ATOM      5  C   UNL     1      -3.167  14.533  23.319  0.00  0.00    +0.000 A 
ATOM      6  F   UNL     1      -3.977  15.379  23.970  0.00  0.00    +0.000 F 
ATOM      7  C   UNL     1      -1.956  14.175  23.884  0.00  0.00    +0.000 A 
ATOM      8  C   UNL     1      -1.124  13.290  23.201  0.00  0.00    +0.000 A 
ATOM      9  C   UNL     1      -1.502  12.756  21.956  0.00  0.00    +0.000 A 
ATOM     10  S   UNL     1      -0.382  11.629  21.212  0.00  0.00    +0.000 S 
ATOM     11  C   UNL     1      -1.108  11.266  19.625  0.00  0.00    +0.000 A 
ATOM     12  C   UNL     1      -0.334  10.491  18.737  0.00  0.00    +0.000 A 
ATOM     13  N   UNL     1       1.000  10.193  19.068  0.00  0.00    +0.000 N 
ATOM     14  N   UNL     1      -0.808  10.084  17.545  0.00  0.00    +0.000 NA
ATOM     15  C   UNL     1      -2.038  10.443  17.156  0.00  0.00    +0.000 A 
ATOM     16  C   UNL     1      -2.466   9.961  15.923  0.00  0.00    +0.000 A 
ATOM     17  C   UNL     1      -3.704  10.295  15.377  0.00  0.00    +0.000 A 
ATOM     18  C   UNL     1      -4.543  11.134  16.079  0.00  0.00    +0.000 A 
ATOM     19  C   UNL     1      -4.139  11.614  17.327  0.00  0.00    +0.000 A 
ATOM     20  C   UNL     1      -2.882  11.278  17.919  0.00  0.00    +0.000 A 
ATOM     21  C   UNL     1      -2.379  11.694  19.205  0.00  0.00    +0.000 A 
ATOM     22  H   UNL     1       1.045   9.720  19.966  0.00  0.00    +0.000 HD
ENDROOT
BRANCH  13  23
ATOM     23  C   UNL     1       1.833   9.588  18.041  0.00  0.00    +0.000 C 
BRANCH  23  24
ATOM     24  C   UNL     1       2.373   8.243  18.478  0.00  0.00    +0.000 A 
ATOM     25  C   UNL     1       3.194   7.429  17.686  0.00  0.00    +0.000 A 
ATOM     26  C   UNL     1       3.549   6.153  18.124  0.00  0.00    +0.000 A 
ATOM     27  C   UNL     1       3.064   5.720  19.347  0.00  0.00    +0.000 A 
ATOM     28  N   UNL     1       2.277   6.469  20.146  0.00  0.00    +0.000 NA
ATOM     29  C   UNL     1       1.947   7.702  19.690  0.00  0.00    +0.000 A 
ENDBRANCH  23  24
ENDBRANCH  13  23
TORSDOF 2
ENDMDL
MODEL 3
REMARK VINA RESULT:      -8.0      4.096      6.669
REMARK  Name = 
REMARK  2 active torsions:
REMARK  status: ('A' for Active; 'I' for Inactive)
REMARK    1  A    between atoms: N_13  and  C_14
REMARK    2  A    between atoms: C_14  and  C_15
REMARK                            x       y       z     vdW  Elec       q    Type
REMARK                         _______ _______ _______ _____ _____    ______ ____
ROOT
ATOM      1  O   UNL     1       3.318   3.187  16.273  0.00  0.00    +0.000 OA
ATOM      2  C   UNL     1       3.824   4.029  17.014  0.00  0.00    +0.000 A 
ATOM      3  C   UNL     1       3.108   4.253  18.294  0.00  0.00    +0.000 A 
ATOM      4  C   UNL     1       1.906   3.550  18.513  0.00  0.00    +0.000 A 
ATOM      5  C   UNL     1       1.206   3.711  19.702  0.00  0.00    +0.000 A 
ATOM      6  F   UNL     1       0.071   3.027  19.900  0.00  0.00    +0.000 F 
ATOM      7  C   UNL     1       1.670   4.564  20.687  0.00  0.00    +0.000 A 
ATOM      8  C   UNL     1       2.855   5.266  20.473  0.00  0.00    +0.000 A 
ATOM      9  C   UNL     1       3.582   5.112  19.279  0.00  0.00    +0.000 A 
ATOM     10  S   UNL     1       5.073   6.027  19.145  0.00  0.00    +0.000 S 
ATOM     11  C   UNL     1       5.646   5.697  17.489  0.00  0.00    +0.000 A 
ATOM     12  C   UNL     1       6.765   6.433  17.047  0.00  0.00    +0.000 A 
ATOM     13  N   UNL     1       7.257   7.482  17.847  0.00  0.00    +0.000 N 
ATOM     14  N   UNL     1       7.338   6.213  15.851  0.00  0.00    +0.000 NA
ATOM     15  C   UNL     1       6.826   5.294  15.023  0.00  0.00    +0.000 A 
ATOM     16  C   UNL     1       7.490   5.106  13.814  0.00  0.00    +0.000 A 
ATOM     17  C   UNL     1       7.038   4.215  12.842  0.00  0.00    +0.000 A 
ATOM     18  C   UNL     1       5.890   3.490  13.078  0.00  0.00    +0.000 A 
ATOM     19  C   UNL     1       5.219   3.650  14.292  0.00  0.00    +0.000 A 
ATOM     20  C   UNL     1       5.666   4.545  15.314  0.00  0.00    +0.000 A 
ATOM     21  C   UNL     1       5.068   4.768  16.608  0.00  0.00    +0.000 A 
ATOM     22  H   UNL     1       7.493   7.140  18.774  0.00  0.00    +0.000 HD
ENDROOT
BRANCH  13  23
ATOM     23  C   UNL     1       8.261   8.359  17.268  0.00  0.00    +0.000 C 
BRANCH  23  24
ATOM     24  C   UNL     1       8.517   9.570  18.140  0.00  0.00    +0.000 A 
ATOM     25  C   UNL     1       8.403  10.896  17.701  0.00  0.00    +0.000 A 
ATOM     26  C   UNL     1       8.772  11.947  18.540  0.00  0.00    +0.000 A 
ATOM     27  C   UNL     1       9.255  11.642  19.801  0.00  0.00    +0.000 A 
ATOM     28  N   UNL     1       9.377  10.383  20.270  0.00  0.00    +0.000 NA
ATOM     29  C   UNL     1       9.014   9.384  19.429  0.00  0.00    +0.000 A 
ENDBRANCH  23  24
ENDBRANCH  13  23
TORSDOF 2
ENDMDL
MODEL 4
REMARK VINA RESULT:      -8.0      4.331      8.097
REMARK  Name = 
REMARK  2 active torsions:
REMARK  status: ('A' for Active; 'I' for Inactive)
REMARK    1  A    between atoms: N_13  and  C_14
REMARK    2  A    between atoms: C_14  and  C_15
REMARK                            x       y       z     vdW  Elec       q    Type
REMARK                         _______ _______ _______ _____ _____    ______ ____
ROOT
ATOM      1  O   UNL     1       0.914   7.347  21.394  0.00  0.00    +0.000 OA
ATOM      2  C   UNL     1       1.353   7.978  20.434  0.00  0.00    +0.000 A 
ATOM      3  C   UNL     1       2.215   7.202  19.511  0.00  0.00    +0.000 A 
ATOM      4  C   UNL     1       2.503   5.862  19.840  0.00  0.00    +0.000 A 
ATOM      5  C   UNL     1       3.291   5.086  19.001  0.00  0.00    +0.000 A 
ATOM      6  F   UNL     1       3.546   3.811  19.323  0.00  0.00    +0.000 F 
ATOM      7  C   UNL     1       3.811   5.612  17.832  0.00  0.00    +0.000 A 
ATOM      8  C   UNL     1       3.535   6.937  17.503  0.00  0.00    +0.000 A 
ATOM      9  C   UNL     1       2.734   7.738  18.337  0.00  0.00    +0.000 A 
ATOM     10  S   UNL     1       2.434   9.380  17.796  0.00  0.00    +0.000 S 
ATOM     11  C   UNL     1       1.515  10.124  19.130  0.00  0.00    +0.000 A 
ATOM     12  C   UNL     1       1.265  11.508  19.033  0.00  0.00    +0.000 A 
ATOM     13  N   UNL     1       1.877  12.247  18.004  0.00  0.00    +0.000 N 
ATOM     14  N   UNL     1       0.512  12.164  19.935  0.00  0.00    +0.000 NA
ATOM     15  C   UNL     1       0.003  11.507  20.985  0.00  0.00    +0.000 A 
ATOM     16  C   UNL     1      -0.786  12.249  21.859  0.00  0.00    +0.000 A 
ATOM     17  C   UNL     1      -1.339  11.701  23.016  0.00  0.00    +0.000 A 
ATOM     18  C   UNL     1      -1.100  10.376  23.313  0.00  0.00    +0.000 A 
ATOM     19  C   UNL     1      -0.326   9.611  22.438  0.00  0.00    +0.000 A 
ATOM     20  C   UNL     1       0.242  10.139  21.237  0.00  0.00    +0.000 A 
ATOM     21  C   UNL     1       1.031   9.435  20.256  0.00  0.00    +0.000 A 
ATOM     22  H   UNL     1       1.643  11.854  17.097  0.00  0.00    +0.000 HD
ENDROOT
BRANCH  13  23
ATOM     23  C   UNL     1       1.780  13.696  18.061  0.00  0.00    +0.000 C 
BRANCH  23  24
ATOM     24  C   UNL     1       3.074  14.327  18.533  0.00  0.00    +0.000 A 
ATOM     25  C   UNL     1       4.082  14.790  17.677  0.00  0.00    +0.000 A 
ATOM     26  C   UNL     1       5.290  15.250  18.201  0.00  0.00    +0.000 A 
ATOM     27  C   UNL     1       5.461  15.226  19.575  0.00  0.00    +0.000 A 
ATOM     28  N   UNL     1       4.518  14.796  20.438  0.00  0.00    +0.000 NA
ATOM     29  C   UNL     1       3.357  14.352  19.897  0.00  0.00    +0.000 A 
ENDBRANCH  23  24
ENDBRANCH  13  23
TORSDOF 2
ENDMDL
MODEL 5
REMARK VINA RESULT:      -7.5      4.819      8.683
REMARK  Name = 
REMARK  2 active torsions:
REMARK  status: ('A' for Active; 'I' for Inactive)
REMARK    1  A    between atoms: N_13  and  C_14
REMARK    2  A    between atoms: C_14  and  C_15
REMARK                            x       y       z     vdW  Elec       q    Type
REMARK                         _______ _______ _______ _____ _____    ______ ____
ROOT
ATOM      1  O   UNL     1       0.176   8.447  21.775  0.00  0.00    +0.000 OA
ATOM      2  C   UNL     1       0.685   8.995  20.798  0.00  0.00    +0.000 A 
ATOM      3  C   UNL     1       1.536   8.119  19.958  0.00  0.00    +0.000 A 
ATOM      4  C   UNL     1       1.737   6.788  20.377  0.00  0.00    +0.000 A 
ATOM      5  C   UNL     1       2.511   5.921  19.617  0.00  0.00    +0.000 A 
ATOM      6  F   UNL     1       2.683   4.657  20.023  0.00  0.00    +0.000 F 
ATOM      7  C   UNL     1       3.104   6.347  18.441  0.00  0.00    +0.000 A 
ATOM      8  C   UNL     1       2.914   7.663  18.024  0.00  0.00    +0.000 A 
ATOM      9  C   UNL     1       2.128   8.554  18.776  0.00  0.00    +0.000 A 
ATOM     10  S   UNL     1       1.940  10.175  18.129  0.00  0.00    +0.000 S 
ATOM     11  C   UNL     1       1.015  11.046  19.379  0.00  0.00    +0.000 A 
ATOM     12  C   UNL     1       0.846  12.433  19.190  0.00  0.00    +0.000 A 
ATOM     13  N   UNL     1       1.537  13.075  18.145  0.00  0.00    +0.000 N 
ATOM     14  N   UNL     1       0.098  13.181  20.021  0.00  0.00    +0.000 NA
ATOM     15  C   UNL     1      -0.486  12.618  21.086  0.00  0.00    +0.000 A 
ATOM     16  C   UNL     1      -1.265  13.452  21.882  0.00  0.00    +0.000 A 
ATOM     17  C   UNL     1      -1.890  13.006  23.046  0.00  0.00    +0.000 A 
ATOM     18  C   UNL     1      -1.737  11.691  23.429  0.00  0.00    +0.000 A 
ATOM     19  C   UNL     1      -0.975  10.833  22.633  0.00  0.00    +0.000 A 
ATOM     20  C   UNL     1      -0.333  11.257  21.427  0.00  0.00    +0.000 A 
ATOM     21  C   UNL     1       0.451  10.454  20.522  0.00  0.00    +0.000 A 
ATOM     22  H   UNL     1       1.315  12.640  17.254  0.00  0.00    +0.000 HD
ENDROOT
BRANCH  13  23
ATOM     23  C   UNL     1       1.519  14.527  18.114  0.00  0.00    +0.000 C 
BRANCH  23  24
ATOM     24  C   UNL     1       2.915  15.108  18.201  0.00  0.00    +0.000 A 
ATOM     25  C   UNL     1       4.088  14.343  18.191  0.00  0.00    +0.000 A 
ATOM     26  C   UNL     1       5.325  14.954  18.394  0.00  0.00    +0.000 A 
ATOM     27  C   UNL     1       5.355  16.321  18.610  0.00  0.00    +0.000 A 
ATOM     28  N   UNL     1       4.253  17.100  18.622  0.00  0.00    +0.000 NA
ATOM     29  C   UNL     1       3.066  16.475  18.426  0.00  0.00    +0.000 A 
ENDBRANCH  23  24
ENDBRANCH  13  23
TORSDOF 2
ENDMDL
MODEL 6
REMARK VINA RESULT:      -7.4      3.910      6.604
REMARK  Name = 
REMARK  2 active torsions:
REMARK  status: ('A' for Active; 'I' for Inactive)
REMARK    1  A    between atoms: N_13  and  C_14
REMARK    2  A    between atoms: C_14  and  C_15
REMARK                            x       y       z     vdW  Elec       q    Type
REMARK                         _______ _______ _______ _____ _____    ______ ____
ROOT
ATOM      1  O   UNL     1       0.414  14.158  21.431  0.00  0.00    +0.000 OA
ATOM      2  C   UNL     1       0.981  13.641  20.470  0.00  0.00    +0.000 A 
ATOM      3  C   UNL     1       1.613  14.593  19.525  0.00  0.00    +0.000 A 
ATOM      4  C   UNL     1       1.454  15.972  19.767  0.00  0.00    +0.000 A 
ATOM      5  C   UNL     1       2.039  16.906  18.922  0.00  0.00    +0.000 A 
ATOM      6  F   UNL     1       1.887  18.213  19.172  0.00  0.00    +0.000 F 
ATOM      7  C   UNL     1       2.781  16.502  17.826  0.00  0.00    +0.000 A 
ATOM      8  C   UNL     1       2.937  15.140  17.578  0.00  0.00    +0.000 A 
ATOM      9  C   UNL     1       2.358  14.178  18.426  0.00  0.00    +0.000 A 
ATOM     10  S   UNL     1       2.654  12.496  18.024  0.00  0.00    +0.000 S 
ATOM     11  C   UNL     1       1.684  11.581  19.207  0.00  0.00    +0.000 A 
ATOM     12  C   UNL     1       1.610  10.185  19.022  0.00  0.00    +0.000 A 
ATOM     13  N   UNL     1       2.150   9.617  17.853  0.00  0.00    +0.000 N 
ATOM     14  N   UNL     1       0.978   9.381  19.895  0.00  0.00    +0.000 NA
ATOM     15  C   UNL     1       0.362   9.906  20.963  0.00  0.00    +0.000 A 
ATOM     16  C   UNL     1      -0.247   9.006  21.833  0.00  0.00    +0.000 A 
ATOM     17  C   UNL     1      -0.962   9.420  22.956  0.00  0.00    +0.000 A 
ATOM     18  C   UNL     1      -1.074  10.768  23.222  0.00  0.00    +0.000 A 
ATOM     19  C   UNL     1      -0.454  11.685  22.371  0.00  0.00    +0.000 A 
ATOM     20  C   UNL     1       0.297  11.291  21.220  0.00  0.00    +0.000 A 
ATOM     21  C   UNL     1       0.996  12.148  20.293  0.00  0.00    +0.000 A 
ATOM     22  H   UNL     1       3.132   9.863  17.760  0.00  0.00    +0.000 HD
ENDROOT
BRANCH  13  23
ATOM     23  C   UNL     1       1.865   8.217  17.588  0.00  0.00    +0.000 C 
BRANCH  23  24
ATOM     24  C   UNL     1       3.014   7.322  18.003  0.00  0.00    +0.000 A 
ATOM     25  C   UNL     1       4.193   7.160  17.265  0.00  0.00    +0.000 A 
ATOM     26  C   UNL     1       5.148   6.226  17.665  0.00  0.00    +0.000 A 
ATOM     27  C   UNL     1       4.893   5.468  18.795  0.00  0.00    +0.000 A 
ATOM     28  N   UNL     1       3.776   5.592  19.540  0.00  0.00    +0.000 NA
ATOM     29  C   UNL     1       2.865   6.506  19.124  0.00  0.00    +0.000 A 
ENDBRANCH  23  24
ENDBRANCH  13  23
TORSDOF 2
ENDMDL
MODEL 7
REMARK VINA RESULT:      -7.4      4.671      8.244
REMARK  Name = 
REMARK  2 active torsions:
REMARK  status: ('A' for Active; 'I' for Inactive)
REMARK    1  A    between atoms: N_13  and  C_14
REMARK    2  A    between atoms: C_14  and  C_15
REMARK                            x       y       z     vdW  Elec       q    Type
REMARK                         _______ _______ _______ _____ _____    ______ ____
ROOT
ATOM      1  O   UNL     1      -2.941  13.790  20.684  0.00  0.00    +0.000 OA
ATOM      2  C   UNL     1      -2.660  12.862  19.927  0.00  0.00    +0.000 A 
ATOM      3  C   UNL     1      -3.822  12.163  19.328  0.00  0.00    +0.000 A 
ATOM      4  C   UNL     1      -5.114  12.568  19.720  0.00  0.00    +0.000 A 
ATOM      5  C   UNL     1      -6.236  11.958  19.176  0.00  0.00    +0.000 A 
ATOM      6  F   UNL     1      -7.458  12.363  19.550  0.00  0.00    +0.000 F 
ATOM      7  C   UNL     1      -6.109  10.941  18.247  0.00  0.00    +0.000 A 
ATOM      8  C   UNL     1      -4.835  10.532  17.860  0.00  0.00    +0.000 A 
ATOM      9  C   UNL     1      -3.685  11.141  18.395  0.00  0.00    +0.000 A 
ATOM     10  S   UNL     1      -2.140  10.557  17.803  0.00  0.00    +0.000 S 
ATOM     11  C   UNL     1      -0.933  11.443  18.772  0.00  0.00    +0.000 A 
ATOM     12  C   UNL     1       0.414  11.057  18.613  0.00  0.00    +0.000 A 
ATOM     13  N   UNL     1       0.716   9.914  17.849  0.00  0.00    +0.000 N 
ATOM     14  N   UNL     1       1.420  11.705  19.226  0.00  0.00    +0.000 NA
ATOM     15  C   UNL     1       1.154  12.731  20.044  0.00  0.00    +0.000 A 
ATOM     16  C   UNL     1       2.250  13.367  20.620  0.00  0.00    +0.000 A 
ATOM     17  C   UNL     1       2.115  14.418  21.526  0.00  0.00    +0.000 A 
ATOM     18  C   UNL     1       0.851  14.850  21.870  0.00  0.00    +0.000 A 
ATOM     19  C   UNL     1      -0.260  14.236  21.289  0.00  0.00    +0.000 A 
ATOM     20  C   UNL     1      -0.153  13.167  20.346  0.00  0.00    +0.000 A 
ATOM     21  C   UNL     1      -1.228  12.483  19.669  0.00  0.00    +0.000 A 
ATOM     22  H   UNL     1       0.336  10.004  16.911  0.00  0.00    +0.000 HD
ENDROOT
BRANCH  13  23
ATOM     23  C   UNL     1       2.081   9.417  17.887  0.00  0.00    +0.000 C 
BRANCH  23  24
ATOM     24  C   UNL     1       2.178   8.101  18.631  0.00  0.00    +0.000 A 
ATOM     25  C   UNL     1       2.534   6.884  18.035  0.00  0.00    +0.000 A 
ATOM     26  C   UNL     1       2.484   5.702  18.773  0.00  0.00    +0.000 A 
ATOM     27  C   UNL     1       2.069   5.768  20.092  0.00  0.00    +0.000 A 
ATOM     28  N   UNL     1       1.723   6.916  20.710  0.00  0.00    +0.000 NA
ATOM     29  C   UNL     1       1.779   8.047  19.965  0.00  0.00    +0.000 A 
ENDBRANCH  23  24
ENDBRANCH  13  23
TORSDOF 2
ENDMDL
MODEL 8
REMARK VINA RESULT:      -7.2      6.103      9.678
REMARK  Name = 
REMARK  2 active torsions:
REMARK  status: ('A' for Active; 'I' for Inactive)
REMARK    1  A    between atoms: N_13  and  C_14
REMARK    2  A    between atoms: C_14  and  C_15
REMARK                            x       y       z     vdW  Elec       q    Type
REMARK                         _______ _______ _______ _____ _____    ______ ____
ROOT
ATOM      1  O   UNL     1      -5.257  14.199  21.617  0.00  0.00    +0.000 OA
ATOM      2  C   UNL     1      -4.071  13.898  21.749  0.00  0.00    +0.000 A 
ATOM      3  C   UNL     1      -3.397  14.497  22.926  0.00  0.00    +0.000 A 
ATOM      4  C   UNL     1      -4.135  15.390  23.730  0.00  0.00    +0.000 A 
ATOM      5  C   UNL     1      -3.557  15.965  24.853  0.00  0.00    +0.000 A 
ATOM      6  F   UNL     1      -4.275  16.803  25.613  0.00  0.00    +0.000 F 
ATOM      7  C   UNL     1      -2.248  15.681  25.201  0.00  0.00    +0.000 A 
ATOM      8  C   UNL     1      -1.512  14.804  24.407  0.00  0.00    +0.000 A 
ATOM      9  C   UNL     1      -2.081  14.205  23.268  0.00  0.00    +0.000 A 
ATOM     10  S   UNL     1      -1.061  13.096  22.370  0.00  0.00    +0.000 S 
ATOM     11  C   UNL     1      -2.043  12.640  20.954  0.00  0.00    +0.000 A 
ATOM     12  C   UNL     1      -1.405  11.863  19.965  0.00  0.00    +0.000 A 
ATOM     13  N   UNL     1      -0.020  11.632  20.058  0.00  0.00    +0.000 N 
ATOM     14  N   UNL     1      -2.065  11.390  18.893  0.00  0.00    +0.000 NA
ATOM     15  C   UNL     1      -3.361  11.682  18.722  0.00  0.00    +0.000 A 
ATOM     16  C   UNL     1      -3.980  11.134  17.603  0.00  0.00    +0.000 A 
ATOM     17  C   UNL     1      -5.311  11.395  17.280  0.00  0.00    +0.000 A 
ATOM     18  C   UNL     1      -6.049  12.227  18.095  0.00  0.00    +0.000 A 
ATOM     19  C   UNL     1      -5.451  12.772  19.233  0.00  0.00    +0.000 A 
ATOM     20  C   UNL     1      -4.093  12.512  19.598  0.00  0.00    +0.000 A 
ATOM     21  C   UNL     1      -3.388  12.999  20.758  0.00  0.00    +0.000 A 
ATOM     22  H   UNL     1       0.208  11.199  20.948  0.00  0.00    +0.000 HD
ENDROOT
BRANCH  13  23
ATOM     23  C   UNL     1       0.642  11.022  18.917  0.00  0.00    +0.000 C 
BRANCH  23  24
ATOM     24  C   UNL     1       1.121   9.620  19.231  0.00  0.00    +0.000 A 
ATOM     25  C   UNL     1       0.969   8.996  20.476  0.00  0.00    +0.000 A 
ATOM     26  C   UNL     1       1.545   7.748  20.709  0.00  0.00    +0.000 A 
ATOM     27  C   UNL     1       2.270   7.157  19.688  0.00  0.00    +0.000 A 
ATOM     28  N   UNL     1       2.439   7.717  18.473  0.00  0.00    +0.000 NA
ATOM     29  C   UNL     1       1.870   8.931  18.278  0.00  0.00    +0.000 A 
ENDBRANCH  23  24
ENDBRANCH  13  23
TORSDOF 2
ENDMDL
MODEL 9
REMARK VINA RESULT:      -7.1      4.920      8.554
REMARK  Name = 
REMARK  2 active torsions:
REMARK  status: ('A' for Active; 'I' for Inactive)
REMARK    1  A    between atoms: N_13  and  C_14
REMARK    2  A    between atoms: C_14  and  C_15
REMARK                            x       y       z     vdW  Elec       q    Type
REMARK                         _______ _______ _______ _____ _____    ______ ____
ROOT
ATOM      1  O   UNL     1      -3.411  13.883  20.932  0.00  0.00    +0.000 OA
ATOM      2  C   UNL     1      -3.091  13.013  20.123  0.00  0.00    +0.000 A 
ATOM      3  C   UNL     1      -4.223  12.310  19.474  0.00  0.00    +0.000 A 
ATOM      4  C   UNL     1      -5.532  12.644  19.878  0.00  0.00    +0.000 A 
ATOM      5  C   UNL     1      -6.627  12.027  19.289  0.00  0.00    +0.000 A 
ATOM      6  F   UNL     1      -7.865  12.364  19.677  0.00  0.00    +0.000 F 
ATOM      7  C   UNL     1      -6.457  11.072  18.302  0.00  0.00    +0.000 A 
ATOM      8  C   UNL     1      -5.166  10.734  17.902  0.00  0.00    +0.000 A 
ATOM      9  C   UNL     1      -4.043  11.352  18.482  0.00  0.00    +0.000 A 
ATOM     10  S   UNL     1      -2.474  10.861  17.869  0.00  0.00    +0.000 S 
ATOM     11  C   UNL     1      -1.306  11.730  18.899  0.00  0.00    +0.000 A 
ATOM     12  C   UNL     1       0.055  11.403  18.729  0.00  0.00    +0.000 A 
ATOM     13  N   UNL     1       0.404  10.320  17.900  0.00  0.00    +0.000 N 
ATOM     14  N   UNL     1       1.033  12.049  19.388  0.00  0.00    +0.000 NA
ATOM     15  C   UNL     1       0.725  13.014  20.264  0.00  0.00    +0.000 A 
ATOM     16  C   UNL     1       1.793  13.653  20.887  0.00  0.00    +0.000 A 
ATOM     17  C   UNL     1       1.613  14.642  21.853  0.00  0.00    +0.000 A 
ATOM     18  C   UNL     1       0.333  15.006  22.211  0.00  0.00    +0.000 A 
ATOM     19  C   UNL     1      -0.752  14.389  21.585  0.00  0.00    +0.000 A 
ATOM     20  C   UNL     1      -0.600  13.383  20.581  0.00  0.00    +0.000 A 
ATOM     21  C   UNL     1      -1.645  12.703  19.855  0.00  0.00    +0.000 A 
ATOM     22  H   UNL     1       0.026  10.453  16.966  0.00  0.00    +0.000 HD
ENDROOT
BRANCH  13  23
ATOM     23  C   UNL     1       1.786   9.871  17.920  0.00  0.00    +0.000 C 
BRANCH  23  24
ATOM     24  C   UNL     1       1.932   8.535  18.616  0.00  0.00    +0.000 A 
ATOM     25  C   UNL     1       1.588   8.302  19.954  0.00  0.00    +0.000 A 
ATOM     26  C   UNL     1       1.866   7.070  20.545  0.00  0.00    +0.000 A 
ATOM     27  C   UNL     1       2.491   6.100  19.780  0.00  0.00    +0.000 A 
ATOM     28  N   UNL     1       2.835   6.276  18.488  0.00  0.00    +0.000 NA
ATOM     29  C   UNL     1       2.555   7.485  17.944  0.00  0.00    +0.000 A 
ENDBRANCH  23  24
ENDBRANCH  13  23
TORSDOF 2
ENDMDL
