MODEL 1
REMARK VINA RESULT:      -9.7      0.000      0.000
REMARK  Name = 
REMARK  6 active torsions:
REMARK  status: ('A' for Active; 'I' for Inactive)
REMARK    1  A    between atoms: C_1  and  N_2
REMARK    2  A    between atoms: N_2  and  C_3
REMARK    3  A    between atoms: C_3  and  C_4
REMARK    4  A    between atoms: C_10  and  C_12
REMARK    5  A    between atoms: C_16  and  N_17
REMARK    6  A    between atoms: C_22  and  C_23
REMARK                            x       y       z     vdW  Elec       q    Type
REMARK                         _______ _______ _______ _____ _____    ______ ____
ROOT
ATOM      1  C   UNL     1       2.578   4.703  19.669  0.00  0.00    +0.000 A 
ATOM      2  C   UNL     1       1.897   5.278  20.733  0.00  0.00    +0.000 A 
ATOM      3  C   UNL     1       1.705   6.656  20.459  0.00  0.00    +0.000 A 
ATOM      4  C   UNL     1       1.131   7.733  21.164  0.00  0.00    +0.000 A 
ATOM      5  C   UNL     1       1.158   9.026  20.615  0.00  0.00    +0.000 A 
ATOM      6  C   UNL     1       1.700   9.191  19.332  0.00  0.00    +0.000 A 
ATOM      7  C   UNL     1       2.261   8.141  18.603  0.00  0.00    +0.000 A 
ATOM      8  C   UNL     1       2.241   6.888  19.198  0.00  0.00    +0.000 A 
ATOM      9  N   UNL     1       2.665   5.680  18.710  0.00  0.00    +0.000 N 
ATOM     10  H   UNL     1       2.976   5.544  17.761  0.00  0.00    +0.000 HD
ENDROOT
BRANCH   5  11
ATOM     11  N   UNL     1       0.621  10.093  21.363  0.00  0.00    +0.000 N 
ATOM     12  C   UNL     1      -0.294  11.064  20.943  0.00  0.00    +0.000 A 
ATOM     13  N   UNL     1      -0.238  12.247  21.574  0.00  0.00    +0.000 NA
ATOM     14  C   UNL     1      -1.008  13.233  21.070  0.00  0.00    +0.000 A 
ATOM     15  C   UNL     1      -1.818  13.086  19.971  0.00  0.00    +0.000 A 
ATOM     16  C   UNL     1      -1.847  11.831  19.409  0.00  0.00    +0.000 A 
ATOM     17  N   UNL     1      -1.109  10.826  19.915  0.00  0.00    +0.000 NA
ATOM     18  H   UNL     1       1.246  10.520  22.032  0.00  0.00    +0.000 HD
BRANCH  16  19
ATOM     19  C   UNL     1      -2.643  11.500  18.213  0.00  0.00    +0.000 A 
ATOM     20  C   UNL     1      -2.063  10.923  17.078  0.00  0.00    +0.000 A 
ATOM     21  C   UNL     1      -2.857  10.641  15.971  0.00  0.00    +0.000 A 
ATOM     22  C   UNL     1      -4.209  10.958  16.012  0.00  0.00    +0.000 A 
ATOM     23  C   UNL     1      -4.709  11.539  17.165  0.00  0.00    +0.000 A 
ATOM     24  N   UNL     1      -3.967  11.804  18.262  0.00  0.00    +0.000 NA
ENDBRANCH  16  19
ENDBRANCH   5  11
BRANCH   1  27
ATOM     25  C   UNL     1       3.816   1.420  18.324  0.00  0.00    +0.000 C 
ATOM     26  N   UNL     1       3.410   2.819  18.308  0.00  0.00    +0.000 N 
ATOM     27  C   UNL     1       2.980   3.321  19.547  0.00  0.00    +0.000 C 
ATOM     28  O   UNL     1       2.973   2.591  20.538  0.00  0.00    +0.000 OA
BRANCH  26  29
ATOM     29  C   UNL     1       3.682   3.578  17.078  0.00  0.00    +0.000 C 
BRANCH  29  30
ATOM     30  C   UNL     1       5.164   3.667  16.678  0.00  0.00    +0.000 C 
ATOM     31  C   UNL     1       5.947   4.470  17.734  0.00  0.00    +0.000 C 
ATOM     32  C   UNL     1       7.391   4.698  17.299  0.00  0.00    +0.000 C 
ATOM     33  O   UNL     1       7.436   5.327  16.020  0.00  0.00    +0.000 OA
ATOM     34  C   UNL     1       6.832   4.525  15.007  0.00  0.00    +0.000 C 
ATOM     35  C   UNL     1       5.353   4.320  15.303  0.00  0.00    +0.000 C 
ENDBRANCH  29  30
ENDBRANCH  26  29
ENDBRANCH   1  27
TORSDOF 5
ENDMDL
MODEL 2
REMARK VINA RESULT:      -9.7      3.049      9.669
REMARK  Name = 
REMARK  6 active torsions:
REMARK  status: ('A' for Active; 'I' for Inactive)
REMARK    1  A    between atoms: C_1  and  N_2
REMARK    2  A    between atoms: N_2  and  C_3
REMARK    3  A    between atoms: C_3  and  C_4
REMARK    4  A    between atoms: C_10  and  C_12
REMARK    5  A    between atoms: C_16  and  N_17
REMARK    6  A    between atoms: C_22  and  C_23
REMARK                            x       y       z     vdW  Elec       q    Type
REMARK                         _______ _______ _______ _____ _____    ______ ____
ROOT
ATOM      1  C   UNL     1       0.451  11.302  20.317  0.00  0.00    +0.000 A 
ATOM      2  C   UNL     1       0.454  10.320  21.298  0.00  0.00    +0.000 A 
ATOM      3  C   UNL     1       1.034   9.142  20.762  0.00  0.00    +0.000 A 
ATOM      4  C   UNL     1       1.266   7.842  21.253  0.00  0.00    +0.000 A 
ATOM      5  C   UNL     1       1.824   6.863  20.415  0.00  0.00    +0.000 A 
ATOM      6  C   UNL     1       2.204   7.238  19.118  0.00  0.00    +0.000 A 
ATOM      7  C   UNL     1       2.002   8.521  18.608  0.00  0.00    +0.000 A 
ATOM      8  C   UNL     1       1.418   9.446  19.461  0.00  0.00    +0.000 A 
ATOM      9  N   UNL     1       1.148  10.774  19.259  0.00  0.00    +0.000 N 
ATOM     10  H   UNL     1       1.448  11.284  18.443  0.00  0.00    +0.000 HD
ENDROOT
BRANCH   5  11
ATOM     11  N   UNL     1       2.000   5.558  20.917  0.00  0.00    +0.000 N 
ATOM     12  C   UNL     1       2.713   4.502  20.341  0.00  0.00    +0.000 A 
ATOM     13  N   UNL     1       2.305   3.264  20.659  0.00  0.00    +0.000 NA
ATOM     14  C   UNL     1       2.886   2.249  19.988  0.00  0.00    +0.000 A 
ATOM     15  C   UNL     1       3.843   2.421  19.018  0.00  0.00    +0.000 A 
ATOM     16  C   UNL     1       4.232   3.719  18.781  0.00  0.00    +0.000 A 
ATOM     17  N   UNL     1       3.686   4.743  19.462  0.00  0.00    +0.000 NA
ATOM     18  H   UNL     1       1.212   5.168  21.416  0.00  0.00    +0.000 HD
BRANCH  16  19
ATOM     19  C   UNL     1       5.230   4.090  17.761  0.00  0.00    +0.000 A 
ATOM     20  C   UNL     1       4.924   4.094  16.397  0.00  0.00    +0.000 A 
ATOM     21  C   UNL     1       5.906   4.441  15.474  0.00  0.00    +0.000 A 
ATOM     22  C   UNL     1       7.179   4.757  15.932  0.00  0.00    +0.000 A 
ATOM     23  C   UNL     1       7.411   4.718  17.296  0.00  0.00    +0.000 A 
ATOM     24  N   UNL     1       6.472   4.407  18.215  0.00  0.00    +0.000 NA
ENDBRANCH  16  19
ENDBRANCH   5  11
BRANCH   1  27
ATOM     25  C   UNL     1      -1.783  14.322  20.304  0.00  0.00    +0.000 C 
ATOM     26  N   UNL     1      -1.387  12.935  20.101  0.00  0.00    +0.000 N 
ATOM     27  C   UNL     1      -0.056  12.648  20.446  0.00  0.00    +0.000 C 
ATOM     28  O   UNL     1       0.673  13.538  20.885  0.00  0.00    +0.000 OA
BRANCH  26  29
ATOM     29  C   UNL     1      -2.452  11.980  19.764  0.00  0.00    +0.000 C 
BRANCH  29  30
ATOM     30  C   UNL     1      -2.623  11.692  18.263  0.00  0.00    +0.000 C 
ATOM     31  C   UNL     1      -4.116  11.734  17.885  0.00  0.00    +0.000 C 
ATOM     32  C   UNL     1      -4.333  11.315  16.436  0.00  0.00    +0.000 C 
ATOM     33  O   UNL     1      -3.767  10.029  16.196  0.00  0.00    +0.000 OA
ATOM     34  C   UNL     1      -2.358  10.015  16.411  0.00  0.00    +0.000 C 
ATOM     35  C   UNL     1      -2.040  10.330  17.866  0.00  0.00    +0.000 C 
ENDBRANCH  29  30
ENDBRANCH  26  29
ENDBRANCH   1  27
TORSDOF 5
ENDMDL
MODEL 3
REMARK VINA RESULT:      -9.5      3.950      9.633
REMARK  Name = 
REMARK  6 active torsions:
REMARK  status: ('A' for Active; 'I' for Inactive)
REMARK    1  A    between atoms: C_1  and  N_2
REMARK    2  A    between atoms: N_2  and  C_3
REMARK    3  A    between atoms: C_3  and  C_4
REMARK    4  A    between atoms: C_10  and  C_12
REMARK    5  A    between atoms: C_16  and  N_17
REMARK    6  A    between atoms: C_22  and  C_23
REMARK                            x       y       z     vdW  Elec       q    Type
REMARK                         _______ _______ _______ _____ _____    ______ ____
ROOT
ATOM      1  C   UNL     1       0.583  11.783  19.044  0.00  0.00    +0.000 A 
ATOM      2  C   UNL     1       0.522  11.004  20.191  0.00  0.00    +0.000 A 
ATOM      3  C   UNL     1       1.107   9.741  19.916  0.00  0.00    +0.000 A 
ATOM      4  C   UNL     1       1.292   8.556  20.655  0.00  0.00    +0.000 A 
ATOM      5  C   UNL     1       1.874   7.432  20.046  0.00  0.00    +0.000 A 
ATOM      6  C   UNL     1       2.322   7.552  18.722  0.00  0.00    +0.000 A 
ATOM      7  C   UNL     1       2.167   8.717  17.970  0.00  0.00    +0.000 A 
ATOM      8  C   UNL     1       1.558   9.791  18.602  0.00  0.00    +0.000 A 
ATOM      9  N   UNL     1       1.321  11.060  18.141  0.00  0.00    +0.000 N 
ATOM     10  H   UNL     1       1.669  11.403  17.259  0.00  0.00    +0.000 HD
ENDROOT
BRANCH   5  11
ATOM     11  N   UNL     1       2.003   6.244  20.793  0.00  0.00    +0.000 N 
ATOM     12  C   UNL     1       2.707   5.085  20.453  0.00  0.00    +0.000 A 
ATOM     13  N   UNL     1       2.260   3.938  20.987  0.00  0.00    +0.000 NA
ATOM     14  C   UNL     1       2.835   2.803  20.542  0.00  0.00    +0.000 A 
ATOM     15  C   UNL     1       3.824   2.769  19.589  0.00  0.00    +0.000 A 
ATOM     16  C   UNL     1       4.252   3.990  19.123  0.00  0.00    +0.000 A 
ATOM     17  N   UNL     1       3.711   5.136  19.577  0.00  0.00    +0.000 NA
ATOM     18  H   UNL     1       1.191   5.972  21.330  0.00  0.00    +0.000 HD
BRANCH  16  19
ATOM     19  C   UNL     1       5.289   4.141  18.085  0.00  0.00    +0.000 A 
ATOM     20  C   UNL     1       5.008   3.947  16.729  0.00  0.00    +0.000 A 
ATOM     21  C   UNL     1       6.026   4.091  15.791  0.00  0.00    +0.000 A 
ATOM     22  C   UNL     1       7.306   4.405  16.228  0.00  0.00    +0.000 A 
ATOM     23  C   UNL     1       7.511   4.569  17.587  0.00  0.00    +0.000 A 
ATOM     24  N   UNL     1       6.538   4.458  18.518  0.00  0.00    +0.000 NA
ENDBRANCH  16  19
ENDBRANCH   5  11
BRANCH   1  27
ATOM     25  C   UNL     1       0.170  15.509  19.281  0.00  0.00    +0.000 C 
ATOM     26  N   UNL     1       0.743  14.195  19.540  0.00  0.00    +0.000 N 
ATOM     27  C   UNL     1       0.094  13.133  18.890  0.00  0.00    +0.000 C 
ATOM     28  O   UNL     1      -0.877  13.354  18.166  0.00  0.00    +0.000 OA
BRANCH  26  29
ATOM     29  C   UNL     1       2.021  14.157  20.266  0.00  0.00    +0.000 C 
BRANCH  29  30
ATOM     30  C   UNL     1       3.155  14.984  19.640  0.00  0.00    +0.000 C 
ATOM     31  C   UNL     1       3.723  14.253  18.409  0.00  0.00    +0.000 C 
ATOM     32  C   UNL     1       4.941  14.976  17.846  0.00  0.00    +0.000 C 
ATOM     33  O   UNL     1       5.932  15.150  18.857  0.00  0.00    +0.000 OA
ATOM     34  C   UNL     1       5.458  15.944  19.942  0.00  0.00    +0.000 C 
ATOM     35  C   UNL     1       4.291  15.254  20.635  0.00  0.00    +0.000 C 
ENDBRANCH  29  30
ENDBRANCH  26  29
ENDBRANCH   1  27
TORSDOF 5
ENDMDL
MODEL 4
REMARK VINA RESULT:      -9.4      0.874      1.263
REMARK  Name = 
REMARK  6 active torsions:
REMARK  status: ('A' for Active; 'I' for Inactive)
REMARK    1  A    between atoms: C_1  and  N_2
REMARK    2  A    between atoms: N_2  and  C_3
REMARK    3  A    between atoms: C_3  and  C_4
REMARK    4  A    between atoms: C_10  and  C_12
REMARK    5  A    between atoms: C_16  and  N_17
REMARK    6  A    between atoms: C_22  and  C_23
REMARK                            x       y       z     vdW  Elec       q    Type
REMARK                         _______ _______ _______ _____ _____    ______ ____
ROOT
ATOM      1  C   UNL     1       2.271   4.747  19.068  0.00  0.00    +0.000 A 
ATOM      2  C   UNL     1       1.811   5.304  20.253  0.00  0.00    +0.000 A 
ATOM      3  C   UNL     1       1.679   6.705  20.076  0.00  0.00    +0.000 A 
ATOM      4  C   UNL     1       1.305   7.775  20.912  0.00  0.00    +0.000 A 
ATOM      5  C   UNL     1       1.338   9.092  20.426  0.00  0.00    +0.000 A 
ATOM      6  C   UNL     1       1.680   9.294  19.080  0.00  0.00    +0.000 A 
ATOM      7  C   UNL     1       2.040   8.253  18.223  0.00  0.00    +0.000 A 
ATOM      8  C   UNL     1       2.024   6.972  18.757  0.00  0.00    +0.000 A 
ATOM      9  N   UNL     1       2.276   5.769  18.152  0.00  0.00    +0.000 N 
ATOM     10  H   UNL     1       2.422   5.666  17.160  0.00  0.00    +0.000 HD
ENDROOT
BRANCH   5  11
ATOM     11  N   UNL     1       1.006  10.148  21.298  0.00  0.00    +0.000 N 
ATOM     12  C   UNL     1       0.075  11.172  21.095  0.00  0.00    +0.000 A 
ATOM     13  N   UNL     1       0.307  12.324  21.741  0.00  0.00    +0.000 NA
ATOM     14  C   UNL     1      -0.497  13.361  21.429  0.00  0.00    +0.000 A 
ATOM     15  C   UNL     1      -1.508  13.294  20.502  0.00  0.00    +0.000 A 
ATOM     16  C   UNL     1      -1.705  12.065  19.915  0.00  0.00    +0.000 A 
ATOM     17  N   UNL     1      -0.932  11.011  20.235  0.00  0.00    +0.000 NA
ATOM     18  H   UNL     1       1.767  10.522  21.847  0.00  0.00    +0.000 HD
BRANCH  16  19
ATOM     19  C   UNL     1      -2.729  11.817  18.885  0.00  0.00    +0.000 A 
ATOM     20  C   UNL     1      -2.394  11.352  17.609  0.00  0.00    +0.000 A 
ATOM     21  C   UNL     1      -3.399  11.145  16.669  0.00  0.00    +0.000 A 
ATOM     22  C   UNL     1      -4.715  11.425  17.016  0.00  0.00    +0.000 A 
ATOM     23  C   UNL     1      -4.968  11.895  18.293  0.00  0.00    +0.000 A 
ATOM     24  N   UNL     1      -4.016  12.083  19.232  0.00  0.00    +0.000 NA
ENDBRANCH  16  19
ENDBRANCH   5  11
BRANCH   1  27
ATOM     25  C   UNL     1       4.019   1.472  18.489  0.00  0.00    +0.000 C 
ATOM     26  N   UNL     1       3.874   2.905  18.708  0.00  0.00    +0.000 N 
ATOM     27  C   UNL     1       2.547   3.350  18.820  0.00  0.00    +0.000 C 
ATOM     28  O   UNL     1       1.618   2.548  18.736  0.00  0.00    +0.000 OA
BRANCH  26  29
ATOM     29  C   UNL     1       5.102   3.664  18.984  0.00  0.00    +0.000 C 
BRANCH  29  30
ATOM     30  C   UNL     1       5.465   4.727  17.935  0.00  0.00    +0.000 C 
ATOM     31  C   UNL     1       5.768   4.052  16.584  0.00  0.00    +0.000 C 
ATOM     32  C   UNL     1       6.268   5.062  15.558  0.00  0.00    +0.000 C 
ATOM     33  O   UNL     1       7.402   5.767  16.059  0.00  0.00    +0.000 OA
ATOM     34  C   UNL     1       7.095   6.508  17.238  0.00  0.00    +0.000 C 
ATOM     35  C   UNL     1       6.674   5.570  18.360  0.00  0.00    +0.000 C 
ENDBRANCH  29  30
ENDBRANCH  26  29
ENDBRANCH   1  27
TORSDOF 5
ENDMDL
MODEL 5
REMARK VINA RESULT:      -9.4      3.534     10.377
REMARK  Name = 
REMARK  6 active torsions:
REMARK  status: ('A' for Active; 'I' for Inactive)
REMARK    1  A    between atoms: C_1  and  N_2
REMARK    2  A    between atoms: N_2  and  C_3
REMARK    3  A    between atoms: C_3  and  C_4
REMARK    4  A    between atoms: C_10  and  C_12
REMARK    5  A    between atoms: C_16  and  N_17
REMARK    6  A    between atoms: C_22  and  C_23
REMARK                            x       y       z     vdW  Elec       q    Type
REMARK                         _______ _______ _______ _____ _____    ______ ____
ROOT
ATOM      1  C   UNL     1       0.678  11.899  19.669  0.00  0.00    +0.000 A 
ATOM      2  C   UNL     1       0.762  11.047  20.762  0.00  0.00    +0.000 A 
ATOM      3  C   UNL     1       1.188   9.771  20.312  0.00  0.00    +0.000 A 
ATOM      4  C   UNL     1       1.409   8.527  20.936  0.00  0.00    +0.000 A 
ATOM      5  C   UNL     1       1.782   7.412  20.167  0.00  0.00    +0.000 A 
ATOM      6  C   UNL     1       1.994   7.595  18.793  0.00  0.00    +0.000 A 
ATOM      7  C   UNL     1       1.798   8.818  18.149  0.00  0.00    +0.000 A 
ATOM      8  C   UNL     1       1.399   9.883  18.944  0.00  0.00    +0.000 A 
ATOM      9  N   UNL     1       1.183  11.193  18.606  0.00  0.00    +0.000 N 
ATOM     10  H   UNL     1       1.394  11.574  17.697  0.00  0.00    +0.000 HD
ENDROOT
BRANCH   5  11
ATOM     11  N   UNL     1       1.949   6.169  20.809  0.00  0.00    +0.000 N 
ATOM     12  C   UNL     1       2.667   5.056  20.359  0.00  0.00    +0.000 A 
ATOM     13  N   UNL     1       2.254   3.860  20.803  0.00  0.00    +0.000 NA
ATOM     14  C   UNL     1       2.840   2.779  20.252  0.00  0.00    +0.000 A 
ATOM     15  C   UNL     1       3.809   2.844  19.281  0.00  0.00    +0.000 A 
ATOM     16  C   UNL     1       4.204   4.109  18.911  0.00  0.00    +0.000 A 
ATOM     17  N   UNL     1       3.651   5.201  19.471  0.00  0.00    +0.000 NA
ATOM     18  H   UNL     1       1.154   5.835  21.337  0.00  0.00    +0.000 HD
BRANCH  16  19
ATOM     19  C   UNL     1       5.215   4.367  17.870  0.00  0.00    +0.000 A 
ATOM     20  C   UNL     1       4.860   4.579  16.534  0.00  0.00    +0.000 A 
ATOM     21  C   UNL     1       5.855   4.808  15.588  0.00  0.00    +0.000 A 
ATOM     22  C   UNL     1       7.184   4.800  15.992  0.00  0.00    +0.000 A 
ATOM     23  C   UNL     1       7.459   4.570  17.329  0.00  0.00    +0.000 A 
ATOM     24  N   UNL     1       6.514   4.368  18.272  0.00  0.00    +0.000 NA
ENDBRANCH  16  19
ENDBRANCH   5  11
BRANCH   1  27
ATOM     25  C   UNL     1      -1.355  15.055  19.813  0.00  0.00    +0.000 C 
ATOM     26  N   UNL     1      -1.084  13.624  19.775  0.00  0.00    +0.000 N 
ATOM     27  C   UNL     1       0.276  13.287  19.686  0.00  0.00    +0.000 C 
ATOM     28  O   UNL     1       1.131  14.172  19.649  0.00  0.00    +0.000 OA
BRANCH  26  29
ATOM     29  C   UNL     1      -2.217  12.724  20.035  0.00  0.00    +0.000 C 
BRANCH  29  30
ATOM     30  C   UNL     1      -3.078  13.091  21.255  0.00  0.00    +0.000 C 
ATOM     31  C   UNL     1      -2.564  12.351  22.504  0.00  0.00    +0.000 C 
ATOM     32  C   UNL     1      -3.480  12.581  23.701  0.00  0.00    +0.000 C 
ATOM     33  O   UNL     1      -4.820  12.210  23.386  0.00  0.00    +0.000 OA
ATOM     34  C   UNL     1      -5.354  12.987  22.316  0.00  0.00    +0.000 C 
ATOM     35  C   UNL     1      -4.558  12.750  21.040  0.00  0.00    +0.000 C 
ENDBRANCH  29  30
ENDBRANCH  26  29
ENDBRANCH   1  27
TORSDOF 5
ENDMDL
MODEL 6
REMARK VINA RESULT:      -9.3      2.779      4.862
REMARK  Name = 
REMARK  6 active torsions:
REMARK  status: ('A' for Active; 'I' for Inactive)
REMARK    1  A    between atoms: C_1  and  N_2
REMARK    2  A    between atoms: N_2  and  C_3
REMARK    3  A    between atoms: C_3  and  C_4
REMARK    4  A    between atoms: C_10  and  C_12
REMARK    5  A    between atoms: C_16  and  N_17
REMARK    6  A    between atoms: C_22  and  C_23
REMARK                            x       y       z     vdW  Elec       q    Type
REMARK                         _______ _______ _______ _____ _____    ______ ____
ROOT
ATOM      1  C   UNL     1       2.895   7.156  18.434  0.00  0.00    +0.000 A 
ATOM      2  C   UNL     1       2.219   8.235  17.881  0.00  0.00    +0.000 A 
ATOM      3  C   UNL     1       1.405   8.824  18.883  0.00  0.00    +0.000 A 
ATOM      4  C   UNL     1       0.487   9.892  18.908  0.00  0.00    +0.000 A 
ATOM      5  C   UNL     1      -0.218  10.186  20.087  0.00  0.00    +0.000 A 
ATOM      6  C   UNL     1       0.072   9.437  21.237  0.00  0.00    +0.000 A 
ATOM      7  C   UNL     1       0.987   8.383  21.247  0.00  0.00    +0.000 A 
ATOM      8  C   UNL     1       1.636   8.109  20.052  0.00  0.00    +0.000 A 
ATOM      9  N   UNL     1       2.608   7.183  19.775  0.00  0.00    +0.000 N 
ATOM     10  H   UNL     1       3.054   6.620  20.482  0.00  0.00    +0.000 HD
ENDROOT
BRANCH   5  11
ATOM     11  N   UNL     1      -1.166  11.228  20.071  0.00  0.00    +0.000 N 
ATOM     12  C   UNL     1      -0.934  12.601  19.938  0.00  0.00    +0.000 A 
ATOM     13  N   UNL     1      -1.845  13.415  20.492  0.00  0.00    +0.000 NA
ATOM     14  C   UNL     1      -1.547  14.730  20.503  0.00  0.00    +0.000 A 
ATOM     15  C   UNL     1      -0.386  15.257  19.993  0.00  0.00    +0.000 A 
ATOM     16  C   UNL     1       0.475  14.358  19.407  0.00  0.00    +0.000 A 
ATOM     17  N   UNL     1       0.183  13.046  19.360  0.00  0.00    +0.000 NA
ATOM     18  H   UNL     1      -1.968  11.103  20.672  0.00  0.00    +0.000 HD
BRANCH  16  19
ATOM     19  C   UNL     1       1.775  14.744  18.829  0.00  0.00    +0.000 A 
ATOM     20  C   UNL     1       2.828  13.832  18.706  0.00  0.00    +0.000 A 
ATOM     21  C   UNL     1       4.039  14.251  18.163  0.00  0.00    +0.000 A 
ATOM     22  C   UNL     1       4.180  15.576  17.774  0.00  0.00    +0.000 A 
ATOM     23  C   UNL     1       3.099  16.425  17.939  0.00  0.00    +0.000 A 
ATOM     24  N   UNL     1       1.905  16.041  18.441  0.00  0.00    +0.000 NA
ENDBRANCH  16  19
ENDBRANCH   5  11
BRANCH   1  27
ATOM     25  C   UNL     1       4.504   4.154  16.848  0.00  0.00    +0.000 C 
ATOM     26  N   UNL     1       3.501   4.925  17.571  0.00  0.00    +0.000 N 
ATOM     27  C   UNL     1       3.822   6.279  17.756  0.00  0.00    +0.000 C 
ATOM     28  O   UNL     1       4.880   6.728  17.317  0.00  0.00    +0.000 OA
BRANCH  26  29
ATOM     29  C   UNL     1       2.215   4.262  17.835  0.00  0.00    +0.000 C 
BRANCH  29  30
ATOM     30  C   UNL     1       2.202   3.317  19.047  0.00  0.00    +0.000 C 
ATOM     31  C   UNL     1       1.083   3.728  20.023  0.00  0.00    +0.000 C 
ATOM     32  C   UNL     1       1.132   2.900  21.302  0.00  0.00    +0.000 C 
ATOM     33  O   UNL     1       2.419   2.990  21.910  0.00  0.00    +0.000 OA
ATOM     34  C   UNL     1       3.448   2.483  21.063  0.00  0.00    +0.000 C 
ATOM     35  C   UNL     1       3.544   3.311  19.790  0.00  0.00    +0.000 C 
ENDBRANCH  29  30
ENDBRANCH  26  29
ENDBRANCH   1  27
TORSDOF 5
ENDMDL
MODEL 7
REMARK VINA RESULT:      -9.2      3.987      9.776
REMARK  Name = 
REMARK  6 active torsions:
REMARK  status: ('A' for Active; 'I' for Inactive)
REMARK    1  A    between atoms: C_1  and  N_2
REMARK    2  A    between atoms: N_2  and  C_3
REMARK    3  A    between atoms: C_3  and  C_4
REMARK    4  A    between atoms: C_10  and  C_12
REMARK    5  A    between atoms: C_16  and  N_17
REMARK    6  A    between atoms: C_22  and  C_23
REMARK                            x       y       z     vdW  Elec       q    Type
REMARK                         _______ _______ _______ _____ _____    ______ ____
ROOT
ATOM      1  C   UNL     1       0.426  11.699  19.086  0.00  0.00    +0.000 A 
ATOM      2  C   UNL     1       0.400  10.926  20.239  0.00  0.00    +0.000 A 
ATOM      3  C   UNL     1       1.014   9.677  19.964  0.00  0.00    +0.000 A 
ATOM      4  C   UNL     1       1.239   8.502  20.707  0.00  0.00    +0.000 A 
ATOM      5  C   UNL     1       1.842   7.389  20.098  0.00  0.00    +0.000 A 
ATOM      6  C   UNL     1       2.270   7.513  18.768  0.00  0.00    +0.000 A 
ATOM      7  C   UNL     1       2.076   8.669  18.010  0.00  0.00    +0.000 A 
ATOM      8  C   UNL     1       1.447   9.731  18.645  0.00  0.00    +0.000 A 
ATOM      9  N   UNL     1       1.171  10.989  18.178  0.00  0.00    +0.000 N 
ATOM     10  H   UNL     1       1.499  11.336  17.291  0.00  0.00    +0.000 HD
ENDROOT
BRANCH   5  11
ATOM     11  N   UNL     1       2.011   6.210  20.850  0.00  0.00    +0.000 N 
ATOM     12  C   UNL     1       2.732   5.062  20.503  0.00  0.00    +0.000 A 
ATOM     13  N   UNL     1       2.320   3.911  21.055  0.00  0.00    +0.000 NA
ATOM     14  C   UNL     1       2.910   2.785  20.605  0.00  0.00    +0.000 A 
ATOM     15  C   UNL     1       3.880   2.764  19.632  0.00  0.00    +0.000 A 
ATOM     16  C   UNL     1       4.272   3.991  19.149  0.00  0.00    +0.000 A 
ATOM     17  N   UNL     1       3.717   5.128  19.606  0.00  0.00    +0.000 NA
ATOM     18  H   UNL     1       1.217   5.924  21.406  0.00  0.00    +0.000 HD
BRANCH  16  19
ATOM     19  C   UNL     1       5.284   4.155  18.089  0.00  0.00    +0.000 A 
ATOM     20  C   UNL     1       4.971   3.981  16.737  0.00  0.00    +0.000 A 
ATOM     21  C   UNL     1       5.966   4.137  15.777  0.00  0.00    +0.000 A 
ATOM     22  C   UNL     1       7.256   4.445  16.188  0.00  0.00    +0.000 A 
ATOM     23  C   UNL     1       7.493   4.589  17.544  0.00  0.00    +0.000 A 
ATOM     24  N   UNL     1       6.543   4.466  18.496  0.00  0.00    +0.000 NA
ENDBRANCH  16  19
ENDBRANCH   5  11
BRANCH   1  27
ATOM     25  C   UNL     1      -0.125  15.404  19.368  0.00  0.00    +0.000 C 
ATOM     26  N   UNL     1       0.477  14.105  19.634  0.00  0.00    +0.000 N 
ATOM     27  C   UNL     1      -0.100  13.035  18.931  0.00  0.00    +0.000 C 
ATOM     28  O   UNL     1      -1.038  13.238  18.160  0.00  0.00    +0.000 OA
BRANCH  26  29
ATOM     29  C   UNL     1       1.716  14.094  20.426  0.00  0.00    +0.000 C 
BRANCH  29  30
ATOM     30  C   UNL     1       2.931  14.750  19.752  0.00  0.00    +0.000 C 
ATOM     31  C   UNL     1       3.103  16.193  20.265  0.00  0.00    +0.000 C 
ATOM     32  C   UNL     1       4.213  16.920  19.514  0.00  0.00    +0.000 C 
ATOM     33  O   UNL     1       3.971  16.889  18.109  0.00  0.00    +0.000 OA
ATOM     34  C   UNL     1       3.947  15.557  17.599  0.00  0.00    +0.000 C 
ATOM     35  C   UNL     1       2.802  14.771  18.223  0.00  0.00    +0.000 C 
ENDBRANCH  29  30
ENDBRANCH  26  29
ENDBRANCH   1  27
TORSDOF 5
ENDMDL
MODEL 8
REMARK VINA RESULT:      -9.1      2.910      5.147
REMARK  Name = 
REMARK  6 active torsions:
REMARK  status: ('A' for Active; 'I' for Inactive)
REMARK    1  A    between atoms: C_1  and  N_2
REMARK    2  A    between atoms: N_2  and  C_3
REMARK    3  A    between atoms: C_3  and  C_4
REMARK    4  A    between atoms: C_10  and  C_12
REMARK    5  A    between atoms: C_16  and  N_17
REMARK    6  A    between atoms: C_22  and  C_23
REMARK                            x       y       z     vdW  Elec       q    Type
REMARK                         _______ _______ _______ _____ _____    ______ ____
ROOT
ATOM      1  C   UNL     1       3.291   6.762  18.244  0.00  0.00    +0.000 A 
ATOM      2  C   UNL     1       2.733   7.881  17.643  0.00  0.00    +0.000 A 
ATOM      3  C   UNL     1       1.909   8.543  18.589  0.00  0.00    +0.000 A 
ATOM      4  C   UNL     1       1.076   9.678  18.550  0.00  0.00    +0.000 A 
ATOM      5  C   UNL     1       0.328  10.041  19.683  0.00  0.00    +0.000 A 
ATOM      6  C   UNL     1       0.494   9.288  20.855  0.00  0.00    +0.000 A 
ATOM      7  C   UNL     1       1.323   8.168  20.929  0.00  0.00    +0.000 A 
ATOM      8  C   UNL     1       2.017   7.830  19.776  0.00  0.00    +0.000 A 
ATOM      9  N   UNL     1       2.930   6.829  19.566  0.00  0.00    +0.000 N 
ATOM     10  H   UNL     1       3.291   6.243  20.303  0.00  0.00    +0.000 HD
ENDROOT
BRANCH   5  11
ATOM     11  N   UNL     1      -0.534  11.152  19.602  0.00  0.00    +0.000 N 
ATOM     12  C   UNL     1      -0.202  12.508  19.683  0.00  0.00    +0.000 A 
ATOM     13  N   UNL     1      -1.161  13.330  20.136  0.00  0.00    +0.000 NA
ATOM     14  C   UNL     1      -0.798  14.608  20.364  0.00  0.00    +0.000 A 
ATOM     15  C   UNL     1       0.472  15.091  20.164  0.00  0.00    +0.000 A 
ATOM     16  C   UNL     1       1.384  14.193  19.659  0.00  0.00    +0.000 A 
ATOM     17  N   UNL     1       1.034  12.920  19.398  0.00  0.00    +0.000 NA
ATOM     18  H   UNL     1      -1.450  11.029  20.011  0.00  0.00    +0.000 HD
BRANCH  16  19
ATOM     19  C   UNL     1       2.796  14.532  19.404  0.00  0.00    +0.000 A 
ATOM     20  C   UNL     1       3.314  14.607  18.107  0.00  0.00    +0.000 A 
ATOM     21  C   UNL     1       4.657  14.920  17.923  0.00  0.00    +0.000 A 
ATOM     22  C   UNL     1       5.459  15.132  19.037  0.00  0.00    +0.000 A 
ATOM     23  C   UNL     1       4.879  15.027  20.289  0.00  0.00    +0.000 A 
ATOM     24  N   UNL     1       3.574  14.748  20.498  0.00  0.00    +0.000 NA
ENDBRANCH  16  19
ENDBRANCH   5  11
BRANCH   1  27
ATOM     25  C   UNL     1       4.766   3.617  16.812  0.00  0.00    +0.000 C 
ATOM     26  N   UNL     1       3.787   4.470  17.472  0.00  0.00    +0.000 N 
ATOM     27  C   UNL     1       4.186   5.808  17.630  0.00  0.00    +0.000 C 
ATOM     28  O   UNL     1       5.286   6.176  17.220  0.00  0.00    +0.000 OA
BRANCH  26  29
ATOM     29  C   UNL     1       2.453   3.898  17.703  0.00  0.00    +0.000 C 
BRANCH  29  30
ATOM     30  C   UNL     1       2.303   3.091  19.003  0.00  0.00    +0.000 C 
ATOM     31  C   UNL     1       1.165   3.678  19.859  0.00  0.00    +0.000 C 
ATOM     32  C   UNL     1       1.081   2.990  21.217  0.00  0.00    +0.000 C 
ATOM     33  O   UNL     1       2.335   3.059  21.892  0.00  0.00    +0.000 OA
ATOM     34  C   UNL     1       3.370   2.396  21.169  0.00  0.00    +0.000 C 
ATOM     35  C   UNL     1       3.598   3.075  19.826  0.00  0.00    +0.000 C 
ENDBRANCH  29  30
ENDBRANCH  26  29
ENDBRANCH   1  27
TORSDOF 5
ENDMDL
MODEL 9
REMARK VINA RESULT:      -9.1      3.612     10.384
REMARK  Name = 
REMARK  6 active torsions:
REMARK  status: ('A' for Active; 'I' for Inactive)
REMARK    1  A    between atoms: C_1  and  N_2
REMARK    2  A    between atoms: N_2  and  C_3
REMARK    3  A    between atoms: C_3  and  C_4
REMARK    4  A    between atoms: C_10  and  C_12
REMARK    5  A    between atoms: C_16  and  N_17
REMARK    6  A    between atoms: C_22  and  C_23
REMARK                            x       y       z     vdW  Elec       q    Type
REMARK                         _______ _______ _______ _____ _____    ______ ____
ROOT
ATOM      1  C   UNL     1       0.251  11.518  19.274  0.00  0.00    +0.000 A 
ATOM      2  C   UNL     1       0.234  10.695  20.391  0.00  0.00    +0.000 A 
ATOM      3  C   UNL     1       0.923   9.494  20.082  0.00  0.00    +0.000 A 
ATOM      4  C   UNL     1       1.191   8.301  20.782  0.00  0.00    +0.000 A 
ATOM      5  C   UNL     1       1.870   7.250  20.144  0.00  0.00    +0.000 A 
ATOM      6  C   UNL     1       2.328   7.454  18.834  0.00  0.00    +0.000 A 
ATOM      7  C   UNL     1       2.092   8.630  18.121  0.00  0.00    +0.000 A 
ATOM      8  C   UNL     1       1.389   9.628  18.780  0.00  0.00    +0.000 A 
ATOM      9  N   UNL     1       1.058  10.890  18.359  0.00  0.00    +0.000 N 
ATOM     10  H   UNL     1       1.392  11.292  17.497  0.00  0.00    +0.000 HD
ENDROOT
BRANCH   5  11
ATOM     11  N   UNL     1       2.082   6.049  20.851  0.00  0.00    +0.000 N 
ATOM     12  C   UNL     1       2.810   4.926  20.443  0.00  0.00    +0.000 A 
ATOM     13  N   UNL     1       2.435   3.750  20.968  0.00  0.00    +0.000 NA
ATOM     14  C   UNL     1       3.028   2.650  20.462  0.00  0.00    +0.000 A 
ATOM     15  C   UNL     1       3.966   2.678  19.460  0.00  0.00    +0.000 A 
ATOM     16  C   UNL     1       4.323   3.927  19.006  0.00  0.00    +0.000 A 
ATOM     17  N   UNL     1       3.764   5.038  19.518  0.00  0.00    +0.000 NA
ATOM     18  H   UNL     1       1.311   5.732  21.421  0.00  0.00    +0.000 HD
BRANCH  16  19
ATOM     19  C   UNL     1       5.297   4.144  17.920  0.00  0.00    +0.000 A 
ATOM     20  C   UNL     1       4.936   4.038  16.573  0.00  0.00    +0.000 A 
ATOM     21  C   UNL     1       5.898   4.242  15.588  0.00  0.00    +0.000 A 
ATOM     22  C   UNL     1       7.203   4.526  15.968  0.00  0.00    +0.000 A 
ATOM     23  C   UNL     1       7.488   4.601  17.320  0.00  0.00    +0.000 A 
ATOM     24  N   UNL     1       6.571   4.431  18.298  0.00  0.00    +0.000 NA
ENDBRANCH  16  19
ENDBRANCH   5  11
BRANCH   1  27
ATOM     25  C   UNL     1      -1.037  14.964  20.037  0.00  0.00    +0.000 C 
ATOM     26  N   UNL     1      -0.448  13.656  20.290  0.00  0.00    +0.000 N 
ATOM     27  C   UNL     1      -0.343  12.830  19.159  0.00  0.00    +0.000 C 
ATOM     28  O   UNL     1      -0.731  13.233  18.063  0.00  0.00    +0.000 OA
BRANCH  26  29
ATOM     29  C   UNL     1       0.140  13.436  21.620  0.00  0.00    +0.000 C 
BRANCH  29  30
ATOM     30  C   UNL     1      -0.872  13.291  22.768  0.00  0.00    +0.000 C 
ATOM     31  C   UNL     1      -2.125  12.544  22.273  0.00  0.00    +0.000 C 
ATOM     32  C   UNL     1      -3.208  12.505  23.346  0.00  0.00    +0.000 C 
ATOM     33  O   UNL     1      -3.523  13.824  23.787  0.00  0.00    +0.000 OA
ATOM     34  C   UNL     1      -2.398  14.476  24.374  0.00  0.00    +0.000 C 
ATOM     35  C   UNL     1      -1.289  14.649  23.345  0.00  0.00    +0.000 C 
ENDBRANCH  29  30
ENDBRANCH  26  29
ENDBRANCH   1  27
TORSDOF 5
ENDMDL
