MODEL 1
REMARK VINA RESULT:      -9.4      0.000      0.000
REMARK  Name = 
REMARK  3 active torsions:
REMARK  status: ('A' for Active; 'I' for Inactive)
REMARK    1  A    between atoms: C_2  and  C_14
REMARK    2  A    between atoms: C_14  and  C_22
REMARK    3  A    between atoms: C_15  and  C_16
REMARK                            x       y       z     vdW  Elec       q    Type
REMARK                         _______ _______ _______ _____ _____    ______ ____
ROOT
ATOM      1  O   UNL     1       2.160   9.278  17.463  0.00  0.00    +0.000 OA
ATOM      2  C   UNL     1       2.220   8.358  18.273  0.00  0.00    +0.000 C 
ATOM      3  N   UNL     1       1.624   8.385  19.524  0.00  0.00    +0.000 N 
ATOM      4  C   UNL     1       0.739   9.326  19.943  0.00  0.00    +0.000 A 
ATOM      5  C   UNL     1      -0.094  10.063  18.996  0.00  0.00    +0.000 A 
ATOM      6  C   UNL     1      -0.789  10.845  19.832  0.00  0.00    +0.000 A 
ATOM      7  C   UNL     1      -1.880  11.739  19.478  0.00  0.00    +0.000 A 
ATOM      8  C   UNL     1      -1.544  13.034  19.594  0.00  0.00    +0.000 A 
ATOM      9  C   UNL     1      -1.397  13.613  20.931  0.00  0.00    +0.000 A 
ATOM     10  C   UNL     1      -0.891  12.992  22.019  0.00  0.00    +0.000 A 
ATOM     11  C   UNL     1      -0.344  11.636  22.139  0.00  0.00    +0.000 A 
ATOM     12  C   UNL     1      -0.256  10.701  21.176  0.00  0.00    +0.000 A 
ATOM     13  N   UNL     1       0.569   9.599  21.206  0.00  0.00    +0.000 NA
ATOM     14  H   UNL     1       2.002   7.798  20.256  0.00  0.00    +0.000 HD
ENDROOT
BRANCH   2  15
ATOM     15  C   UNL     1       3.079   7.159  17.993  0.00  0.00    +0.000 C 
ATOM     16  C   UNL     1       4.262   7.341  17.372  0.00  0.00    +0.000 C 
BRANCH  16  17
ATOM     17  C   UNL     1       5.222   6.281  17.043  0.00  0.00    +0.000 A 
ATOM     18  C   UNL     1       5.164   5.665  15.789  0.00  0.00    +0.000 A 
ATOM     19  C   UNL     1       6.112   4.705  15.434  0.00  0.00    +0.000 A 
ATOM     20  C   UNL     1       7.119   4.354  16.332  0.00  0.00    +0.000 A 
ATOM     21  C   UNL     1       7.164   4.947  17.595  0.00  0.00    +0.000 A 
ATOM     22  C   UNL     1       6.216   5.907  17.953  0.00  0.00    +0.000 A 
ENDBRANCH  16  17
BRANCH  15  23
ATOM     23  C   UNL     1       2.698   5.840  18.537  0.00  0.00    +0.000 A 
ATOM     24  C   UNL     1       1.912   4.961  17.777  0.00  0.00    +0.000 A 
ATOM     25  C   UNL     1       1.438   3.774  18.336  0.00  0.00    +0.000 A 
ATOM     26  C   UNL     1       1.753   3.450  19.654  0.00  0.00    +0.000 A 
ATOM     27  C   UNL     1       2.566   4.299  20.405  0.00  0.00    +0.000 A 
ATOM     28  C   UNL     1       3.042   5.488  19.848  0.00  0.00    +0.000 A 
ENDBRANCH  15  23
ENDBRANCH   2  15
TORSDOF 3
ENDMDL
MODEL 2
REMARK VINA RESULT:      -9.3      0.225      1.329
REMARK  Name = 
REMARK  3 active torsions:
REMARK  status: ('A' for Active; 'I' for Inactive)
REMARK    1  A    between atoms: C_2  and  C_14
REMARK    2  A    between atoms: C_14  and  C_22
REMARK    3  A    between atoms: C_15  and  C_16
REMARK                            x       y       z     vdW  Elec       q    Type
REMARK                         _______ _______ _______ _____ _____    ______ ____
ROOT
ATOM      1  O   UNL     1       2.207   9.318  17.454  0.00  0.00    +0.000 OA
ATOM      2  C   UNL     1       2.262   8.374  18.235  0.00  0.00    +0.000 C 
ATOM      3  N   UNL     1       1.649   8.359  19.478  0.00  0.00    +0.000 N 
ATOM      4  C   UNL     1       0.752   9.281  19.914  0.00  0.00    +0.000 A 
ATOM      5  C   UNL     1      -0.073  10.041  18.979  0.00  0.00    +0.000 A 
ATOM      6  C   UNL     1      -0.785  10.792  19.829  0.00  0.00    +0.000 A 
ATOM      7  C   UNL     1      -1.877  11.691  19.488  0.00  0.00    +0.000 A 
ATOM      8  C   UNL     1      -1.551  12.984  19.648  0.00  0.00    +0.000 A 
ATOM      9  C   UNL     1      -1.426  13.521  21.004  0.00  0.00    +0.000 A 
ATOM     10  C   UNL     1      -0.931  12.870  22.080  0.00  0.00    +0.000 A 
ATOM     11  C   UNL     1      -0.376  11.515  22.165  0.00  0.00    +0.000 A 
ATOM     12  C   UNL     1      -0.269  10.611  21.175  0.00  0.00    +0.000 A 
ATOM     13  N   UNL     1       0.563   9.514  21.182  0.00  0.00    +0.000 NA
ATOM     14  H   UNL     1       2.020   7.752  20.197  0.00  0.00    +0.000 HD
ENDROOT
BRANCH   2  15
ATOM     15  C   UNL     1       3.132   7.190  17.930  0.00  0.00    +0.000 C 
ATOM     16  C   UNL     1       4.303   7.394  17.293  0.00  0.00    +0.000 C 
BRANCH  16  17
ATOM     17  C   UNL     1       5.272   6.351  16.939  0.00  0.00    +0.000 A 
ATOM     18  C   UNL     1       6.325   6.065  17.813  0.00  0.00    +0.000 A 
ATOM     19  C   UNL     1       7.215   5.031  17.526  0.00  0.00    +0.000 A 
ATOM     20  C   UNL     1       7.061   4.281  16.361  0.00  0.00    +0.000 A 
ATOM     21  C   UNL     1       6.028   4.581  15.471  0.00  0.00    +0.000 A 
ATOM     22  C   UNL     1       5.136   5.616  15.757  0.00  0.00    +0.000 A 
ENDBRANCH  16  17
BRANCH  15  23
ATOM     23  C   UNL     1       2.778   5.861  18.467  0.00  0.00    +0.000 A 
ATOM     24  C   UNL     1       3.340   5.410  19.670  0.00  0.00    +0.000 A 
ATOM     25  C   UNL     1       3.114   4.105  20.111  0.00  0.00    +0.000 A 
ATOM     26  C   UNL     1       2.317   3.244  19.360  0.00  0.00    +0.000 A 
ATOM     27  C   UNL     1       1.722   3.696  18.182  0.00  0.00    +0.000 A 
ATOM     28  C   UNL     1       1.946   5.001  17.738  0.00  0.00    +0.000 A 
ENDBRANCH  15  23
ENDBRANCH   2  15
TORSDOF 3
ENDMDL
MODEL 3
REMARK VINA RESULT:      -9.1      1.280      1.755
REMARK  Name = 
REMARK  3 active torsions:
REMARK  status: ('A' for Active; 'I' for Inactive)
REMARK    1  A    between atoms: C_2  and  C_14
REMARK    2  A    between atoms: C_14  and  C_22
REMARK    3  A    between atoms: C_15  and  C_16
REMARK                            x       y       z     vdW  Elec       q    Type
REMARK                         _______ _______ _______ _____ _____    ______ ____
ROOT
ATOM      1  O   UNL     1       2.048   7.776  20.244  0.00  0.00    +0.000 OA
ATOM      2  C   UNL     1       2.208   7.744  19.028  0.00  0.00    +0.000 C 
ATOM      3  N   UNL     1       1.539   8.565  18.135  0.00  0.00    +0.000 N 
ATOM      4  C   UNL     1       0.781   9.637  18.483  0.00  0.00    +0.000 A 
ATOM      5  C   UNL     1       1.021  10.369  19.724  0.00  0.00    +0.000 A 
ATOM      6  C   UNL     1       0.075  11.313  19.643  0.00  0.00    +0.000 A 
ATOM      7  C   UNL     1      -0.115  12.431  20.554  0.00  0.00    +0.000 A 
ATOM      8  C   UNL     1      -1.227  12.308  21.297  0.00  0.00    +0.000 A 
ATOM      9  C   UNL     1      -2.531  12.502  20.660  0.00  0.00    +0.000 A 
ATOM     10  C   UNL     1      -2.870  12.131  19.406  0.00  0.00    +0.000 A 
ATOM     11  C   UNL     1      -2.065  11.432  18.398  0.00  0.00    +0.000 A 
ATOM     12  C   UNL     1      -0.786  11.032  18.507  0.00  0.00    +0.000 A 
ATOM     13  N   UNL     1      -0.177  10.082  17.719  0.00  0.00    +0.000 NA
ATOM     14  H   UNL     1       1.428   8.256  17.178  0.00  0.00    +0.000 HD
ENDROOT
BRANCH   2  15
ATOM     15  C   UNL     1       3.076   6.688  18.408  0.00  0.00    +0.000 C 
ATOM     16  C   UNL     1       4.203   7.068  17.772  0.00  0.00    +0.000 C 
BRANCH  16  17
ATOM     17  C   UNL     1       5.165   6.164  17.131  0.00  0.00    +0.000 A 
ATOM     18  C   UNL     1       5.009   5.836  15.782  0.00  0.00    +0.000 A 
ATOM     19  C   UNL     1       5.952   5.034  15.139  0.00  0.00    +0.000 A 
ATOM     20  C   UNL     1       7.053   4.553  15.844  0.00  0.00    +0.000 A 
ATOM     21  C   UNL     1       7.200   4.854  17.199  0.00  0.00    +0.000 A 
ATOM     22  C   UNL     1       6.256   5.656  17.844  0.00  0.00    +0.000 A 
ENDBRANCH  16  17
BRANCH  15  23
ATOM     23  C   UNL     1       2.775   5.261  18.639  0.00  0.00    +0.000 A 
ATOM     24  C   UNL     1       1.878   4.582  17.801  0.00  0.00    +0.000 A 
ATOM     25  C   UNL     1       1.488   3.274  18.095  0.00  0.00    +0.000 A 
ATOM     26  C   UNL     1       1.998   2.631  19.221  0.00  0.00    +0.000 A 
ATOM     27  C   UNL     1       2.921   3.285  20.038  0.00  0.00    +0.000 A 
ATOM     28  C   UNL     1       3.314   4.594  19.746  0.00  0.00    +0.000 A 
ENDBRANCH  15  23
ENDBRANCH   2  15
TORSDOF 3
ENDMDL
MODEL 4
REMARK VINA RESULT:      -9.1      1.306      2.198
REMARK  Name = 
REMARK  3 active torsions:
REMARK  status: ('A' for Active; 'I' for Inactive)
REMARK    1  A    between atoms: C_2  and  C_14
REMARK    2  A    between atoms: C_14  and  C_22
REMARK    3  A    between atoms: C_15  and  C_16
REMARK                            x       y       z     vdW  Elec       q    Type
REMARK                         _______ _______ _______ _____ _____    ______ ____
ROOT
ATOM      1  O   UNL     1       1.770   7.253  20.368  0.00  0.00    +0.000 OA
ATOM      2  C   UNL     1       2.197   7.504  19.246  0.00  0.00    +0.000 C 
ATOM      3  N   UNL     1       1.812   8.605  18.497  0.00  0.00    +0.000 N 
ATOM      4  C   UNL     1       1.080   9.649  18.968  0.00  0.00    +0.000 A 
ATOM      5  C   UNL     1       1.091  10.008  20.383  0.00  0.00    +0.000 A 
ATOM      6  C   UNL     1       0.265  11.061  20.379  0.00  0.00    +0.000 A 
ATOM      7  C   UNL     1      -0.038  11.931  21.505  0.00  0.00    +0.000 A 
ATOM      8  C   UNL     1      -1.295  11.777  21.953  0.00  0.00    +0.000 A 
ATOM      9  C   UNL     1      -2.403  12.298  21.149  0.00  0.00    +0.000 A 
ATOM     10  C   UNL     1      -2.479  12.301  19.800  0.00  0.00    +0.000 A 
ATOM     11  C   UNL     1      -1.525  11.774  18.819  0.00  0.00    +0.000 A 
ATOM     12  C   UNL     1      -0.338  11.191  19.064  0.00  0.00    +0.000 A 
ATOM     13  N   UNL     1       0.357  10.395  18.182  0.00  0.00    +0.000 NA
ATOM     14  H   UNL     1       1.895   8.563  17.490  0.00  0.00    +0.000 HD
ENDROOT
BRANCH   2  15
ATOM     15  C   UNL     1       3.097   6.530  18.544  0.00  0.00    +0.000 C 
ATOM     16  C   UNL     1       4.193   6.999  17.914  0.00  0.00    +0.000 C 
BRANCH  16  17
ATOM     17  C   UNL     1       5.181   6.181  17.200  0.00  0.00    +0.000 A 
ATOM     18  C   UNL     1       6.310   5.716  17.881  0.00  0.00    +0.000 A 
ATOM     19  C   UNL     1       7.223   4.881  17.239  0.00  0.00    +0.000 A 
ATOM     20  C   UNL     1       7.015   4.511  15.912  0.00  0.00    +0.000 A 
ATOM     21  C   UNL     1       5.904   4.994  15.219  0.00  0.00    +0.000 A 
ATOM     22  C   UNL     1       4.988   5.831  15.860  0.00  0.00    +0.000 A 
ENDBRANCH  16  17
BRANCH  15  23
ATOM     23  C   UNL     1       2.864   5.079  18.689  0.00  0.00    +0.000 A 
ATOM     24  C   UNL     1       3.517   4.354  19.696  0.00  0.00    +0.000 A 
ATOM     25  C   UNL     1       3.405   2.963  19.752  0.00  0.00    +0.000 A 
ATOM     26  C   UNL     1       2.632   2.288  18.811  0.00  0.00    +0.000 A 
ATOM     27  C   UNL     1       1.947   3.005  17.829  0.00  0.00    +0.000 A 
ATOM     28  C   UNL     1       2.057   4.396  17.770  0.00  0.00    +0.000 A 
ENDBRANCH  15  23
ENDBRANCH   2  15
TORSDOF 3
ENDMDL
MODEL 5
REMARK VINA RESULT:      -9.0      1.268      1.988
REMARK  Name = 
REMARK  3 active torsions:
REMARK  status: ('A' for Active; 'I' for Inactive)
REMARK    1  A    between atoms: C_2  and  C_14
REMARK    2  A    between atoms: C_14  and  C_22
REMARK    3  A    between atoms: C_15  and  C_16
REMARK                            x       y       z     vdW  Elec       q    Type
REMARK                         _______ _______ _______ _____ _____    ______ ____
ROOT
ATOM      1  O   UNL     1       1.595   7.326  20.718  0.00  0.00    +0.000 OA
ATOM      2  C   UNL     1       2.015   7.547  19.587  0.00  0.00    +0.000 C 
ATOM      3  N   UNL     1       1.640   8.637  18.818  0.00  0.00    +0.000 N 
ATOM      4  C   UNL     1       0.927   9.701  19.273  0.00  0.00    +0.000 A 
ATOM      5  C   UNL     1       0.955  10.090  20.680  0.00  0.00    +0.000 A 
ATOM      6  C   UNL     1       0.144  11.155  20.660  0.00  0.00    +0.000 A 
ATOM      7  C   UNL     1      -0.137  12.053  21.769  0.00  0.00    +0.000 A 
ATOM      8  C   UNL     1      -1.392  11.926  22.231  0.00  0.00    +0.000 A 
ATOM      9  C   UNL     1      -2.500  12.445  21.426  0.00  0.00    +0.000 A 
ATOM     10  C   UNL     1      -2.587  12.421  20.077  0.00  0.00    +0.000 A 
ATOM     11  C   UNL     1      -1.649  11.860  19.100  0.00  0.00    +0.000 A 
ATOM     12  C   UNL     1      -0.468  11.265  19.347  0.00  0.00    +0.000 A 
ATOM     13  N   UNL     1       0.208  10.440  18.476  0.00  0.00    +0.000 NA
ATOM     14  H   UNL     1       1.714   8.572  17.811  0.00  0.00    +0.000 HD
ENDROOT
BRANCH   2  15
ATOM     15  C   UNL     1       2.896   6.545  18.899  0.00  0.00    +0.000 C 
ATOM     16  C   UNL     1       4.051   6.969  18.347  0.00  0.00    +0.000 C 
BRANCH  16  17
ATOM     17  C   UNL     1       5.029   6.119  17.658  0.00  0.00    +0.000 A 
ATOM     18  C   UNL     1       4.939   5.952  16.273  0.00  0.00    +0.000 A 
ATOM     19  C   UNL     1       5.900   5.203  15.592  0.00  0.00    +0.000 A 
ATOM     20  C   UNL     1       6.950   4.615  16.294  0.00  0.00    +0.000 A 
ATOM     21  C   UNL     1       7.028   4.756  17.680  0.00  0.00    +0.000 A 
ATOM     22  C   UNL     1       6.068   5.504  18.363  0.00  0.00    +0.000 A 
ENDBRANCH  16  17
BRANCH  15  23
ATOM     23  C   UNL     1       2.571   5.107  18.976  0.00  0.00    +0.000 A 
ATOM     24  C   UNL     1       2.969   4.349  20.087  0.00  0.00    +0.000 A 
ATOM     25  C   UNL     1       2.784   2.966  20.103  0.00  0.00    +0.000 A 
ATOM     26  C   UNL     1       2.190   2.330  19.014  0.00  0.00    +0.000 A 
ATOM     27  C   UNL     1       1.756   3.080  17.921  0.00  0.00    +0.000 A 
ATOM     28  C   UNL     1       1.940   4.465  17.903  0.00  0.00    +0.000 A 
ENDBRANCH  15  23
ENDBRANCH   2  15
TORSDOF 3
ENDMDL
MODEL 6
REMARK VINA RESULT:      -8.8      1.351      3.125
REMARK  Name = 
REMARK  3 active torsions:
REMARK  status: ('A' for Active; 'I' for Inactive)
REMARK    1  A    between atoms: C_2  and  C_14
REMARK    2  A    between atoms: C_14  and  C_22
REMARK    3  A    between atoms: C_15  and  C_16
REMARK                            x       y       z     vdW  Elec       q    Type
REMARK                         _______ _______ _______ _____ _____    ______ ____
ROOT
ATOM      1  O   UNL     1       2.584   8.667  17.235  0.00  0.00    +0.000 OA
ATOM      2  C   UNL     1       2.417   7.928  18.200  0.00  0.00    +0.000 C 
ATOM      3  N   UNL     1       1.775   8.310  19.367  0.00  0.00    +0.000 N 
ATOM      4  C   UNL     1       1.076   9.463  19.529  0.00  0.00    +0.000 A 
ATOM      5  C   UNL     1       0.457  10.143  18.394  0.00  0.00    +0.000 A 
ATOM      6  C   UNL     1      -0.109  11.189  19.009  0.00  0.00    +0.000 A 
ATOM      7  C   UNL     1      -0.979  12.185  18.403  0.00  0.00    +0.000 A 
ATOM      8  C   UNL     1      -0.397  13.392  18.311  0.00  0.00    +0.000 A 
ATOM      9  C   UNL     1      -0.206  14.183  19.529  0.00  0.00    +0.000 A 
ATOM     10  C   UNL     1       0.109  13.703  20.752  0.00  0.00    +0.000 A 
ATOM     11  C   UNL     1       0.367  12.319  21.164  0.00  0.00    +0.000 A 
ATOM     12  C   UNL     1       0.315  11.214  20.398  0.00  0.00    +0.000 A 
ATOM     13  N   UNL     1       0.899  10.005  20.701  0.00  0.00    +0.000 NA
ATOM     14  H   UNL     1       1.989   7.818  20.224  0.00  0.00    +0.000 HD
ENDROOT
BRANCH   2  15
ATOM     15  C   UNL     1       3.031   6.559  18.219  0.00  0.00    +0.000 C 
ATOM     16  C   UNL     1       2.259   5.508  18.562  0.00  0.00    +0.000 C 
BRANCH  16  17
ATOM     17  C   UNL     1       2.699   4.108  18.613  0.00  0.00    +0.000 A 
ATOM     18  C   UNL     1       2.483   3.279  17.508  0.00  0.00    +0.000 A 
ATOM     19  C   UNL     1       2.956   1.967  17.512  0.00  0.00    +0.000 A 
ATOM     20  C   UNL     1       3.642   1.477  18.621  0.00  0.00    +0.000 A 
ATOM     21  C   UNL     1       3.836   2.292  19.737  0.00  0.00    +0.000 A 
ATOM     22  C   UNL     1       3.364   3.605  19.736  0.00  0.00    +0.000 A 
ENDBRANCH  16  17
BRANCH  15  23
ATOM     23  C   UNL     1       4.405   6.363  17.714  0.00  0.00    +0.000 A 
ATOM     24  C   UNL     1       4.636   6.183  16.342  0.00  0.00    +0.000 A 
ATOM     25  C   UNL     1       5.912   5.864  15.876  0.00  0.00    +0.000 A 
ATOM     26  C   UNL     1       6.969   5.732  16.774  0.00  0.00    +0.000 A 
ATOM     27  C   UNL     1       6.757   5.948  18.136  0.00  0.00    +0.000 A 
ATOM     28  C   UNL     1       5.480   6.268  18.606  0.00  0.00    +0.000 A 
ENDBRANCH  15  23
ENDBRANCH   2  15
TORSDOF 3
ENDMDL
MODEL 7
REMARK VINA RESULT:      -8.7      1.390      1.911
REMARK  Name = 
REMARK  3 active torsions:
REMARK  status: ('A' for Active; 'I' for Inactive)
REMARK    1  A    between atoms: C_2  and  C_14
REMARK    2  A    between atoms: C_14  and  C_22
REMARK    3  A    between atoms: C_15  and  C_16
REMARK                            x       y       z     vdW  Elec       q    Type
REMARK                         _______ _______ _______ _____ _____    ______ ____
ROOT
ATOM      1  O   UNL     1       1.138   7.315  21.103  0.00  0.00    +0.000 OA
ATOM      2  C   UNL     1       1.654   7.520  20.009  0.00  0.00    +0.000 C 
ATOM      3  N   UNL     1       1.396   8.633  19.226  0.00  0.00    +0.000 N 
ATOM      4  C   UNL     1       0.708   9.730  19.636  0.00  0.00    +0.000 A 
ATOM      5  C   UNL     1       0.651  10.109  21.045  0.00  0.00    +0.000 A 
ATOM      6  C   UNL     1      -0.100  11.215  20.976  0.00  0.00    +0.000 A 
ATOM      7  C   UNL     1      -0.416  12.120  22.070  0.00  0.00    +0.000 A 
ATOM      8  C   UNL     1      -1.707  12.058  22.434  0.00  0.00    +0.000 A 
ATOM      9  C   UNL     1      -2.722  12.641  21.553  0.00  0.00    +0.000 A 
ATOM     10  C   UNL     1      -2.709  12.629  20.202  0.00  0.00    +0.000 A 
ATOM     11  C   UNL     1      -1.730  12.025  19.292  0.00  0.00    +0.000 A 
ATOM     12  C   UNL     1      -0.604  11.366  19.621  0.00  0.00    +0.000 A 
ATOM     13  N   UNL     1       0.091  10.512  18.796  0.00  0.00    +0.000 NA
ATOM     14  H   UNL     1       1.542   8.570  18.227  0.00  0.00    +0.000 HD
ENDROOT
BRANCH   2  15
ATOM     15  C   UNL     1       2.531   6.477  19.380  0.00  0.00    +0.000 C 
ATOM     16  C   UNL     1       3.649   6.871  18.738  0.00  0.00    +0.000 C 
BRANCH  16  17
ATOM     17  C   UNL     1       4.618   5.981  18.088  0.00  0.00    +0.000 A 
ATOM     18  C   UNL     1       4.458   5.659  16.737  0.00  0.00    +0.000 A 
ATOM     19  C   UNL     1       5.407   4.871  16.086  0.00  0.00    +0.000 A 
ATOM     20  C   UNL     1       6.515   4.396  16.783  0.00  0.00    +0.000 A 
ATOM     21  C   UNL     1       6.665   4.691  18.139  0.00  0.00    +0.000 A 
ATOM     22  C   UNL     1       5.716   5.480  18.793  0.00  0.00    +0.000 A 
ENDBRANCH  16  17
BRANCH  15  23
ATOM     23  C   UNL     1       2.247   5.045  19.607  0.00  0.00    +0.000 A 
ATOM     24  C   UNL     1       1.560   4.297  18.639  0.00  0.00    +0.000 A 
ATOM     25  C   UNL     1       1.172   2.983  18.906  0.00  0.00    +0.000 A 
ATOM     26  C   UNL     1       1.476   2.402  20.135  0.00  0.00    +0.000 A 
ATOM     27  C   UNL     1       2.194   3.125  21.089  0.00  0.00    +0.000 A 
ATOM     28  C   UNL     1       2.583   4.441  20.825  0.00  0.00    +0.000 A 
ENDBRANCH  15  23
ENDBRANCH   2  15
TORSDOF 3
ENDMDL
