MODEL 1
REMARK VINA RESULT:      -7.1      0.000      0.000
REMARK  Name = 
REMARK  6 active torsions:
REMARK  status: ('A' for Active; 'I' for Inactive)
REMARK    1  A    between atoms: C_1  and  C_2
REMARK    2  A    between atoms: C_5  and  N_6
REMARK    3  A    between atoms: C_7  and  C_9
REMARK    4  A    between atoms: C_9  and  N_10
REMARK    5  A    between atoms: C_15  and  C_16
REMARK    6  A    between atoms: N_18  and  C_19
REMARK                            x       y       z     vdW  Elec       q    Type
REMARK                         _______ _______ _______ _____ _____    ______ ____
ROOT
ATOM      1  N   UNL     1       0.558  10.512  21.632  0.00  0.00    +0.000 N 
ATOM      2  C   UNL     1       0.290  11.256  20.514  0.00  0.00    +0.000 C 
ATOM      3  O   UNL     1       0.958  11.305  19.495  0.00  0.00    +0.000 OA
ATOM      4  S   UNL     1      -1.173  12.181  20.749  0.00  0.00    +0.000 S 
ATOM      5  C   UNL     1      -1.428  11.557  22.335  0.00  0.00    +0.000 C 
ATOM      6  C   UNL     1      -2.452  11.771  23.171  0.00  0.00    +0.000 C 
ATOM      7  C   UNL     1      -0.303  10.646  22.691  0.00  0.00    +0.000 C 
ATOM      8  O   UNL     1      -0.171  10.132  23.793  0.00  0.00    +0.000 OA
ENDROOT
BRANCH   6   9
ATOM      9  C   UNL     1      -3.544  12.735  22.874  0.00  0.00    +0.000 C 
ATOM     10  O   UNL     1      -4.557  12.358  22.298  0.00  0.00    +0.000 OA
ATOM     11  N   UNL     1      -3.252  14.041  23.226  0.00  0.00    +0.000 N 
ATOM     12  H   UNL     1      -2.308  14.265  23.514  0.00  0.00    +0.000 HD
BRANCH  11  13
ATOM     13  C   UNL     1      -4.141  15.133  23.064  0.00  0.00    +0.000 A 
ATOM     14  C   UNL     1      -5.055  15.517  24.051  0.00  0.00    +0.000 A 
ATOM     15  C   UNL     1      -5.982  16.535  23.818  0.00  0.00    +0.000 A 
ATOM     16  C   UNL     1      -5.992  17.189  22.592  0.00  0.00    +0.000 A 
ATOM     17 CL   UNL     1      -7.179  18.393  22.277  0.00  0.00    +0.000 Cl
ATOM     18  C   UNL     1      -5.048  16.864  21.619  0.00  0.00    +0.000 A 
ATOM     19  C   UNL     1      -4.113  15.848  21.860  0.00  0.00    +0.000 A 
ENDBRANCH  11  13
ENDBRANCH   6   9
BRANCH   1  20
ATOM     20  C   UNL     1       1.661   9.569  21.631  0.00  0.00    +0.000 C 
BRANCH  20  22
ATOM     21  N   UNL     1       2.184   7.386  20.667  0.00  0.00    +0.000 N 
ATOM     22  C   UNL     1       1.162   8.201  21.142  0.00  0.00    +0.000 C 
ATOM     23  O   UNL     1      -0.027   7.894  21.210  0.00  0.00    +0.000 OA
ATOM     24  H   UNL     1       3.138   7.670  20.851  0.00  0.00    +0.000 HD
BRANCH  21  29
ATOM     25  C   UNL     1       1.428   2.164  18.402  0.00  0.00    +0.000 C 
ATOM     26  C   UNL     1       1.651   3.528  18.985  0.00  0.00    +0.000 A 
ATOM     27  C   UNL     1       1.997   4.604  18.164  0.00  0.00    +0.000 A 
ATOM     28  C   UNL     1       2.179   5.884  18.703  0.00  0.00    +0.000 A 
ATOM     29  C   UNL     1       2.023   6.111  20.070  0.00  0.00    +0.000 A 
ATOM     30  C   UNL     1       1.711   5.027  20.899  0.00  0.00    +0.000 A 
ATOM     31  C   UNL     1       1.513   3.747  20.358  0.00  0.00    +0.000 A 
ENDBRANCH  21  29
ENDBRANCH  20  22
ENDBRANCH   1  20
TORSDOF 5
ENDMDL
MODEL 2
REMARK VINA RESULT:      -7.0      5.145     10.904
REMARK  Name = 
REMARK  6 active torsions:
REMARK  status: ('A' for Active; 'I' for Inactive)
REMARK    1  A    between atoms: C_1  and  C_2
REMARK    2  A    between atoms: C_5  and  N_6
REMARK    3  A    between atoms: C_7  and  C_9
REMARK    4  A    between atoms: C_9  and  N_10
REMARK    5  A    between atoms: C_15  and  C_16
REMARK    6  A    between atoms: N_18  and  C_19
REMARK                            x       y       z     vdW  Elec       q    Type
REMARK                         _______ _______ _______ _____ _____    ______ ____
ROOT
ATOM      1  N   UNL     1       0.834  10.375  20.312  0.00  0.00    +0.000 N 
ATOM      2  C   UNL     1       1.026  10.635  18.982  0.00  0.00    +0.000 C 
ATOM      3  O   UNL     1       0.792  11.682  18.403  0.00  0.00    +0.000 OA
ATOM      4  S   UNL     1       1.652   9.214  18.180  0.00  0.00    +0.000 S 
ATOM      5  C   UNL     1       1.667   8.284  19.631  0.00  0.00    +0.000 C 
ATOM      6  C   UNL     1       2.111   7.036  19.828  0.00  0.00    +0.000 C 
ATOM      7  C   UNL     1       1.117   9.105  20.746  0.00  0.00    +0.000 C 
ATOM      8  O   UNL     1       0.922   8.673  21.874  0.00  0.00    +0.000 OA
ENDROOT
BRANCH   6   9
ATOM      9  C   UNL     1       2.590   6.169  18.719  0.00  0.00    +0.000 C 
ATOM     10  O   UNL     1       1.920   5.212  18.354  0.00  0.00    +0.000 OA
ATOM     11  N   UNL     1       3.846   6.506  18.244  0.00  0.00    +0.000 N 
ATOM     12  H   UNL     1       4.387   7.192  18.754  0.00  0.00    +0.000 HD
BRANCH  11  13
ATOM     13  C   UNL     1       4.504   5.844  17.178  0.00  0.00    +0.000 A 
ATOM     14  C   UNL     1       5.051   6.527  16.086  0.00  0.00    +0.000 A 
ATOM     15  C   UNL     1       5.605   5.834  15.007  0.00  0.00    +0.000 A 
ATOM     16  C   UNL     1       5.627   4.446  15.019  0.00  0.00    +0.000 A 
ATOM     17 CL   UNL     1       6.243   3.590  13.661  0.00  0.00    +0.000 Cl
ATOM     18  C   UNL     1       5.144   3.748  16.126  0.00  0.00    +0.000 A 
ATOM     19  C   UNL     1       4.597   4.447  17.211  0.00  0.00    +0.000 A 
ENDBRANCH  11  13
ENDBRANCH   6   9
BRANCH   1  20
ATOM     20  C   UNL     1       0.431  11.441  21.210  0.00  0.00    +0.000 C 
BRANCH  20  22
ATOM     21  N   UNL     1      -1.636  11.833  19.968  0.00  0.00    +0.000 N 
ATOM     22  C   UNL     1      -1.102  11.547  21.220  0.00  0.00    +0.000 C 
ATOM     23  O   UNL     1      -1.747  11.363  22.250  0.00  0.00    +0.000 OA
ATOM     24  H   UNL     1      -1.023  11.761  19.166  0.00  0.00    +0.000 HD
BRANCH  21  29
ATOM     25  C   UNL     1      -7.170  12.678  18.691  0.00  0.00    +0.000 C 
ATOM     26  C   UNL     1      -5.720  12.484  19.024  0.00  0.00    +0.000 A 
ATOM     27  C   UNL     1      -5.178  13.033  20.188  0.00  0.00    +0.000 A 
ATOM     28  C   UNL     1      -3.831  12.830  20.514  0.00  0.00    +0.000 A 
ATOM     29  C   UNL     1      -3.001  12.079  19.682  0.00  0.00    +0.000 A 
ATOM     30  C   UNL     1      -3.533  11.558  18.497  0.00  0.00    +0.000 A 
ATOM     31  C   UNL     1      -4.887  11.748  18.177  0.00  0.00    +0.000 A 
ENDBRANCH  21  29
ENDBRANCH  20  22
ENDBRANCH   1  20
TORSDOF 5
ENDMDL
MODEL 3
REMARK VINA RESULT:      -7.0      4.449     10.935
REMARK  Name = 
REMARK  6 active torsions:
REMARK  status: ('A' for Active; 'I' for Inactive)
REMARK    1  A    between atoms: C_1  and  C_2
REMARK    2  A    between atoms: C_5  and  N_6
REMARK    3  A    between atoms: C_7  and  C_9
REMARK    4  A    between atoms: C_9  and  N_10
REMARK    5  A    between atoms: C_15  and  C_16
REMARK    6  A    between atoms: N_18  and  C_19
REMARK                            x       y       z     vdW  Elec       q    Type
REMARK                         _______ _______ _______ _____ _____    ______ ____
ROOT
ATOM      1  N   UNL     1       0.279  11.628  20.604  0.00  0.00    +0.000 N 
ATOM      2  C   UNL     1       0.154  10.838  21.715  0.00  0.00    +0.000 C 
ATOM      3  O   UNL     1      -0.322  11.162  22.789  0.00  0.00    +0.000 OA
ATOM      4  S   UNL     1       0.810   9.251  21.394  0.00  0.00    +0.000 S 
ATOM      5  C   UNL     1       1.235   9.648  19.772  0.00  0.00    +0.000 C 
ATOM      6  C   UNL     1       1.756   8.863  18.821  0.00  0.00    +0.000 C 
ATOM      7  C   UNL     1       0.895  11.076  19.511  0.00  0.00    +0.000 C 
ATOM      8  O   UNL     1       1.171  11.658  18.472  0.00  0.00    +0.000 OA
ENDROOT
BRANCH   6   9
ATOM      9  C   UNL     1       2.177   7.461  19.077  0.00  0.00    +0.000 C 
ATOM     10  O   UNL     1       2.477   7.106  20.210  0.00  0.00    +0.000 OA
ATOM     11  N   UNL     1       2.266   6.683  17.935  0.00  0.00    +0.000 N 
ATOM     12  H   UNL     1       2.184   7.135  17.035  0.00  0.00    +0.000 HD
BRANCH  11  13
ATOM     13  C   UNL     1       2.624   5.311  17.926  0.00  0.00    +0.000 A 
ATOM     14  C   UNL     1       1.677   4.283  17.851  0.00  0.00    +0.000 A 
ATOM     15  C   UNL     1       2.060   2.943  17.943  0.00  0.00    +0.000 A 
ATOM     16  C   UNL     1       3.402   2.621  18.098  0.00  0.00    +0.000 A 
ATOM     17 CL   UNL     1       3.868   0.976  18.283  0.00  0.00    +0.000 Cl
ATOM     18  C   UNL     1       4.366   3.627  18.111  0.00  0.00    +0.000 A 
ATOM     19  C   UNL     1       3.979   4.971  18.009  0.00  0.00    +0.000 A 
ENDBRANCH  11  13
ENDBRANCH   6   9
BRANCH   1  20
ATOM     20  C   UNL     1      -0.303  12.958  20.589  0.00  0.00    +0.000 C 
BRANCH  20  22
ATOM     21  N   UNL     1      -2.253  13.404  21.991  0.00  0.00    +0.000 N 
ATOM     22  C   UNL     1      -1.823  12.852  20.790  0.00  0.00    +0.000 C 
ATOM     23  O   UNL     1      -2.545  12.346  19.933  0.00  0.00    +0.000 OA
ATOM     24  H   UNL     1      -1.595  13.968  22.514  0.00  0.00    +0.000 HD
BRANCH  21  29
ATOM     25  C   UNL     1      -7.550  13.270  24.204  0.00  0.00    +0.000 C 
ATOM     26  C   UNL     1      -6.175  13.289  23.606  0.00  0.00    +0.000 A 
ATOM     27  C   UNL     1      -5.965  13.797  22.322  0.00  0.00    +0.000 A 
ATOM     28  C   UNL     1      -4.677  13.841  21.773  0.00  0.00    +0.000 A 
ATOM     29  C   UNL     1      -3.578  13.374  22.493  0.00  0.00    +0.000 A 
ATOM     30  C   UNL     1      -3.791  12.831  23.766  0.00  0.00    +0.000 A 
ATOM     31  C   UNL     1      -5.079  12.801  24.323  0.00  0.00    +0.000 A 
ENDBRANCH  21  29
ENDBRANCH  20  22
ENDBRANCH   1  20
TORSDOF 5
ENDMDL
MODEL 4
REMARK VINA RESULT:      -6.9      4.333      6.893
REMARK  Name = 
REMARK  6 active torsions:
REMARK  status: ('A' for Active; 'I' for Inactive)
REMARK    1  A    between atoms: C_1  and  C_2
REMARK    2  A    between atoms: C_5  and  N_6
REMARK    3  A    between atoms: C_7  and  C_9
REMARK    4  A    between atoms: C_9  and  N_10
REMARK    5  A    between atoms: C_15  and  C_16
REMARK    6  A    between atoms: N_18  and  C_19
REMARK                            x       y       z     vdW  Elec       q    Type
REMARK                         _______ _______ _______ _____ _____    ______ ____
ROOT
ATOM      1  N   UNL     1       3.365   5.219  19.554  0.00  0.00    +0.000 N 
ATOM      2  C   UNL     1       2.434   5.078  20.548  0.00  0.00    +0.000 C 
ATOM      3  O   UNL     1       2.279   4.106  21.267  0.00  0.00    +0.000 OA
ATOM      4  S   UNL     1       1.441   6.513  20.644  0.00  0.00    +0.000 S 
ATOM      5  C   UNL     1       2.286   7.300  19.365  0.00  0.00    +0.000 C 
ATOM      6  C   UNL     1       2.124   8.540  18.885  0.00  0.00    +0.000 C 
ATOM      7  C   UNL     1       3.330   6.382  18.828  0.00  0.00    +0.000 C 
ATOM      8  O   UNL     1       4.022   6.640  17.852  0.00  0.00    +0.000 OA
ENDROOT
BRANCH   6   9
ATOM      9  C   UNL     1       1.040   9.445  19.347  0.00  0.00    +0.000 C 
ATOM     10  O   UNL     1       0.166   9.806  18.569  0.00  0.00    +0.000 OA
ATOM     11  N   UNL     1       1.183   9.869  20.657  0.00  0.00    +0.000 N 
ATOM     12  H   UNL     1       2.047   9.663  21.141  0.00  0.00    +0.000 HD
BRANCH  11  13
ATOM     13  C   UNL     1       0.266  10.717  21.330  0.00  0.00    +0.000 A 
ATOM     14  C   UNL     1       0.124  12.074  21.020  0.00  0.00    +0.000 A 
ATOM     15  C   UNL     1      -0.718  12.900  21.769  0.00  0.00    +0.000 A 
ATOM     16  C   UNL     1      -1.437  12.366  22.830  0.00  0.00    +0.000 A 
ATOM     17 CL   UNL     1      -2.419  13.395  23.798  0.00  0.00    +0.000 Cl
ATOM     18  C   UNL     1      -1.358  11.004  23.115  0.00  0.00    +0.000 A 
ATOM     19  C   UNL     1      -0.520  10.176  22.355  0.00  0.00    +0.000 A 
ENDBRANCH  11  13
ENDBRANCH   6   9
BRANCH   1  20
ATOM     20  C   UNL     1       4.383   4.203  19.361  0.00  0.00    +0.000 C 
BRANCH  20  22
ATOM     21  N   UNL     1       5.656   4.411  17.286  0.00  0.00    +0.000 N 
ATOM     22  C   UNL     1       4.506   3.884  17.863  0.00  0.00    +0.000 C 
ATOM     23  O   UNL     1       3.660   3.204  17.284  0.00  0.00    +0.000 OA
ATOM     24  H   UNL     1       6.370   4.775  17.905  0.00  0.00    +0.000 HD
BRANCH  21  29
ATOM     25  C   UNL     1       7.216   4.255  11.762  0.00  0.00    +0.000 C 
ATOM     26  C   UNL     1       6.785   4.308  13.198  0.00  0.00    +0.000 A 
ATOM     27  C   UNL     1       5.632   3.642  13.619  0.00  0.00    +0.000 A 
ATOM     28  C   UNL     1       5.243   3.667  14.965  0.00  0.00    +0.000 A 
ATOM     29  C   UNL     1       5.997   4.360  15.912  0.00  0.00    +0.000 A 
ATOM     30  C   UNL     1       7.133   5.058  15.486  0.00  0.00    +0.000 A 
ATOM     31  C   UNL     1       7.532   5.020  14.141  0.00  0.00    +0.000 A 
ENDBRANCH  21  29
ENDBRANCH  20  22
ENDBRANCH   1  20
TORSDOF 5
ENDMDL
MODEL 5
REMARK VINA RESULT:      -6.8      4.875     11.175
REMARK  Name = 
REMARK  6 active torsions:
REMARK  status: ('A' for Active; 'I' for Inactive)
REMARK    1  A    between atoms: C_1  and  C_2
REMARK    2  A    between atoms: C_5  and  N_6
REMARK    3  A    between atoms: C_7  and  C_9
REMARK    4  A    between atoms: C_9  and  N_10
REMARK    5  A    between atoms: C_15  and  C_16
REMARK    6  A    between atoms: N_18  and  C_19
REMARK                            x       y       z     vdW  Elec       q    Type
REMARK                         _______ _______ _______ _____ _____    ______ ____
ROOT
ATOM      1  N   UNL     1       0.958  10.406  20.334  0.00  0.00    +0.000 N 
ATOM      2  C   UNL     1       1.117  10.730  19.014  0.00  0.00    +0.000 C 
ATOM      3  O   UNL     1       0.896  11.812  18.499  0.00  0.00    +0.000 OA
ATOM      4  S   UNL     1       1.675   9.336  18.121  0.00  0.00    +0.000 S 
ATOM      5  C   UNL     1       1.707   8.331  19.520  0.00  0.00    +0.000 C 
ATOM      6  C   UNL     1       2.120   7.063  19.638  0.00  0.00    +0.000 C 
ATOM      7  C   UNL     1       1.216   9.108  20.694  0.00  0.00    +0.000 C 
ATOM      8  O   UNL     1       1.042   8.622  21.803  0.00  0.00    +0.000 OA
ENDROOT
BRANCH   6   9
ATOM      9  C   UNL     1       2.538   6.242  18.472  0.00  0.00    +0.000 C 
ATOM     10  O   UNL     1       1.752   5.458  17.958  0.00  0.00    +0.000 OA
ATOM     11  N   UNL     1       3.868   6.403  18.120  0.00  0.00    +0.000 N 
ATOM     12  H   UNL     1       4.471   6.929  18.738  0.00  0.00    +0.000 HD
BRANCH  11  13
ATOM     13  C   UNL     1       4.493   5.746  17.030  0.00  0.00    +0.000 A 
ATOM     14  C   UNL     1       4.713   4.365  17.005  0.00  0.00    +0.000 A 
ATOM     15  C   UNL     1       5.420   3.766  15.959  0.00  0.00    +0.000 A 
ATOM     16  C   UNL     1       5.901   4.550  14.918  0.00  0.00    +0.000 A 
ATOM     17 CL   UNL     1       6.832   3.827  13.666  0.00  0.00    +0.000 Cl
ATOM     18  C   UNL     1       5.637   5.919  14.893  0.00  0.00    +0.000 A 
ATOM     19  C   UNL     1       4.919   6.514  15.940  0.00  0.00    +0.000 A 
ENDBRANCH  11  13
ENDBRANCH   6   9
BRANCH   1  20
ATOM     20  C   UNL     1       0.614  11.434  21.300  0.00  0.00    +0.000 C 
BRANCH  20  22
ATOM     21  N   UNL     1      -1.341  12.355  22.439  0.00  0.00    +0.000 N 
ATOM     22  C   UNL     1      -0.914  11.580  21.366  0.00  0.00    +0.000 C 
ATOM     23  O   UNL     1      -1.641  11.068  20.517  0.00  0.00    +0.000 OA
ATOM     24  H   UNL     1      -0.643  12.886  22.946  0.00  0.00    +0.000 HD
BRANCH  21  29
ATOM     25  C   UNL     1      -6.846  13.314  23.761  0.00  0.00    +0.000 C 
ATOM     26  C   UNL     1      -5.400  13.081  23.436  0.00  0.00    +0.000 A 
ATOM     27  C   UNL     1      -4.536  12.540  24.389  0.00  0.00    +0.000 A 
ATOM     28  C   UNL     1      -3.192  12.295  24.078  0.00  0.00    +0.000 A 
ATOM     29  C   UNL     1      -2.687  12.591  22.812  0.00  0.00    +0.000 A 
ATOM     30  C   UNL     1      -3.544  13.166  21.866  0.00  0.00    +0.000 A 
ATOM     31  C   UNL     1      -4.895  13.397  22.172  0.00  0.00    +0.000 A 
ENDBRANCH  21  29
ENDBRANCH  20  22
ENDBRANCH   1  20
TORSDOF 5
ENDMDL
MODEL 6
REMARK VINA RESULT:      -6.8      2.713      3.150
REMARK  Name = 
REMARK  6 active torsions:
REMARK  status: ('A' for Active; 'I' for Inactive)
REMARK    1  A    between atoms: C_1  and  C_2
REMARK    2  A    between atoms: C_5  and  N_6
REMARK    3  A    between atoms: C_7  and  C_9
REMARK    4  A    between atoms: C_9  and  N_10
REMARK    5  A    between atoms: C_15  and  C_16
REMARK    6  A    between atoms: N_18  and  C_19
REMARK                            x       y       z     vdW  Elec       q    Type
REMARK                         _______ _______ _______ _____ _____    ______ ____
ROOT
ATOM      1  N   UNL     1       0.797  10.587  18.515  0.00  0.00    +0.000 N 
ATOM      2  C   UNL     1      -0.521  10.357  18.228  0.00  0.00    +0.000 C 
ATOM      3  O   UNL     1      -0.960   9.627  17.355  0.00  0.00    +0.000 OA
ATOM      4  S   UNL     1      -1.537  11.297  19.295  0.00  0.00    +0.000 S 
ATOM      5  C   UNL     1      -0.193  11.981  20.129  0.00  0.00    +0.000 C 
ATOM      6  C   UNL     1      -0.186  12.799  21.189  0.00  0.00    +0.000 C 
ATOM      7  C   UNL     1       1.071  11.491  19.509  0.00  0.00    +0.000 C 
ATOM      8  O   UNL     1       2.182  11.884  19.836  0.00  0.00    +0.000 OA
ENDROOT
BRANCH   6   9
ATOM      9  C   UNL     1      -1.430  13.364  21.775  0.00  0.00    +0.000 C 
ATOM     10  O   UNL     1      -1.545  14.574  21.924  0.00  0.00    +0.000 OA
ATOM     11  N   UNL     1      -2.343  12.408  22.186  0.00  0.00    +0.000 N 
ATOM     12  H   UNL     1      -2.056  11.438  22.193  0.00  0.00    +0.000 HD
BRANCH  11  13
ATOM     13  C   UNL     1      -3.609  12.700  22.753  0.00  0.00    +0.000 A 
ATOM     14  C   UNL     1      -3.889  12.514  24.111  0.00  0.00    +0.000 A 
ATOM     15  C   UNL     1      -5.175  12.719  24.616  0.00  0.00    +0.000 A 
ATOM     16  C   UNL     1      -6.192  13.127  23.762  0.00  0.00    +0.000 A 
ATOM     17 CL   UNL     1      -7.791  13.311  24.366  0.00  0.00    +0.000 Cl
ATOM     18  C   UNL     1      -5.918  13.379  22.418  0.00  0.00    +0.000 A 
ATOM     19  C   UNL     1      -4.623  13.181  21.917  0.00  0.00    +0.000 A 
ENDBRANCH  11  13
ENDBRANCH   6   9
BRANCH   1  20
ATOM     20  C   UNL     1       1.832   9.828  17.838  0.00  0.00    +0.000 C 
BRANCH  20  22
ATOM     21  N   UNL     1       2.725   7.553  17.796  0.00  0.00    +0.000 N 
ATOM     22  C   UNL     1       2.040   8.489  18.564  0.00  0.00    +0.000 C 
ATOM     23  O   UNL     1       1.646   8.321  19.716  0.00  0.00    +0.000 OA
ATOM     24  H   UNL     1       3.172   7.876  16.947  0.00  0.00    +0.000 HD
BRANCH  21  29
ATOM     25  C   UNL     1       3.918   2.164  19.379  0.00  0.00    +0.000 C 
ATOM     26  C   UNL     1       3.602   3.564  18.940  0.00  0.00    +0.000 A 
ATOM     27  C   UNL     1       2.350   3.876  18.407  0.00  0.00    +0.000 A 
ATOM     28  C   UNL     1       2.044   5.187  18.022  0.00  0.00    +0.000 A 
ATOM     29  C   UNL     1       2.983   6.209  18.159  0.00  0.00    +0.000 A 
ATOM     30  C   UNL     1       4.251   5.891  18.660  0.00  0.00    +0.000 A 
ATOM     31  C   UNL     1       4.554   4.580  19.061  0.00  0.00    +0.000 A 
ENDBRANCH  21  29
ENDBRANCH  20  22
ENDBRANCH   1  20
TORSDOF 5
ENDMDL
MODEL 7
REMARK VINA RESULT:      -6.8      4.438     10.368
REMARK  Name = 
REMARK  6 active torsions:
REMARK  status: ('A' for Active; 'I' for Inactive)
REMARK    1  A    between atoms: C_1  and  C_2
REMARK    2  A    between atoms: C_5  and  N_6
REMARK    3  A    between atoms: C_7  and  C_9
REMARK    4  A    between atoms: C_9  and  N_10
REMARK    5  A    between atoms: C_15  and  C_16
REMARK    6  A    between atoms: N_18  and  C_19
REMARK                            x       y       z     vdW  Elec       q    Type
REMARK                         _______ _______ _______ _____ _____    ______ ____
ROOT
ATOM      1  N   UNL     1      -0.173  12.189  19.723  0.00  0.00    +0.000 N 
ATOM      2  C   UNL     1      -0.684  11.502  18.656  0.00  0.00    +0.000 C 
ATOM      3  O   UNL     1      -1.374  11.957  17.760  0.00  0.00    +0.000 OA
ATOM      4  S   UNL     1      -0.225   9.819  18.754  0.00  0.00    +0.000 S 
ATOM      5  C   UNL     1       0.661  10.046  20.215  0.00  0.00    +0.000 C 
ATOM      6  C   UNL     1       1.395   9.162  20.902  0.00  0.00    +0.000 C 
ATOM      7  C   UNL     1       0.538  11.468  20.647  0.00  0.00    +0.000 C 
ATOM      8  O   UNL     1       0.988  11.896  21.701  0.00  0.00    +0.000 OA
ENDROOT
BRANCH   6   9
ATOM      9  C   UNL     1       1.469   7.723  20.537  0.00  0.00    +0.000 C 
ATOM     10  O   UNL     1       0.704   6.918  21.053  0.00  0.00    +0.000 OA
ATOM     11  N   UNL     1       2.500   7.416  19.667  0.00  0.00    +0.000 N 
ATOM     12  H   UNL     1       3.188   8.129  19.462  0.00  0.00    +0.000 HD
BRANCH  11  13
ATOM     13  C   UNL     1       2.760   6.119  19.157  0.00  0.00    +0.000 A 
ATOM     14  C   UNL     1       1.980   5.531  18.155  0.00  0.00    +0.000 A 
ATOM     15  C   UNL     1       2.205   4.214  17.747  0.00  0.00    +0.000 A 
ATOM     16  C   UNL     1       3.227   3.478  18.333  0.00  0.00    +0.000 A 
ATOM     17 CL   UNL     1       3.461   1.835  17.883  0.00  0.00    +0.000 Cl
ATOM     18  C   UNL     1       4.056   4.067  19.287  0.00  0.00    +0.000 A 
ATOM     19  C   UNL     1       3.833   5.392  19.687  0.00  0.00    +0.000 A 
ENDBRANCH  11  13
ENDBRANCH   6   9
BRANCH   1  20
ATOM     20  C   UNL     1      -0.321  13.631  19.799  0.00  0.00    +0.000 C 
BRANCH  20  22
ATOM     21  N   UNL     1      -2.082  12.923  21.337  0.00  0.00    +0.000 N 
ATOM     22  C   UNL     1      -1.619  13.971  20.549  0.00  0.00    +0.000 C 
ATOM     23  O   UNL     1      -2.140  15.080  20.451  0.00  0.00    +0.000 OA
ATOM     24  H   UNL     1      -1.462  12.139  21.493  0.00  0.00    +0.000 HD
BRANCH  21  29
ATOM     25  C   UNL     1      -7.089  12.791  24.146  0.00  0.00    +0.000 C 
ATOM     26  C   UNL     1      -5.775  12.849  23.425  0.00  0.00    +0.000 A 
ATOM     27  C   UNL     1      -4.573  12.860  24.136  0.00  0.00    +0.000 A 
ATOM     28  C   UNL     1      -3.345  12.887  23.463  0.00  0.00    +0.000 A 
ATOM     29  C   UNL     1      -3.295  12.906  22.069  0.00  0.00    +0.000 A 
ATOM     30  C   UNL     1      -4.499  12.930  21.355  0.00  0.00    +0.000 A 
ATOM     31  C   UNL     1      -5.730  12.888  22.028  0.00  0.00    +0.000 A 
ENDBRANCH  21  29
ENDBRANCH  20  22
ENDBRANCH   1  20
TORSDOF 5
ENDMDL
MODEL 8
REMARK VINA RESULT:      -6.8      4.751     10.375
REMARK  Name = 
REMARK  6 active torsions:
REMARK  status: ('A' for Active; 'I' for Inactive)
REMARK    1  A    between atoms: C_1  and  C_2
REMARK    2  A    between atoms: C_5  and  N_6
REMARK    3  A    between atoms: C_7  and  C_9
REMARK    4  A    between atoms: C_9  and  N_10
REMARK    5  A    between atoms: C_15  and  C_16
REMARK    6  A    between atoms: N_18  and  C_19
REMARK                            x       y       z     vdW  Elec       q    Type
REMARK                         _______ _______ _______ _____ _____    ______ ____
ROOT
ATOM      1  N   UNL     1       0.457  11.133  21.215  0.00  0.00    +0.000 N 
ATOM      2  C   UNL     1       0.678  10.012  21.970  0.00  0.00    +0.000 C 
ATOM      3  O   UNL     1       0.434   9.873  23.156  0.00  0.00    +0.000 OA
ATOM      4  S   UNL     1       1.406   8.765  20.986  0.00  0.00    +0.000 S 
ATOM      5  C   UNL     1       1.397   9.743  19.568  0.00  0.00    +0.000 C 
ATOM      6  C   UNL     1       1.763   9.422  18.320  0.00  0.00    +0.000 C 
ATOM      7  C   UNL     1       0.857  11.091  19.904  0.00  0.00    +0.000 C 
ATOM      8  O   UNL     1       0.821  12.023  19.113  0.00  0.00    +0.000 OA
ENDROOT
BRANCH   6   9
ATOM      9  C   UNL     1       2.378   8.114  17.974  0.00  0.00    +0.000 C 
ATOM     10  O   UNL     1       3.176   8.035  17.049  0.00  0.00    +0.000 OA
ATOM     11  N   UNL     1       1.898   7.053  18.722  0.00  0.00    +0.000 N 
ATOM     12  H   UNL     1       1.098   7.206  19.322  0.00  0.00    +0.000 HD
BRANCH  11  13
ATOM     13  C   UNL     1       2.346   5.714  18.593  0.00  0.00    +0.000 A 
ATOM     14  C   UNL     1       1.685   4.769  17.799  0.00  0.00    +0.000 A 
ATOM     15  C   UNL     1       2.098   3.435  17.773  0.00  0.00    +0.000 A 
ATOM     16  C   UNL     1       3.190   3.038  18.534  0.00  0.00    +0.000 A 
ATOM     17 CL   UNL     1       3.656   1.384  18.559  0.00  0.00    +0.000 Cl
ATOM     18  C   UNL     1       3.900   3.977  19.282  0.00  0.00    +0.000 A 
ATOM     19  C   UNL     1       3.488   5.317  19.298  0.00  0.00    +0.000 A 
ENDBRANCH  11  13
ENDBRANCH   6   9
BRANCH   1  20
ATOM     20  C   UNL     1      -0.249  12.265  21.785  0.00  0.00    +0.000 C 
BRANCH  20  22
ATOM     21  N   UNL     1      -2.117  12.404  20.216  0.00  0.00    +0.000 N 
ATOM     22  C   UNL     1      -1.756  12.109  21.526  0.00  0.00    +0.000 C 
ATOM     23  O   UNL     1      -2.519  11.732  22.413  0.00  0.00    +0.000 OA
ATOM     24  H   UNL     1      -1.376  12.504  19.533  0.00  0.00    +0.000 HD
BRANCH  21  29
ATOM     25  C   UNL     1      -7.495  12.713  18.227  0.00  0.00    +0.000 C 
ATOM     26  C   UNL     1      -6.094  12.606  18.752  0.00  0.00    +0.000 A 
ATOM     27  C   UNL     1      -5.173  11.745  18.151  0.00  0.00    +0.000 A 
ATOM     28  C   UNL     1      -3.856  11.664  18.622  0.00  0.00    +0.000 A 
ATOM     29  C   UNL     1      -3.437  12.438  19.704  0.00  0.00    +0.000 A 
ATOM     30  C   UNL     1      -4.368  13.275  20.331  0.00  0.00    +0.000 A 
ATOM     31  C   UNL     1      -5.683  13.368  19.850  0.00  0.00    +0.000 A 
ENDBRANCH  21  29
ENDBRANCH  20  22
ENDBRANCH   1  20
TORSDOF 5
ENDMDL
MODEL 9
REMARK VINA RESULT:      -6.8      5.025      7.338
REMARK  Name = 
REMARK  6 active torsions:
REMARK  status: ('A' for Active; 'I' for Inactive)
REMARK    1  A    between atoms: C_1  and  C_2
REMARK    2  A    between atoms: C_5  and  N_6
REMARK    3  A    between atoms: C_7  and  C_9
REMARK    4  A    between atoms: C_9  and  N_10
REMARK    5  A    between atoms: C_15  and  C_16
REMARK    6  A    between atoms: N_18  and  C_19
REMARK                            x       y       z     vdW  Elec       q    Type
REMARK                         _______ _______ _______ _____ _____    ______ ____
ROOT
ATOM      1  N   UNL     1       3.956   5.691  19.070  0.00  0.00    +0.000 N 
ATOM      2  C   UNL     1       3.039   5.377  20.036  0.00  0.00    +0.000 C 
ATOM      3  O   UNL     1       3.042   4.389  20.750  0.00  0.00    +0.000 OA
ATOM      4  S   UNL     1       1.799   6.607  20.104  0.00  0.00    +0.000 S 
ATOM      5  C   UNL     1       2.522   7.542  18.850  0.00  0.00    +0.000 C 
ATOM      6  C   UNL     1       2.151   8.735  18.366  0.00  0.00    +0.000 C 
ATOM      7  C   UNL     1       3.731   6.832  18.343  0.00  0.00    +0.000 C 
ATOM      8  O   UNL     1       4.392   7.216  17.388  0.00  0.00    +0.000 OA
ENDROOT
BRANCH   6   9
ATOM      9  C   UNL     1       0.908   9.425  18.797  0.00  0.00    +0.000 C 
ATOM     10  O   UNL     1       0.701   9.633  19.986  0.00  0.00    +0.000 OA
ATOM     11  N   UNL     1       0.032   9.704  17.762  0.00  0.00    +0.000 N 
ATOM     12  H   UNL     1       0.221   9.310  16.850  0.00  0.00    +0.000 HD
BRANCH  11  13
ATOM     13  C   UNL     1      -1.206  10.376  17.919  0.00  0.00    +0.000 A 
ATOM     14  C   UNL     1      -1.334  11.564  18.647  0.00  0.00    +0.000 A 
ATOM     15  C   UNL     1      -2.586  12.145  18.863  0.00  0.00    +0.000 A 
ATOM     16  C   UNL     1      -3.723  11.544  18.336  0.00  0.00    +0.000 A 
ATOM     17 CL   UNL     1      -5.271  12.218  18.660  0.00  0.00    +0.000 Cl
ATOM     18  C   UNL     1      -3.609  10.396  17.554  0.00  0.00    +0.000 A 
ATOM     19  C   UNL     1      -2.350   9.821  17.332  0.00  0.00    +0.000 A 
ENDBRANCH  11  13
ENDBRANCH   6   9
BRANCH   1  20
ATOM     20  C   UNL     1       5.146   4.877  18.905  0.00  0.00    +0.000 C 
BRANCH  20  22
ATOM     21  N   UNL     1       6.156   4.858  16.681  0.00  0.00    +0.000 N 
ATOM     22  C   UNL     1       5.172   4.293  17.484  0.00  0.00    +0.000 C 
ATOM     23  O   UNL     1       4.398   3.398  17.149  0.00  0.00    +0.000 OA
ATOM     24  H   UNL     1       6.857   5.435  17.128  0.00  0.00    +0.000 HD
BRANCH  21  29
ATOM     25  C   UNL     1       7.171   3.841  11.121  0.00  0.00    +0.000 C 
ATOM     26  C   UNL     1       6.881   4.115  12.567  0.00  0.00    +0.000 A 
ATOM     27  C   UNL     1       5.846   3.446  13.224  0.00  0.00    +0.000 A 
ATOM     28  C   UNL     1       5.591   3.681  14.581  0.00  0.00    +0.000 A 
ATOM     29  C   UNL     1       6.363   4.590  15.305  0.00  0.00    +0.000 A 
ATOM     30  C   UNL     1       7.378   5.287  14.640  0.00  0.00    +0.000 A 
ATOM     31  C   UNL     1       7.644   5.042  13.284  0.00  0.00    +0.000 A 
ENDBRANCH  21  29
ENDBRANCH  20  22
ENDBRANCH   1  20
TORSDOF 5
ENDMDL
