MODEL 1
REMARK VINA RESULT:      -7.5      0.000      0.000
REMARK  Name = 
REMARK  4 active torsions:
REMARK  status: ('A' for Active; 'I' for Inactive)
REMARK    1  A    between atoms: N_8  and  C_9
REMARK    2  A    between atoms: C_9  and  C_10
REMARK    3  A    between atoms: C_10  and  C_11
REMARK    4  A    between atoms: C_11  and  N_12
REMARK                            x       y       z     vdW  Elec       q    Type
REMARK                         _______ _______ _______ _____ _____    ______ ____
ROOT
ATOM      1  C   UNL     1       1.974   5.822  19.728  0.00  0.00    +0.000 C 
ENDROOT
BRANCH   1   2
ATOM      2  N   UNL     1       3.408   5.921  19.939  0.00  0.00    +0.000 N 
ATOM      3  C   UNL     1       4.255   5.691  18.908  0.00  0.00    +0.000 A 
ATOM      4  N   UNL     1       3.952   5.830  17.640  0.00  0.00    +0.000 NA
ATOM      5  C   UNL     1       5.028   5.472  16.844  0.00  0.00    +0.000 A 
ATOM      6  C   UNL     1       5.059   5.493  15.435  0.00  0.00    +0.000 A 
ATOM      7  C   UNL     1       6.197   5.043  14.757  0.00  0.00    +0.000 A 
ATOM      8  C   UNL     1       7.306   4.591  15.464  0.00  0.00    +0.000 A 
ATOM      9  C   UNL     1       7.313   4.590  16.862  0.00  0.00    +0.000 A 
ATOM     10  C   UNL     1       6.160   5.036  17.533  0.00  0.00    +0.000 A 
ATOM     11  S   UNL     1       5.860   5.155  19.222  0.00  0.00    +0.000 S 
ATOM     12  H   UNL     1       3.734   5.661  20.864  0.00  0.00    +0.000 HD
ENDBRANCH   1   2
BRANCH   1  13
ATOM     13  C   UNL     1       1.351   4.874  20.755  0.00  0.00    +0.000 C 
BRANCH  13  14
ATOM     14  C   UNL     1       0.968   3.543  20.115  0.00  0.00    +0.000 C 
BRANCH  14  22
ATOM     15  O   UNL     1       3.059   2.767  21.919  0.00  0.00    +0.000 OA
ATOM     16  N   UNL     1       3.720   2.256  21.006  0.00  0.00    +0.000 N 
ATOM     17  O   UNL     1       4.781   1.633  21.158  0.00  0.00    +0.000 OA
ATOM     18  C   UNL     1       3.220   2.398  19.657  0.00  0.00    +0.000 A 
ATOM     19  N   UNL     1       3.894   1.964  18.604  0.00  0.00    +0.000 NA
ATOM     20  C   UNL     1       3.114   2.274  17.524  0.00  0.00    +0.000 A 
ATOM     21  C   UNL     1       1.958   2.903  17.924  0.00  0.00    +0.000 A 
ATOM     22  N   UNL     1       2.031   2.980  19.299  0.00  0.00    +0.000 N 
ENDBRANCH  14  22
ENDBRANCH  13  14
ENDBRANCH   1  13
TORSDOF 4
ENDMDL
MODEL 2
REMARK VINA RESULT:      -7.1      3.368      5.991
REMARK  Name = 
REMARK  4 active torsions:
REMARK  status: ('A' for Active; 'I' for Inactive)
REMARK    1  A    between atoms: N_8  and  C_9
REMARK    2  A    between atoms: C_9  and  C_10
REMARK    3  A    between atoms: C_10  and  C_11
REMARK    4  A    between atoms: C_11  and  N_12
REMARK                            x       y       z     vdW  Elec       q    Type
REMARK                         _______ _______ _______ _____ _____    ______ ____
ROOT
ATOM      1  C   UNL     1       2.840   5.055  18.339  0.00  0.00    +0.000 C 
ENDROOT
BRANCH   1   2
ATOM      2  N   UNL     1       2.966   6.451  17.957  0.00  0.00    +0.000 N 
ATOM      3  C   UNL     1       2.366   7.407  18.705  0.00  0.00    +0.000 A 
ATOM      4  N   UNL     1       2.061   7.289  19.974  0.00  0.00    +0.000 NA
ATOM      5  C   UNL     1       1.417   8.430  20.425  0.00  0.00    +0.000 A 
ATOM      6  C   UNL     1       0.943   8.651  21.734  0.00  0.00    +0.000 A 
ATOM      7  C   UNL     1       0.252   9.829  22.035  0.00  0.00    +0.000 A 
ATOM      8  C   UNL     1       0.044  10.794  21.055  0.00  0.00    +0.000 A 
ATOM      9  C   UNL     1       0.532  10.614  19.757  0.00  0.00    +0.000 A 
ATOM     10  C   UNL     1       1.218   9.421  19.464  0.00  0.00    +0.000 A 
ATOM     11  S   UNL     1       1.929   8.908  17.984  0.00  0.00    +0.000 S 
ATOM     12  H   UNL     1       3.037   6.629  16.961  0.00  0.00    +0.000 HD
ENDBRANCH   1   2
BRANCH   1  13
ATOM     13  C   UNL     1       3.067   4.151  17.125  0.00  0.00    +0.000 C 
BRANCH  13  14
ATOM     14  C   UNL     1       4.373   3.371  17.258  0.00  0.00    +0.000 C 
BRANCH  14  22
ATOM     15  O   UNL     1       6.073   4.326  19.362  0.00  0.00    +0.000 OA
ATOM     16  N   UNL     1       6.932   4.709  18.557  0.00  0.00    +0.000 N 
ATOM     17  O   UNL     1       8.036   5.182  18.865  0.00  0.00    +0.000 OA
ATOM     18  C   UNL     1       6.625   4.600  17.149  0.00  0.00    +0.000 A 
ATOM     19  N   UNL     1       7.437   5.060  16.211  0.00  0.00    +0.000 NA
ATOM     20  C   UNL     1       6.814   4.780  15.026  0.00  0.00    +0.000 A 
ATOM     21  C   UNL     1       5.614   4.147  15.246  0.00  0.00    +0.000 A 
ATOM     22  N   UNL     1       5.496   4.033  16.615  0.00  0.00    +0.000 N 
ENDBRANCH  14  22
ENDBRANCH  13  14
ENDBRANCH   1  13
TORSDOF 4
ENDMDL
MODEL 3
REMARK VINA RESULT:      -7.0      4.043      6.529
REMARK  Name = 
REMARK  4 active torsions:
REMARK  status: ('A' for Active; 'I' for Inactive)
REMARK    1  A    between atoms: N_8  and  C_9
REMARK    2  A    between atoms: C_9  and  C_10
REMARK    3  A    between atoms: C_10  and  C_11
REMARK    4  A    between atoms: C_11  and  N_12
REMARK                            x       y       z     vdW  Elec       q    Type
REMARK                         _______ _______ _______ _____ _____    ______ ____
ROOT
ATOM      1  C   UNL     1       2.465   6.848  18.530  0.00  0.00    +0.000 C 
ENDROOT
BRANCH   1   2
ATOM      2  N   UNL     1       2.280   8.284  18.422  0.00  0.00    +0.000 N 
ATOM      3  C   UNL     1       1.562   8.940  19.364  0.00  0.00    +0.000 A 
ATOM      4  N   UNL     1       1.385   8.532  20.597  0.00  0.00    +0.000 NA
ATOM      5  C   UNL     1       0.564   9.411  21.284  0.00  0.00    +0.000 A 
ATOM      6  C   UNL     1       0.159   9.284  22.629  0.00  0.00    +0.000 A 
ATOM      7  C   UNL     1      -0.727  10.217  23.178  0.00  0.00    +0.000 A 
ATOM      8  C   UNL     1      -1.199  11.278  22.413  0.00  0.00    +0.000 A 
ATOM      9  C   UNL     1      -0.787  11.443  21.087  0.00  0.00    +0.000 A 
ATOM     10  C   UNL     1       0.098  10.495  20.542  0.00  0.00    +0.000 A 
ATOM     11  S   UNL     1       0.780  10.421  18.965  0.00  0.00    +0.000 S 
ATOM     12  H   UNL     1       2.237   8.651  17.477  0.00  0.00    +0.000 HD
ENDBRANCH   1   2
BRANCH   1  13
ATOM     13  C   UNL     1       3.828   6.444  17.965  0.00  0.00    +0.000 C 
BRANCH  13  14
ATOM     14  C   UNL     1       3.779   5.044  17.358  0.00  0.00    +0.000 C 
BRANCH  14  22
ATOM     15  O   UNL     1       1.086   4.055  17.312  0.00  0.00    +0.000 OA
ATOM     16  N   UNL     1       1.351   3.162  18.127  0.00  0.00    +0.000 N 
ATOM     17  O   UNL     1       0.565   2.277  18.494  0.00  0.00    +0.000 OA
ATOM     18  C   UNL     1       2.679   3.151  18.699  0.00  0.00    +0.000 A 
ATOM     19  N   UNL     1       3.035   2.294  19.642  0.00  0.00    +0.000 NA
ATOM     20  C   UNL     1       4.340   2.589  19.924  0.00  0.00    +0.000 A 
ATOM     21  C   UNL     1       4.780   3.636  19.148  0.00  0.00    +0.000 A 
ATOM     22  N   UNL     1       3.706   3.994  18.360  0.00  0.00    +0.000 N 
ENDBRANCH  14  22
ENDBRANCH  13  14
ENDBRANCH   1  13
TORSDOF 4
ENDMDL
MODEL 4
REMARK VINA RESULT:      -7.0      2.532      3.813
REMARK  Name = 
REMARK  4 active torsions:
REMARK  status: ('A' for Active; 'I' for Inactive)
REMARK    1  A    between atoms: N_8  and  C_9
REMARK    2  A    between atoms: C_9  and  C_10
REMARK    3  A    between atoms: C_10  and  C_11
REMARK    4  A    between atoms: C_11  and  N_12
REMARK                            x       y       z     vdW  Elec       q    Type
REMARK                         _______ _______ _______ _____ _____    ______ ____
ROOT
ATOM      1  C   UNL     1       4.373   2.433  18.210  0.00  0.00    +0.000 C 
ENDROOT
BRANCH   1   2
ATOM      2  N   UNL     1       4.707   3.304  17.097  0.00  0.00    +0.000 N 
ATOM      3  C   UNL     1       5.517   4.370  17.300  0.00  0.00    +0.000 A 
ATOM      4  N   UNL     1       6.401   4.471  18.263  0.00  0.00    +0.000 NA
ATOM      5  C   UNL     1       7.030   5.704  18.214  0.00  0.00    +0.000 A 
ATOM      6  C   UNL     1       8.032   6.158  19.097  0.00  0.00    +0.000 A 
ATOM      7  C   UNL     1       8.536   7.456  18.968  0.00  0.00    +0.000 A 
ATOM      8  C   UNL     1       8.068   8.298  17.964  0.00  0.00    +0.000 A 
ATOM      9  C   UNL     1       7.099   7.861  17.056  0.00  0.00    +0.000 A 
ATOM     10  C   UNL     1       6.593   6.556  17.200  0.00  0.00    +0.000 A 
ATOM     11  S   UNL     1       5.411   5.735  16.258  0.00  0.00    +0.000 S 
ATOM     12  H   UNL     1       3.988   3.406  16.388  0.00  0.00    +0.000 HD
ENDBRANCH   1   2
BRANCH   1  13
ATOM     13  C   UNL     1       3.033   1.738  17.956  0.00  0.00    +0.000 C 
BRANCH  13  14
ATOM     14  C   UNL     1       1.863   2.653  18.312  0.00  0.00    +0.000 C 
BRANCH  14  22
ATOM     15  O   UNL     1       2.403   5.439  17.894  0.00  0.00    +0.000 OA
ATOM     16  N   UNL     1       2.349   5.679  19.107  0.00  0.00    +0.000 N 
ATOM     17  O   UNL     1       2.430   6.807  19.614  0.00  0.00    +0.000 OA
ATOM     18  C   UNL     1       2.181   4.557  20.004  0.00  0.00    +0.000 A 
ATOM     19  N   UNL     1       2.198   4.696  21.320  0.00  0.00    +0.000 NA
ATOM     20  C   UNL     1       2.013   3.436  21.817  0.00  0.00    +0.000 A 
ATOM     21  C   UNL     1       1.884   2.524  20.796  0.00  0.00    +0.000 A 
ATOM     22  N   UNL     1       1.993   3.251  19.629  0.00  0.00    +0.000 N 
ENDBRANCH  14  22
ENDBRANCH  13  14
ENDBRANCH   1  13
TORSDOF 4
ENDMDL
MODEL 5
REMARK VINA RESULT:      -6.9      4.049      6.470
REMARK  Name = 
REMARK  4 active torsions:
REMARK  status: ('A' for Active; 'I' for Inactive)
REMARK    1  A    between atoms: N_8  and  C_9
REMARK    2  A    between atoms: C_9  and  C_10
REMARK    3  A    between atoms: C_10  and  C_11
REMARK    4  A    between atoms: C_11  and  N_12
REMARK                            x       y       z     vdW  Elec       q    Type
REMARK                         _______ _______ _______ _____ _____    ______ ____
ROOT
ATOM      1  C   UNL     1       2.453   6.352  19.308  0.00  0.00    +0.000 C 
ENDROOT
BRANCH   1   2
ATOM      2  N   UNL     1       2.368   7.772  19.015  0.00  0.00    +0.000 N 
ATOM      3  C   UNL     1       1.610   8.574  19.799  0.00  0.00    +0.000 A 
ATOM      4  N   UNL     1       1.298   8.329  21.049  0.00  0.00    +0.000 NA
ATOM      5  C   UNL     1       0.474   9.325  21.546  0.00  0.00    +0.000 A 
ATOM      6  C   UNL     1      -0.058   9.386  22.850  0.00  0.00    +0.000 A 
ATOM      7  C   UNL     1      -0.931  10.421  23.198  0.00  0.00    +0.000 A 
ATOM      8  C   UNL     1      -1.265  11.403  22.271  0.00  0.00    +0.000 A 
ATOM      9  C   UNL     1      -0.726  11.384  20.981  0.00  0.00    +0.000 A 
ATOM     10  C   UNL     1       0.144  10.333  20.640  0.00  0.00    +0.000 A 
ATOM     11  S   UNL     1       0.960  10.032  19.156  0.00  0.00    +0.000 S 
ATOM     12  H   UNL     1       2.433   8.022  18.034  0.00  0.00    +0.000 HD
ENDBRANCH   1   2
BRANCH   1  13
ATOM     13  C   UNL     1       1.999   5.532  18.099  0.00  0.00    +0.000 C 
BRANCH  13  14
ATOM     14  C   UNL     1       3.165   4.761  17.487  0.00  0.00    +0.000 C 
BRANCH  14  22
ATOM     15  O   UNL     1       5.641   6.016  18.212  0.00  0.00    +0.000 OA
ATOM     16  N   UNL     1       5.890   5.144  19.054  0.00  0.00    +0.000 N 
ATOM     17  O   UNL     1       6.860   5.155  19.825  0.00  0.00    +0.000 OA
ATOM     18  C   UNL     1       4.982   4.023  19.144  0.00  0.00    +0.000 A 
ATOM     19  N   UNL     1       5.204   2.996  19.949  0.00  0.00    +0.000 NA
ATOM     20  C   UNL     1       4.145   2.152  19.758  0.00  0.00    +0.000 A 
ATOM     21  C   UNL     1       3.274   2.668  18.828  0.00  0.00    +0.000 A 
ATOM     22  N   UNL     1       3.817   3.874  18.435  0.00  0.00    +0.000 N 
ENDBRANCH  14  22
ENDBRANCH  13  14
ENDBRANCH   1  13
TORSDOF 4
ENDMDL
MODEL 6
REMARK VINA RESULT:      -6.9      3.833      6.372
REMARK  Name = 
REMARK  4 active torsions:
REMARK  status: ('A' for Active; 'I' for Inactive)
REMARK    1  A    between atoms: N_8  and  C_9
REMARK    2  A    between atoms: C_9  and  C_10
REMARK    3  A    between atoms: C_10  and  C_11
REMARK    4  A    between atoms: C_11  and  N_12
REMARK                            x       y       z     vdW  Elec       q    Type
REMARK                         _______ _______ _______ _____ _____    ______ ____
ROOT
ATOM      1  C   UNL     1       2.443   4.675  18.461  0.00  0.00    +0.000 C 
ENDROOT
BRANCH   1   2
ATOM      2  N   UNL     1       2.747   6.028  18.028  0.00  0.00    +0.000 N 
ATOM      3  C   UNL     1       2.282   7.081  18.741  0.00  0.00    +0.000 A 
ATOM      4  N   UNL     1       1.973   7.050  20.014  0.00  0.00    +0.000 NA
ATOM      5  C   UNL     1       1.486   8.281  20.423  0.00  0.00    +0.000 A 
ATOM      6  C   UNL     1       1.053   8.609  21.724  0.00  0.00    +0.000 A 
ATOM      7  C   UNL     1       0.524   9.878  21.982  0.00  0.00    +0.000 A 
ATOM      8  C   UNL     1       0.437  10.825  20.967  0.00  0.00    +0.000 A 
ATOM      9  C   UNL     1       0.889  10.535  19.676  0.00  0.00    +0.000 A 
ATOM     10  C   UNL     1       1.411   9.253  19.427  0.00  0.00    +0.000 A 
ATOM     11  S   UNL     1       2.039   8.598  17.966  0.00  0.00    +0.000 S 
ATOM     12  H   UNL     1       2.834   6.158  17.025  0.00  0.00    +0.000 HD
ENDBRANCH   1   2
BRANCH   1  13
ATOM     13  C   UNL     1       3.715   3.825  18.479  0.00  0.00    +0.000 C 
BRANCH  13  14
ATOM     14  C   UNL     1       4.540   4.042  17.212  0.00  0.00    +0.000 C 
BRANCH  14  22
ATOM     15  O   UNL     1       5.899   4.213  14.692  0.00  0.00    +0.000 OA
ATOM     16  N   UNL     1       6.811   4.894  15.177  0.00  0.00    +0.000 N 
ATOM     17  O   UNL     1       7.746   5.394  14.535  0.00  0.00    +0.000 OA
ATOM     18  C   UNL     1       6.786   5.125  16.604  0.00  0.00    +0.000 A 
ATOM     19  N   UNL     1       7.759   5.766  17.233  0.00  0.00    +0.000 NA
ATOM     20  C   UNL     1       7.386   5.784  18.549  0.00  0.00    +0.000 A 
ATOM     21  C   UNL     1       6.180   5.147  18.721  0.00  0.00    +0.000 A 
ATOM     22  N   UNL     1       5.797   4.724  17.465  0.00  0.00    +0.000 N 
ENDBRANCH  14  22
ENDBRANCH  13  14
ENDBRANCH   1  13
TORSDOF 4
ENDMDL
MODEL 7
REMARK VINA RESULT:      -6.8      4.650      7.334
REMARK  Name = 
REMARK  4 active torsions:
REMARK  status: ('A' for Active; 'I' for Inactive)
REMARK    1  A    between atoms: N_8  and  C_9
REMARK    2  A    between atoms: C_9  and  C_10
REMARK    3  A    between atoms: C_10  and  C_11
REMARK    4  A    between atoms: C_11  and  N_12
REMARK                            x       y       z     vdW  Elec       q    Type
REMARK                         _______ _______ _______ _____ _____    ______ ____
ROOT
ATOM      1  C   UNL     1       2.301   7.437  17.884  0.00  0.00    +0.000 C 
ENDROOT
BRANCH   1   2
ATOM      2  N   UNL     1       1.985   8.853  17.959  0.00  0.00    +0.000 N 
ATOM      3  C   UNL     1       1.352   9.341  19.052  0.00  0.00    +0.000 A 
ATOM      4  N   UNL     1       1.382   8.799  20.245  0.00  0.00    +0.000 NA
ATOM      5  C   UNL     1       0.593   9.522  21.124  0.00  0.00    +0.000 A 
ATOM      6  C   UNL     1       0.390   9.226  22.488  0.00  0.00    +0.000 A 
ATOM      7  C   UNL     1      -0.486  10.010  23.246  0.00  0.00    +0.000 A 
ATOM      8  C   UNL     1      -1.146  11.090  22.669  0.00  0.00    +0.000 A 
ATOM      9  C   UNL     1      -0.936  11.423  21.327  0.00  0.00    +0.000 A 
ATOM     10  C   UNL     1      -0.059  10.624  20.572  0.00  0.00    +0.000 A 
ATOM     11  S   UNL     1       0.402  10.770  18.922  0.00  0.00    +0.000 S 
ATOM     12  H   UNL     1       1.781   9.305  17.073  0.00  0.00    +0.000 HD
ENDBRANCH   1   2
BRANCH   1  13
ATOM     13  C   UNL     1       3.791   7.241  17.595  0.00  0.00    +0.000 C 
BRANCH  13  14
ATOM     14  C   UNL     1       4.141   5.759  17.489  0.00  0.00    +0.000 C 
BRANCH  14  22
ATOM     15  O   UNL     1       5.367   5.413  14.919  0.00  0.00    +0.000 OA
ATOM     16  N   UNL     1       6.496   5.323  15.418  0.00  0.00    +0.000 N 
ATOM     17  O   UNL     1       7.553   5.232  14.777  0.00  0.00    +0.000 OA
ATOM     18  C   UNL     1       6.591   5.320  16.861  0.00  0.00    +0.000 A 
ATOM     19  N   UNL     1       7.740   5.141  17.493  0.00  0.00    +0.000 NA
ATOM     20  C   UNL     1       7.432   5.200  18.824  0.00  0.00    +0.000 A 
ATOM     21  C   UNL     1       6.086   5.414  19.002  0.00  0.00    +0.000 A 
ATOM     22  N   UNL     1       5.548   5.490  17.734  0.00  0.00    +0.000 N 
ENDBRANCH  14  22
ENDBRANCH  13  14
ENDBRANCH   1  13
TORSDOF 4
ENDMDL
MODEL 8
REMARK VINA RESULT:      -6.8      3.864      6.515
REMARK  Name = 
REMARK  4 active torsions:
REMARK  status: ('A' for Active; 'I' for Inactive)
REMARK    1  A    between atoms: N_8  and  C_9
REMARK    2  A    between atoms: C_9  and  C_10
REMARK    3  A    between atoms: C_10  and  C_11
REMARK    4  A    between atoms: C_11  and  N_12
REMARK                            x       y       z     vdW  Elec       q    Type
REMARK                         _______ _______ _______ _____ _____    ______ ____
ROOT
ATOM      1  C   UNL     1       2.309   5.566  19.500  0.00  0.00    +0.000 C 
ENDROOT
BRANCH   1   2
ATOM      2  N   UNL     1       2.449   6.963  19.127  0.00  0.00    +0.000 N 
ATOM      3  C   UNL     1       1.770   7.912  19.815  0.00  0.00    +0.000 A 
ATOM      4  N   UNL     1       1.352   7.792  21.052  0.00  0.00    +0.000 NA
ATOM      5  C   UNL     1       0.654   8.923  21.438  0.00  0.00    +0.000 A 
ATOM      6  C   UNL     1       0.060   9.139  22.699  0.00  0.00    +0.000 A 
ATOM      7  C   UNL     1      -0.673  10.308  22.932  0.00  0.00    +0.000 A 
ATOM      8  C   UNL     1      -0.805  11.268  21.933  0.00  0.00    +0.000 A 
ATOM      9  C   UNL     1      -0.199  11.092  20.685  0.00  0.00    +0.000 A 
ATOM     10  C   UNL     1       0.528   9.909  20.460  0.00  0.00    +0.000 A 
ATOM     11  S   UNL     1       1.378   9.404  19.052  0.00  0.00    +0.000 S 
ATOM     12  H   UNL     1       2.608   7.140  18.141  0.00  0.00    +0.000 HD
ENDBRANCH   1   2
BRANCH   1  13
ATOM     13  C   UNL     1       3.684   4.897  19.574  0.00  0.00    +0.000 C 
BRANCH  13  14
ATOM     14  C   UNL     1       4.748   5.750  18.887  0.00  0.00    +0.000 C 
BRANCH  14  22
ATOM     15  O   UNL     1       7.528   5.204  19.340  0.00  0.00    +0.000 OA
ATOM     16  N   UNL     1       7.641   4.631  18.250  0.00  0.00    +0.000 N 
ATOM     17  O   UNL     1       8.663   4.055  17.850  0.00  0.00    +0.000 OA
ATOM     18  C   UNL     1       6.493   4.634  17.371  0.00  0.00    +0.000 A 
ATOM     19  N   UNL     1       6.537   4.126  16.149  0.00  0.00    +0.000 NA
ATOM     20  C   UNL     1       5.283   4.312  15.636  0.00  0.00    +0.000 A 
ATOM     21  C   UNL     1       4.472   4.941  16.551  0.00  0.00    +0.000 A 
ATOM     22  N   UNL     1       5.256   5.146  17.667  0.00  0.00    +0.000 N 
ENDBRANCH  14  22
ENDBRANCH  13  14
ENDBRANCH   1  13
TORSDOF 4
ENDMDL
MODEL 9
REMARK VINA RESULT:      -6.7      4.109      6.519
REMARK  Name = 
REMARK  4 active torsions:
REMARK  status: ('A' for Active; 'I' for Inactive)
REMARK    1  A    between atoms: N_8  and  C_9
REMARK    2  A    between atoms: C_9  and  C_10
REMARK    3  A    between atoms: C_10  and  C_11
REMARK    4  A    between atoms: C_11  and  N_12
REMARK                            x       y       z     vdW  Elec       q    Type
REMARK                         _______ _______ _______ _____ _____    ______ ____
ROOT
ATOM      1  C   UNL     1       1.907   5.768  21.009  0.00  0.00    +0.000 C 
ENDROOT
BRANCH   1   2
ATOM      2  N   UNL     1       2.095   7.035  20.325  0.00  0.00    +0.000 N 
ATOM      3  C   UNL     1       1.383   8.119  20.715  0.00  0.00    +0.000 A 
ATOM      4  N   UNL     1       0.877   8.297  21.911  0.00  0.00    +0.000 NA
ATOM      5  C   UNL     1       0.170   9.487  21.964  0.00  0.00    +0.000 A 
ATOM      6  C   UNL     1      -0.509   9.997  23.090  0.00  0.00    +0.000 A 
ATOM      7  C   UNL     1      -1.237  11.186  22.984  0.00  0.00    +0.000 A 
ATOM      8  C   UNL     1      -1.283  11.879  21.779  0.00  0.00    +0.000 A 
ATOM      9  C   UNL     1      -0.592  11.412  20.656  0.00  0.00    +0.000 A 
ATOM     10  C   UNL     1       0.131  10.211  20.773  0.00  0.00    +0.000 A 
ATOM     11  S   UNL     1       1.071   9.386  19.592  0.00  0.00    +0.000 S 
ATOM     12  H   UNL     1       2.327   6.972  19.339  0.00  0.00    +0.000 HD
ENDBRANCH   1   2
BRANCH   1  13
ATOM     13  C   UNL     1       1.072   4.818  20.146  0.00  0.00    +0.000 C 
BRANCH  13  14
ATOM     14  C   UNL     1       1.839   4.393  18.897  0.00  0.00    +0.000 C 
BRANCH  14  22
ATOM     15  O   UNL     1       3.942   6.180  18.115  0.00  0.00    +0.000 OA
ATOM     16  N   UNL     1       4.813   5.430  18.574  0.00  0.00    +0.000 N 
ATOM     17  O   UNL     1       6.024   5.689  18.620  0.00  0.00    +0.000 OA
ATOM     18  C   UNL     1       4.387   4.150  19.094  0.00  0.00    +0.000 A 
ATOM     19  N   UNL     1       5.246   3.241  19.526  0.00  0.00    +0.000 NA
ATOM     20  C   UNL     1       4.479   2.183  19.931  0.00  0.00    +0.000 A 
ATOM     21  C   UNL     1       3.144   2.451  19.742  0.00  0.00    +0.000 A 
ATOM     22  N   UNL     1       3.089   3.719  19.202  0.00  0.00    +0.000 N 
ENDBRANCH  14  22
ENDBRANCH  13  14
ENDBRANCH   1  13
TORSDOF 4
ENDMDL
