MODEL 1
REMARK VINA RESULT:      -7.3      0.000      0.000
REMARK  Name = 
REMARK  5 active torsions:
REMARK  status: ('A' for Active; 'I' for Inactive)
REMARK    1  A    between atoms: C_1  and  C_2
REMARK    2  A    between atoms: C_4  and  N_5
REMARK    3  A    between atoms: N_5  and  C_6
REMARK    4  A    between atoms: C_6  and  C_7
REMARK    5  A    between atoms: C_7  and  O_8
REMARK                            x       y       z     vdW  Elec       q    Type
REMARK                         _______ _______ _______ _____ _____    ______ ____
ROOT
ATOM      1  C   UNL     1       6.359   3.964  14.199  0.00  0.00    +0.000 C 
ATOM      2  C   UNL     1       6.225   4.276  15.667  0.00  0.00    +0.000 A 
ATOM      3  C   UNL     1       4.843   4.274  16.241  0.00  0.00    +0.000 A 
ATOM      4  C   UNL     1       4.716   4.606  17.535  0.00  0.00    +0.000 A 
ATOM      5  N   UNL     1       5.897   4.867  18.264  0.00  0.00    +0.000 N 
ATOM      6  N   UNL     1       6.029   5.196  19.585  0.00  0.00    +0.000 NA
ATOM      7  C   UNL     1       7.352   5.359  19.682  0.00  0.00    +0.000 A 
ATOM      8  N   UNL     1       8.074   5.131  18.555  0.00  0.00    +0.000 NA
ATOM      9  C   UNL     1       7.157   4.830  17.659  0.00  0.00    +0.000 A 
ATOM     10  N   UNL     1       7.314   4.529  16.337  0.00  0.00    +0.000 NA
ENDROOT
BRANCH   4  11
ATOM     11  N   UNL     1       3.477   4.629  18.201  0.00  0.00    +0.000 N 
ATOM     12  H   UNL     1       2.743   4.819  17.509  0.00  0.00    +0.000 HD
BRANCH  11  13
ATOM     13  C   UNL     1       3.005   3.529  19.057  0.00  0.00    +0.000 C 
ATOM     14  C   UNL     1       2.583   3.945  20.493  0.00  0.00    +0.000 C 
ATOM     15  C   UNL     1       1.240   3.226  20.279  0.00  0.00    +0.000 C 
ATOM     16  C   UNL     1       1.497   3.268  18.763  0.00  0.00    +0.000 C 
BRANCH  13  17
ATOM     17  C   UNL     1       3.856   2.254  18.940  0.00  0.00    +0.000 C 
BRANCH  17  18
ATOM     18  O   UNL     1       4.878   2.232  19.929  0.00  0.00    +0.000 OA
ATOM     19  H   UNL     1       5.664   1.826  19.513  0.00  0.00    +0.000 HD
ENDBRANCH  17  18
ENDBRANCH  13  17
ENDBRANCH  11  13
ENDBRANCH   4  11
TORSDOF 4
ENDMDL
MODEL 2
REMARK VINA RESULT:      -7.1      1.360      1.533
REMARK  Name = 
REMARK  5 active torsions:
REMARK  status: ('A' for Active; 'I' for Inactive)
REMARK    1  A    between atoms: C_1  and  C_2
REMARK    2  A    between atoms: C_4  and  N_5
REMARK    3  A    between atoms: N_5  and  C_6
REMARK    4  A    between atoms: C_6  and  C_7
REMARK    5  A    between atoms: C_7  and  O_8
REMARK                            x       y       z     vdW  Elec       q    Type
REMARK                         _______ _______ _______ _____ _____    ______ ____
ROOT
ATOM      1  C   UNL     1       6.788   4.864  13.273  0.00  0.00    +0.000 C 
ATOM      2  C   UNL     1       6.678   4.798  14.774  0.00  0.00    +0.000 A 
ATOM      3  C   UNL     1       5.721   3.799  15.344  0.00  0.00    +0.000 A 
ATOM      4  C   UNL     1       5.581   3.776  16.678  0.00  0.00    +0.000 A 
ATOM      5  N   UNL     1       6.390   4.649  17.438  0.00  0.00    +0.000 N 
ATOM      6  N   UNL     1       6.449   4.793  18.796  0.00  0.00    +0.000 NA
ATOM      7  C   UNL     1       7.347   5.776  18.916  0.00  0.00    +0.000 A 
ATOM      8  N   UNL     1       7.886   6.247  17.763  0.00  0.00    +0.000 NA
ATOM      9  C   UNL     1       7.278   5.544  16.831  0.00  0.00    +0.000 A 
ATOM     10  N   UNL     1       7.416   5.612  15.474  0.00  0.00    +0.000 NA
ENDROOT
BRANCH   4  11
ATOM     11  N   UNL     1       4.727   2.877  17.342  0.00  0.00    +0.000 N 
ATOM     12  H   UNL     1       5.302   2.245  17.910  0.00  0.00    +0.000 HD
BRANCH  11  13
ATOM     13  C   UNL     1       3.593   3.312  18.174  0.00  0.00    +0.000 C 
ATOM     14  C   UNL     1       3.056   4.736  17.864  0.00  0.00    +0.000 C 
ATOM     15  C   UNL     1       1.641   4.146  17.736  0.00  0.00    +0.000 C 
ATOM     16  C   UNL     1       2.272   2.755  17.562  0.00  0.00    +0.000 C 
BRANCH  13  17
ATOM     17  C   UNL     1       3.750   2.953  19.659  0.00  0.00    +0.000 C 
BRANCH  17  18
ATOM     18  O   UNL     1       5.012   2.343  19.905  0.00  0.00    +0.000 OA
ATOM     19  H   UNL     1       4.877   1.699  20.629  0.00  0.00    +0.000 HD
ENDBRANCH  17  18
ENDBRANCH  13  17
ENDBRANCH  11  13
ENDBRANCH   4  11
TORSDOF 4
ENDMDL
MODEL 3
REMARK VINA RESULT:      -7.0      1.823      3.282
REMARK  Name = 
REMARK  5 active torsions:
REMARK  status: ('A' for Active; 'I' for Inactive)
REMARK    1  A    between atoms: C_1  and  C_2
REMARK    2  A    between atoms: C_4  and  N_5
REMARK    3  A    between atoms: N_5  and  C_6
REMARK    4  A    between atoms: C_6  and  C_7
REMARK    5  A    between atoms: C_7  and  O_8
REMARK                            x       y       z     vdW  Elec       q    Type
REMARK                         _______ _______ _______ _____ _____    ______ ____
ROOT
ATOM      1  C   UNL     1       8.125   7.826  18.285  0.00  0.00    +0.000 C 
ATOM      2  C   UNL     1       7.459   6.643  17.633  0.00  0.00    +0.000 A 
ATOM      3  C   UNL     1       6.761   5.672  18.533  0.00  0.00    +0.000 A 
ATOM      4  C   UNL     1       6.214   4.589  17.959  0.00  0.00    +0.000 A 
ATOM      5  N   UNL     1       6.285   4.485  16.552  0.00  0.00    +0.000 N 
ATOM      6  N   UNL     1       5.787   3.502  15.743  0.00  0.00    +0.000 NA
ATOM      7  C   UNL     1       6.193   3.922  14.541  0.00  0.00    +0.000 A 
ATOM      8  N   UNL     1       6.874   5.096  14.509  0.00  0.00    +0.000 NA
ATOM      9  C   UNL     1       6.940   5.447  15.776  0.00  0.00    +0.000 A 
ATOM     10  N   UNL     1       7.534   6.541  16.336  0.00  0.00    +0.000 NA
ENDROOT
BRANCH   4  11
ATOM     11  N   UNL     1       5.517   3.607  18.688  0.00  0.00    +0.000 N 
ATOM     12  H   UNL     1       5.910   3.570  19.634  0.00  0.00    +0.000 HD
BRANCH  11  13
ATOM     13  C   UNL     1       4.051   3.591  18.814  0.00  0.00    +0.000 C 
ATOM     14  C   UNL     1       3.325   2.532  17.939  0.00  0.00    +0.000 C 
ATOM     15  C   UNL     1       2.593   2.033  19.198  0.00  0.00    +0.000 C 
ATOM     16  C   UNL     1       3.659   2.735  20.056  0.00  0.00    +0.000 C 
BRANCH  13  17
ATOM     17  C   UNL     1       3.424   4.993  18.844  0.00  0.00    +0.000 C 
BRANCH  17  18
ATOM     18  O   UNL     1       3.415   5.519  20.166  0.00  0.00    +0.000 OA
ATOM     19  H   UNL     1       4.192   6.108  20.240  0.00  0.00    +0.000 HD
ENDBRANCH  17  18
ENDBRANCH  13  17
ENDBRANCH  11  13
ENDBRANCH   4  11
TORSDOF 4
ENDMDL
MODEL 4
REMARK VINA RESULT:      -7.0      1.683      3.091
REMARK  Name = 
REMARK  5 active torsions:
REMARK  status: ('A' for Active; 'I' for Inactive)
REMARK    1  A    between atoms: C_1  and  C_2
REMARK    2  A    between atoms: C_4  and  N_5
REMARK    3  A    between atoms: N_5  and  C_6
REMARK    4  A    between atoms: C_6  and  C_7
REMARK    5  A    between atoms: C_7  and  O_8
REMARK                            x       y       z     vdW  Elec       q    Type
REMARK                         _______ _______ _______ _____ _____    ______ ____
ROOT
ATOM      1  C   UNL     1       8.007   7.649  18.391  0.00  0.00    +0.000 C 
ATOM      2  C   UNL     1       7.380   6.497  17.649  0.00  0.00    +0.000 A 
ATOM      3  C   UNL     1       6.638   5.485  18.464  0.00  0.00    +0.000 A 
ATOM      4  C   UNL     1       6.126   4.430  17.812  0.00  0.00    +0.000 A 
ATOM      5  N   UNL     1       6.272   4.391  16.408  0.00  0.00    +0.000 N 
ATOM      6  N   UNL     1       5.821   3.447  15.528  0.00  0.00    +0.000 NA
ATOM      7  C   UNL     1       6.290   3.922  14.370  0.00  0.00    +0.000 A 
ATOM      8  N   UNL     1       6.969   5.097  14.430  0.00  0.00    +0.000 NA
ATOM      9  C   UNL     1       6.965   5.389  15.714  0.00  0.00    +0.000 A 
ATOM     10  N   UNL     1       7.525   6.456  16.354  0.00  0.00    +0.000 NA
ENDROOT
BRANCH   4  11
ATOM     11  N   UNL     1       5.394   3.415  18.455  0.00  0.00    +0.000 N 
ATOM     12  H   UNL     1       5.756   3.313  19.410  0.00  0.00    +0.000 HD
BRANCH  11  13
ATOM     13  C   UNL     1       3.925   3.412  18.535  0.00  0.00    +0.000 C 
ATOM     14  C   UNL     1       3.329   4.149  19.767  0.00  0.00    +0.000 C 
ATOM     15  C   UNL     1       2.432   4.958  18.815  0.00  0.00    +0.000 C 
ATOM     16  C   UNL     1       3.367   4.572  17.657  0.00  0.00    +0.000 C 
BRANCH  13  17
ATOM     17  C   UNL     1       3.295   2.055  18.186  0.00  0.00    +0.000 C 
BRANCH  17  18
ATOM     18  O   UNL     1       4.225   0.996  18.384  0.00  0.00    +0.000 OA
ATOM     19  H   UNL     1       5.027   1.395  18.776  0.00  0.00    +0.000 HD
ENDBRANCH  17  18
ENDBRANCH  13  17
ENDBRANCH  11  13
ENDBRANCH   4  11
TORSDOF 4
ENDMDL
MODEL 5
REMARK VINA RESULT:      -7.0      1.295      1.625
REMARK  Name = 
REMARK  5 active torsions:
REMARK  status: ('A' for Active; 'I' for Inactive)
REMARK    1  A    between atoms: C_1  and  C_2
REMARK    2  A    between atoms: C_4  and  N_5
REMARK    3  A    between atoms: N_5  and  C_6
REMARK    4  A    between atoms: C_6  and  C_7
REMARK    5  A    between atoms: C_7  and  O_8
REMARK                            x       y       z     vdW  Elec       q    Type
REMARK                         _______ _______ _______ _____ _____    ______ ____
ROOT
ATOM      1  C   UNL     1       5.707   4.212  14.139  0.00  0.00    +0.000 C 
ATOM      2  C   UNL     1       5.862   4.395  15.627  0.00  0.00    +0.000 A 
ATOM      3  C   UNL     1       4.831   3.756  16.502  0.00  0.00    +0.000 A 
ATOM      4  C   UNL     1       4.935   3.963  17.825  0.00  0.00    +0.000 A 
ATOM      5  N   UNL     1       6.041   4.710  18.286  0.00  0.00    +0.000 N 
ATOM      6  N   UNL     1       6.378   5.031  19.572  0.00  0.00    +0.000 NA
ATOM      7  C   UNL     1       7.475   5.770  19.378  0.00  0.00    +0.000 A 
ATOM      8  N   UNL     1       7.884   5.920  18.092  0.00  0.00    +0.000 NA
ATOM      9  C   UNL     1       6.976   5.260  17.403  0.00  0.00    +0.000 A 
ATOM     10  N   UNL     1       6.876   5.094  16.052  0.00  0.00    +0.000 NA
ENDROOT
BRANCH   4  11
ATOM     11  N   UNL     1       4.042   3.408  18.759  0.00  0.00    +0.000 N 
ATOM     12  H   UNL     1       4.532   3.310  19.654  0.00  0.00    +0.000 HD
BRANCH  11  13
ATOM     13  C   UNL     1       2.716   3.981  19.039  0.00  0.00    +0.000 C 
ATOM     14  C   UNL     1       1.525   3.260  18.349  0.00  0.00    +0.000 C 
ATOM     15  C   UNL     1       0.832   3.150  19.718  0.00  0.00    +0.000 C 
ATOM     16  C   UNL     1       2.191   3.408  20.390  0.00  0.00    +0.000 C 
BRANCH  13  17
ATOM     17  C   UNL     1       2.693   5.517  19.004  0.00  0.00    +0.000 C 
BRANCH  17  18
ATOM     18  O   UNL     1       3.382   6.062  20.122  0.00  0.00    +0.000 OA
ATOM     19  H   UNL     1       2.774   6.703  20.543  0.00  0.00    +0.000 HD
ENDBRANCH  17  18
ENDBRANCH  13  17
ENDBRANCH  11  13
ENDBRANCH   4  11
TORSDOF 4
ENDMDL
MODEL 6
REMARK VINA RESULT:      -6.9      1.760      3.216
REMARK  Name = 
REMARK  5 active torsions:
REMARK  status: ('A' for Active; 'I' for Inactive)
REMARK    1  A    between atoms: C_1  and  C_2
REMARK    2  A    between atoms: C_4  and  N_5
REMARK    3  A    between atoms: N_5  and  C_6
REMARK    4  A    between atoms: C_6  and  C_7
REMARK    5  A    between atoms: C_7  and  O_8
REMARK                            x       y       z     vdW  Elec       q    Type
REMARK                         _______ _______ _______ _____ _____    ______ ____
ROOT
ATOM      1  C   UNL     1       8.208   7.429  18.569  0.00  0.00    +0.000 C 
ATOM      2  C   UNL     1       7.458   6.382  17.787  0.00  0.00    +0.000 A 
ATOM      3  C   UNL     1       6.584   5.447  18.564  0.00  0.00    +0.000 A 
ATOM      4  C   UNL     1       5.958   4.480  17.876  0.00  0.00    +0.000 A 
ATOM      5  N   UNL     1       6.122   4.460  16.474  0.00  0.00    +0.000 N 
ATOM      6  N   UNL     1       5.574   3.600  15.562  0.00  0.00    +0.000 NA
ATOM      7  C   UNL     1       6.117   4.044  14.425  0.00  0.00    +0.000 A 
ATOM      8  N   UNL     1       6.933   5.125  14.525  0.00  0.00    +0.000 NA
ATOM      9  C   UNL     1       6.943   5.382  15.817  0.00  0.00    +0.000 A 
ATOM     10  N   UNL     1       7.619   6.356  16.494  0.00  0.00    +0.000 NA
ENDROOT
BRANCH   4  11
ATOM     11  N   UNL     1       5.097   3.546  18.482  0.00  0.00    +0.000 N 
ATOM     12  H   UNL     1       5.517   3.250  19.370  0.00  0.00    +0.000 HD
BRANCH  11  13
ATOM     13  C   UNL     1       3.672   3.812  18.732  0.00  0.00    +0.000 C 
ATOM     14  C   UNL     1       3.050   4.943  17.866  0.00  0.00    +0.000 C 
ATOM     15  C   UNL     1       1.927   3.975  17.456  0.00  0.00    +0.000 C 
ATOM     16  C   UNL     1       2.816   2.804  17.908  0.00  0.00    +0.000 C 
BRANCH  13  17
ATOM     17  C   UNL     1       3.302   3.817  20.223  0.00  0.00    +0.000 C 
BRANCH  17  18
ATOM     18  O   UNL     1       2.901   5.115  20.644  0.00  0.00    +0.000 OA
ATOM     19  H   UNL     1       2.725   5.633  19.833  0.00  0.00    +0.000 HD
ENDBRANCH  17  18
ENDBRANCH  13  17
ENDBRANCH  11  13
ENDBRANCH   4  11
TORSDOF 4
ENDMDL
MODEL 7
REMARK VINA RESULT:      -6.9      1.655      1.988
REMARK  Name = 
REMARK  5 active torsions:
REMARK  status: ('A' for Active; 'I' for Inactive)
REMARK    1  A    between atoms: C_1  and  C_2
REMARK    2  A    between atoms: C_4  and  N_5
REMARK    3  A    between atoms: N_5  and  C_6
REMARK    4  A    between atoms: C_6  and  C_7
REMARK    5  A    between atoms: C_7  and  O_8
REMARK                            x       y       z     vdW  Elec       q    Type
REMARK                         _______ _______ _______ _____ _____    ______ ____
ROOT
ATOM      1  C   UNL     1       6.354   3.945  13.327  0.00  0.00    +0.000 C 
ATOM      2  C   UNL     1       6.418   4.420  14.755  0.00  0.00    +0.000 A 
ATOM      3  C   UNL     1       5.627   3.651  15.765  0.00  0.00    +0.000 A 
ATOM      4  C   UNL     1       5.637   4.105  17.028  0.00  0.00    +0.000 A 
ATOM      5  N   UNL     1       6.441   5.231  17.313  0.00  0.00    +0.000 N 
ATOM      6  N   UNL     1       6.636   5.859  18.512  0.00  0.00    +0.000 NA
ATOM      7  C   UNL     1       7.446   6.860  18.154  0.00  0.00    +0.000 A 
ATOM      8  N   UNL     1       7.808   6.907  16.847  0.00  0.00    +0.000 NA
ATOM      9  C   UNL     1       7.169   5.886  16.315  0.00  0.00    +0.000 A 
ATOM     10  N   UNL     1       7.150   5.466  15.016  0.00  0.00    +0.000 NA
ENDROOT
BRANCH   4  11
ATOM     11  N   UNL     1       4.949   3.468  18.076  0.00  0.00    +0.000 N 
ATOM     12  H   UNL     1       5.471   3.623  18.946  0.00  0.00    +0.000 HD
BRANCH  11  13
ATOM     13  C   UNL     1       3.526   3.705  18.364  0.00  0.00    +0.000 C 
ATOM     14  C   UNL     1       2.531   2.904  17.480  0.00  0.00    +0.000 C 
ATOM     15  C   UNL     1       1.836   2.408  18.760  0.00  0.00    +0.000 C 
ATOM     16  C   UNL     1       3.091   2.800  19.556  0.00  0.00    +0.000 C 
BRANCH  13  17
ATOM     17  C   UNL     1       3.188   5.186  18.597  0.00  0.00    +0.000 C 
BRANCH  17  18
ATOM     18  O   UNL     1       3.686   5.631  19.852  0.00  0.00    +0.000 OA
ATOM     19  H   UNL     1       3.837   6.595  19.770  0.00  0.00    +0.000 HD
ENDBRANCH  17  18
ENDBRANCH  13  17
ENDBRANCH  11  13
ENDBRANCH   4  11
TORSDOF 4
ENDMDL
MODEL 8
REMARK VINA RESULT:      -6.9      1.642      1.894
REMARK  Name = 
REMARK  5 active torsions:
REMARK  status: ('A' for Active; 'I' for Inactive)
REMARK    1  A    between atoms: C_1  and  C_2
REMARK    2  A    between atoms: C_4  and  N_5
REMARK    3  A    between atoms: N_5  and  C_6
REMARK    4  A    between atoms: C_6  and  C_7
REMARK    5  A    between atoms: C_7  and  O_8
REMARK                            x       y       z     vdW  Elec       q    Type
REMARK                         _______ _______ _______ _____ _____    ______ ____
ROOT
ATOM      1  C   UNL     1       6.068   3.898  13.431  0.00  0.00    +0.000 C 
ATOM      2  C   UNL     1       6.194   4.382  14.852  0.00  0.00    +0.000 A 
ATOM      3  C   UNL     1       5.394   3.661  15.891  0.00  0.00    +0.000 A 
ATOM      4  C   UNL     1       5.462   4.124  17.149  0.00  0.00    +0.000 A 
ATOM      5  N   UNL     1       6.329   5.211  17.401  0.00  0.00    +0.000 N 
ATOM      6  N   UNL     1       6.588   5.838  18.588  0.00  0.00    +0.000 NA
ATOM      7  C   UNL     1       7.436   6.795  18.199  0.00  0.00    +0.000 A 
ATOM      8  N   UNL     1       7.764   6.813  16.882  0.00  0.00    +0.000 NA
ATOM      9  C   UNL     1       7.060   5.821  16.377  0.00  0.00    +0.000 A 
ATOM     10  N   UNL     1       6.985   5.392  15.083  0.00  0.00    +0.000 NA
ENDROOT
BRANCH   4  11
ATOM     11  N   UNL     1       4.773   3.530  18.221  0.00  0.00    +0.000 N 
ATOM     12  H   UNL     1       5.377   3.562  19.050  0.00  0.00    +0.000 HD
BRANCH  11  13
ATOM     13  C   UNL     1       3.425   3.948  18.639  0.00  0.00    +0.000 C 
ATOM     14  C   UNL     1       2.844   5.167  17.870  0.00  0.00    +0.000 C 
ATOM     15  C   UNL     1       1.578   4.345  17.576  0.00  0.00    +0.000 C 
ATOM     16  C   UNL     1       2.370   3.068  17.902  0.00  0.00    +0.000 C 
BRANCH  13  17
ATOM     17  C   UNL     1       3.228   3.948  20.162  0.00  0.00    +0.000 C 
BRANCH  17  18
ATOM     18  O   UNL     1       3.011   5.268  20.647  0.00  0.00    +0.000 OA
ATOM     19  H   UNL     1       2.669   5.180  21.560  0.00  0.00    +0.000 HD
ENDBRANCH  17  18
ENDBRANCH  13  17
ENDBRANCH  11  13
ENDBRANCH   4  11
TORSDOF 4
ENDMDL
MODEL 9
REMARK VINA RESULT:      -6.8      1.484      1.603
REMARK  Name = 
REMARK  5 active torsions:
REMARK  status: ('A' for Active; 'I' for Inactive)
REMARK    1  A    between atoms: C_1  and  C_2
REMARK    2  A    between atoms: C_4  and  N_5
REMARK    3  A    between atoms: N_5  and  C_6
REMARK    4  A    between atoms: C_6  and  C_7
REMARK    5  A    between atoms: C_7  and  O_8
REMARK                            x       y       z     vdW  Elec       q    Type
REMARK                         _______ _______ _______ _____ _____    ______ ____
ROOT
ATOM      1  C   UNL     1       5.815   3.907  13.452  0.00  0.00    +0.000 C 
ATOM      2  C   UNL     1       6.064   4.403  14.852  0.00  0.00    +0.000 A 
ATOM      3  C   UNL     1       5.437   3.631  15.971  0.00  0.00    +0.000 A 
ATOM      4  C   UNL     1       5.612   4.103  17.215  0.00  0.00    +0.000 A 
ATOM      5  N   UNL     1       6.423   5.248  17.374  0.00  0.00    +0.000 N 
ATOM      6  N   UNL     1       6.768   5.896  18.528  0.00  0.00    +0.000 NA
ATOM      7  C   UNL     1       7.498   6.909  18.051  0.00  0.00    +0.000 A 
ATOM      8  N   UNL     1       7.675   6.946  16.705  0.00  0.00    +0.000 NA
ATOM      9  C   UNL     1       6.991   5.905  16.278  0.00  0.00    +0.000 A 
ATOM     10  N   UNL     1       6.802   5.467  14.999  0.00  0.00    +0.000 NA
ENDROOT
BRANCH   4  11
ATOM     11  N   UNL     1       5.090   3.465  18.355  0.00  0.00    +0.000 N 
ATOM     12  H   UNL     1       5.444   3.951  19.186  0.00  0.00    +0.000 HD
BRANCH  11  13
ATOM     13  C   UNL     1       3.651   3.232  18.556  0.00  0.00    +0.000 C 
ATOM     14  C   UNL     1       3.077   3.763  19.899  0.00  0.00    +0.000 C 
ATOM     15  C   UNL     1       1.985   4.504  19.109  0.00  0.00    +0.000 C 
ATOM     16  C   UNL     1       2.850   4.364  17.845  0.00  0.00    +0.000 C 
BRANCH  13  17
ATOM     17  C   UNL     1       3.193   1.829  18.128  0.00  0.00    +0.000 C 
BRANCH  17  18
ATOM     18  O   UNL     1       4.201   0.862  18.391  0.00  0.00    +0.000 OA
ATOM     19  H   UNL     1       4.029   0.106  17.794  0.00  0.00    +0.000 HD
ENDBRANCH  17  18
ENDBRANCH  13  17
ENDBRANCH  11  13
ENDBRANCH   4  11
TORSDOF 4
ENDMDL
