MODEL 1
REMARK VINA RESULT:      -8.2      0.000      0.000
REMARK  Name = 
REMARK  3 active torsions:
REMARK  status: ('A' for Active; 'I' for Inactive)
REMARK    1  A    between atoms: C_2  and  C_3
REMARK    2  A    between atoms: C_8  and  C_9
REMARK    3  A    between atoms: C_11  and  C_12
REMARK                            x       y       z     vdW  Elec       q    Type
REMARK                         _______ _______ _______ _____ _____    ______ ____
ROOT
ATOM      1  C   UNL     1       4.982   4.929  17.690  0.00  0.00    +0.000 A 
ATOM      2  N   UNL     1       4.886   4.972  16.375  0.00  0.00    +0.000 NA
ATOM      3  C   UNL     1       6.150   4.626  15.945  0.00  0.00    +0.000 A 
ATOM      4  C   UNL     1       6.960   4.393  17.030  0.00  0.00    +0.000 A 
ATOM      5  O   UNL     1       6.224   4.586  18.158  0.00  0.00    +0.000 OA
ENDROOT
BRANCH   1  11
ATOM      6  C   UNL     1       2.533   4.489  20.509  0.00  0.00    +0.000 A 
ATOM      7  C   UNL     1       1.903   5.734  20.531  0.00  0.00    +0.000 A 
ATOM      8  C   UNL     1       2.324   6.725  19.652  0.00  0.00    +0.000 A 
ATOM      9  F   UNL     1       1.718   7.918  19.672  0.00  0.00    +0.000 F 
ATOM     10  C   UNL     1       3.346   6.495  18.739  0.00  0.00    +0.000 A 
ATOM     11  C   UNL     1       3.967   5.243  18.687  0.00  0.00    +0.000 A 
ATOM     12  C   UNL     1       3.567   4.250  19.597  0.00  0.00    +0.000 A 
BRANCH   6  14
ATOM     13  N   UNL     1       1.757   2.600  22.106  0.00  0.00    +0.000 NA
ATOM     14  C   UNL     1       2.103   3.450  21.394  0.00  0.00    +0.000 C 
ENDBRANCH   6  14
ENDBRANCH   1  11
BRANCH   3  15
ATOM     15  C   UNL     1       6.556   4.535  14.558  0.00  0.00    +0.000 A 
ATOM     16  C   UNL     1       5.937   3.634  13.699  0.00  0.00    +0.000 A 
ATOM     17  C   UNL     1       6.342   3.594  12.367  0.00  0.00    +0.000 A 
ATOM     18  C   UNL     1       7.356   4.444  11.941  0.00  0.00    +0.000 A 
ATOM     19  C   UNL     1       7.926   5.303  12.865  0.00  0.00    +0.000 A 
ATOM     20  N   UNL     1       7.551   5.371  14.161  0.00  0.00    +0.000 NA
ENDBRANCH   3  15
TORSDOF 3
ENDMDL
MODEL 2
REMARK VINA RESULT:      -7.8      1.883      2.328
REMARK  Name = 
REMARK  3 active torsions:
REMARK  status: ('A' for Active; 'I' for Inactive)
REMARK    1  A    between atoms: C_2  and  C_3
REMARK    2  A    between atoms: C_8  and  C_9
REMARK    3  A    between atoms: C_11  and  C_12
REMARK                            x       y       z     vdW  Elec       q    Type
REMARK                         _______ _______ _______ _____ _____    ______ ____
ROOT
ATOM      1  C   UNL     1       4.977   4.562  17.703  0.00  0.00    +0.000 A 
ATOM      2  N   UNL     1       4.873   4.527  16.389  0.00  0.00    +0.000 NA
ATOM      3  C   UNL     1       6.183   4.529  15.958  0.00  0.00    +0.000 A 
ATOM      4  C   UNL     1       7.026   4.571  17.042  0.00  0.00    +0.000 A 
ATOM      5  O   UNL     1       6.265   4.594  18.170  0.00  0.00    +0.000 OA
ENDROOT
BRANCH   1  11
ATOM      6  C   UNL     1       2.386   5.963  20.039  0.00  0.00    +0.000 A 
ATOM      7  C   UNL     1       1.973   4.817  20.721  0.00  0.00    +0.000 A 
ATOM      8  C   UNL     1       2.513   3.586  20.371  0.00  0.00    +0.000 A 
ATOM      9  F   UNL     1       2.119   2.487  21.027  0.00  0.00    +0.000 F 
ATOM     10  C   UNL     1       3.471   3.475  19.370  0.00  0.00    +0.000 A 
ATOM     11  C   UNL     1       3.915   4.618  18.699  0.00  0.00    +0.000 A 
ATOM     12  C   UNL     1       3.345   5.860  19.026  0.00  0.00    +0.000 A 
BRANCH   6  14
ATOM     13  N   UNL     1       1.430   8.286  20.683  0.00  0.00    +0.000 NA
ATOM     14  C   UNL     1       1.854   7.243  20.397  0.00  0.00    +0.000 C 
ENDBRANCH   6  14
ENDBRANCH   1  11
BRANCH   3  15
ATOM     15  C   UNL     1       6.598   4.503  14.571  0.00  0.00    +0.000 A 
ATOM     16  C   UNL     1       5.984   3.644  13.667  0.00  0.00    +0.000 A 
ATOM     17  C   UNL     1       6.397   3.665  12.337  0.00  0.00    +0.000 A 
ATOM     18  C   UNL     1       7.415   4.533  11.957  0.00  0.00    +0.000 A 
ATOM     19  C   UNL     1       7.979   5.347  12.924  0.00  0.00    +0.000 A 
ATOM     20  N   UNL     1       7.596   5.355  14.219  0.00  0.00    +0.000 NA
ENDBRANCH   3  15
TORSDOF 3
ENDMDL
MODEL 3
REMARK VINA RESULT:      -7.5      3.902      8.169
REMARK  Name = 
REMARK  3 active torsions:
REMARK  status: ('A' for Active; 'I' for Inactive)
REMARK    1  A    between atoms: C_2  and  C_3
REMARK    2  A    between atoms: C_8  and  C_9
REMARK    3  A    between atoms: C_11  and  C_12
REMARK                            x       y       z     vdW  Elec       q    Type
REMARK                         _______ _______ _______ _____ _____    ______ ____
ROOT
ATOM      1  C   UNL     1       2.503   7.402  18.325  0.00  0.00    +0.000 A 
ATOM      2  N   UNL     1       1.945   7.575  19.509  0.00  0.00    +0.000 NA
ATOM      3  C   UNL     1       1.471   8.869  19.460  0.00  0.00    +0.000 A 
ATOM      4  C   UNL     1       1.771   9.425  18.239  0.00  0.00    +0.000 A 
ATOM      5  O   UNL     1       2.436   8.495  17.501  0.00  0.00    +0.000 OA
ENDROOT
BRANCH   1  11
ATOM      6  C   UNL     1       5.149   5.315  16.659  0.00  0.00    +0.000 A 
ATOM      7  C   UNL     1       4.558   4.050  16.670  0.00  0.00    +0.000 A 
ATOM      8  C   UNL     1       3.316   3.885  17.272  0.00  0.00    +0.000 A 
ATOM      9  F   UNL     1       2.749   2.673  17.281  0.00  0.00    +0.000 F 
ATOM     10  C   UNL     1       2.642   4.957  17.845  0.00  0.00    +0.000 A 
ATOM     11  C   UNL     1       3.210   6.235  17.815  0.00  0.00    +0.000 A 
ATOM     12  C   UNL     1       4.481   6.399  17.238  0.00  0.00    +0.000 A 
BRANCH   6  14
ATOM     13  N   UNL     1       7.446   5.668  15.510  0.00  0.00    +0.000 NA
ATOM     14  C   UNL     1       6.420   5.509  16.029  0.00  0.00    +0.000 C 
ENDBRANCH   6  14
ENDBRANCH   1  11
BRANCH   3  15
ATOM     15  C   UNL     1       0.774   9.536  20.539  0.00  0.00    +0.000 A 
ATOM     16  C   UNL     1       0.420   8.838  21.688  0.00  0.00    +0.000 A 
ATOM     17  C   UNL     1      -0.230   9.522  22.712  0.00  0.00    +0.000 A 
ATOM     18  C   UNL     1      -0.515  10.874  22.551  0.00  0.00    +0.000 A 
ATOM     19  C   UNL     1      -0.137  11.489  21.370  0.00  0.00    +0.000 A 
ATOM     20  N   UNL     1       0.501  10.855  20.361  0.00  0.00    +0.000 NA
ENDBRANCH   3  15
TORSDOF 3
ENDMDL
MODEL 4
REMARK VINA RESULT:      -7.5      0.652      1.079
REMARK  Name = 
REMARK  3 active torsions:
REMARK  status: ('A' for Active; 'I' for Inactive)
REMARK    1  A    between atoms: C_2  and  C_3
REMARK    2  A    between atoms: C_8  and  C_9
REMARK    3  A    between atoms: C_11  and  C_12
REMARK                            x       y       z     vdW  Elec       q    Type
REMARK                         _______ _______ _______ _____ _____    ______ ____
ROOT
ATOM      1  C   UNL     1       4.947   4.927  17.666  0.00  0.00    +0.000 A 
ATOM      2  N   UNL     1       4.814   4.909  16.354  0.00  0.00    +0.000 NA
ATOM      3  C   UNL     1       6.083   4.614  15.901  0.00  0.00    +0.000 A 
ATOM      4  C   UNL     1       6.934   4.471  16.971  0.00  0.00    +0.000 A 
ATOM      5  O   UNL     1       6.218   4.672  18.111  0.00  0.00    +0.000 OA
ENDROOT
BRANCH   1  11
ATOM      6  C   UNL     1       2.533   4.449  20.508  0.00  0.00    +0.000 A 
ATOM      7  C   UNL     1       1.899   5.692  20.551  0.00  0.00    +0.000 A 
ATOM      8  C   UNL     1       2.308   6.694  19.679  0.00  0.00    +0.000 A 
ATOM      9  F   UNL     1       1.698   7.885  19.719  0.00  0.00    +0.000 F 
ATOM     10  C   UNL     1       3.319   6.476  18.751  0.00  0.00    +0.000 A 
ATOM     11  C   UNL     1       3.942   5.227  18.678  0.00  0.00    +0.000 A 
ATOM     12  C   UNL     1       3.556   4.223  19.582  0.00  0.00    +0.000 A 
BRANCH   6  14
ATOM     13  N   UNL     1       1.768   2.547  22.096  0.00  0.00    +0.000 NA
ATOM     14  C   UNL     1       2.115   3.398  21.387  0.00  0.00    +0.000 C 
ENDBRANCH   6  14
ENDBRANCH   1  11
BRANCH   3  15
ATOM     15  C   UNL     1       6.457   4.487  14.508  0.00  0.00    +0.000 A 
ATOM     16  C   UNL     1       7.474   5.273  13.976  0.00  0.00    +0.000 A 
ATOM     17  C   UNL     1       7.818   5.104  12.638  0.00  0.00    +0.000 A 
ATOM     18  C   UNL     1       7.130   4.168  11.873  0.00  0.00    +0.000 A 
ATOM     19  C   UNL     1       6.124   3.436  12.480  0.00  0.00    +0.000 A 
ATOM     20  N   UNL     1       5.772   3.570  13.777  0.00  0.00    +0.000 NA
ENDBRANCH   3  15
TORSDOF 3
ENDMDL
MODEL 5
REMARK VINA RESULT:      -7.5      2.761      7.428
REMARK  Name = 
REMARK  3 active torsions:
REMARK  status: ('A' for Active; 'I' for Inactive)
REMARK    1  A    between atoms: C_2  and  C_3
REMARK    2  A    between atoms: C_8  and  C_9
REMARK    3  A    between atoms: C_11  and  C_12
REMARK                            x       y       z     vdW  Elec       q    Type
REMARK                         _______ _______ _______ _____ _____    ______ ____
ROOT
ATOM      1  C   UNL     1       5.518   4.428  16.491  0.00  0.00    +0.000 A 
ATOM      2  N   UNL     1       4.325   4.078  16.930  0.00  0.00    +0.000 NA
ATOM      3  C   UNL     1       4.444   4.162  18.302  0.00  0.00    +0.000 A 
ATOM      4  C   UNL     1       5.718   4.558  18.631  0.00  0.00    +0.000 A 
ATOM      5  O   UNL     1       6.420   4.730  17.478  0.00  0.00    +0.000 OA
ENDROOT
BRANCH   1  11
ATOM      6  C   UNL     1       5.763   3.784  12.795  0.00  0.00    +0.000 A 
ATOM      7  C   UNL     1       6.963   4.422  12.477  0.00  0.00    +0.000 A 
ATOM      8  C   UNL     1       7.655   5.103  13.471  0.00  0.00    +0.000 A 
ATOM      9  F   UNL     1       8.807   5.713  13.166  0.00  0.00    +0.000 F 
ATOM     10  C   UNL     1       7.188   5.144  14.779  0.00  0.00    +0.000 A 
ATOM     11  C   UNL     1       6.002   4.485  15.117  0.00  0.00    +0.000 A 
ATOM     12  C   UNL     1       5.281   3.825  14.107  0.00  0.00    +0.000 A 
BRANCH   6  14
ATOM     13  N   UNL     1       4.456   2.474  10.979  0.00  0.00    +0.000 NA
ATOM     14  C   UNL     1       5.043   3.064  11.788  0.00  0.00    +0.000 C 
ENDBRANCH   6  14
ENDBRANCH   1  11
BRANCH   3  15
ATOM     15  C   UNL     1       3.386   3.865  19.245  0.00  0.00    +0.000 A 
ATOM     16  C   UNL     1       2.145   4.480  19.128  0.00  0.00    +0.000 A 
ATOM     17  C   UNL     1       1.147   4.151  20.042  0.00  0.00    +0.000 A 
ATOM     18  C   UNL     1       1.424   3.229  21.046  0.00  0.00    +0.000 A 
ATOM     19  C   UNL     1       2.691   2.672  21.095  0.00  0.00    +0.000 A 
ATOM     20  N   UNL     1       3.677   2.965  20.220  0.00  0.00    +0.000 NA
ENDBRANCH   3  15
TORSDOF 3
ENDMDL
MODEL 6
REMARK VINA RESULT:      -7.4      4.083      7.874
REMARK  Name = 
REMARK  3 active torsions:
REMARK  status: ('A' for Active; 'I' for Inactive)
REMARK    1  A    between atoms: C_2  and  C_3
REMARK    2  A    between atoms: C_8  and  C_9
REMARK    3  A    between atoms: C_11  and  C_12
REMARK                            x       y       z     vdW  Elec       q    Type
REMARK                         _______ _______ _______ _____ _____    ______ ____
ROOT
ATOM      1  C   UNL     1       2.569   7.625  18.248  0.00  0.00    +0.000 A 
ATOM      2  N   UNL     1       2.068   7.738  19.464  0.00  0.00    +0.000 NA
ATOM      3  C   UNL     1       1.427   8.959  19.440  0.00  0.00    +0.000 A 
ATOM      4  C   UNL     1       1.576   9.535  18.202  0.00  0.00    +0.000 A 
ATOM      5  O   UNL     1       2.309   8.690  17.426  0.00  0.00    +0.000 OA
ENDROOT
BRANCH   1  11
ATOM      6  C   UNL     1       3.842   4.165  17.510  0.00  0.00    +0.000 A 
ATOM      7  C   UNL     1       5.011   4.441  16.799  0.00  0.00    +0.000 A 
ATOM      8  C   UNL     1       5.343   5.762  16.524  0.00  0.00    +0.000 A 
ATOM      9  F   UNL     1       6.466   6.027  15.844  0.00  0.00    +0.000 F 
ATOM     10  C   UNL     1       4.546   6.814  16.960  0.00  0.00    +0.000 A 
ATOM     11  C   UNL     1       3.388   6.553  17.698  0.00  0.00    +0.000 A 
ATOM     12  C   UNL     1       3.030   5.217  17.948  0.00  0.00    +0.000 A 
BRANCH   6  14
ATOM     13  N   UNL     1       3.203   1.713  18.059  0.00  0.00    +0.000 NA
ATOM     14  C   UNL     1       3.491   2.812  17.818  0.00  0.00    +0.000 C 
ENDBRANCH   6  14
ENDBRANCH   1  11
BRANCH   3  15
ATOM     15  C   UNL     1       0.718   9.543  20.559  0.00  0.00    +0.000 A 
ATOM     16  C   UNL     1       0.246   8.740  21.592  0.00  0.00    +0.000 A 
ATOM     17  C   UNL     1      -0.412   9.343  22.660  0.00  0.00    +0.000 A 
ATOM     18  C   UNL     1      -0.587  10.723  22.658  0.00  0.00    +0.000 A 
ATOM     19  C   UNL     1      -0.095  11.445  21.584  0.00  0.00    +0.000 A 
ATOM     20  N   UNL     1       0.554  10.891  20.537  0.00  0.00    +0.000 NA
ENDBRANCH   3  15
TORSDOF 3
ENDMDL
MODEL 7
REMARK VINA RESULT:      -7.4      3.747      8.182
REMARK  Name = 
REMARK  3 active torsions:
REMARK  status: ('A' for Active; 'I' for Inactive)
REMARK    1  A    between atoms: C_2  and  C_3
REMARK    2  A    between atoms: C_8  and  C_9
REMARK    3  A    between atoms: C_11  and  C_12
REMARK                            x       y       z     vdW  Elec       q    Type
REMARK                         _______ _______ _______ _____ _____    ______ ____
ROOT
ATOM      1  C   UNL     1       2.519   7.365  18.320  0.00  0.00    +0.000 A 
ATOM      2  N   UNL     1       1.978   7.539  19.510  0.00  0.00    +0.000 NA
ATOM      3  C   UNL     1       1.484   8.826  19.458  0.00  0.00    +0.000 A 
ATOM      4  C   UNL     1       1.757   9.377  18.229  0.00  0.00    +0.000 A 
ATOM      5  O   UNL     1       2.423   8.450  17.488  0.00  0.00    +0.000 OA
ENDROOT
BRANCH   1  11
ATOM      6  C   UNL     1       5.179   5.300  16.647  0.00  0.00    +0.000 A 
ATOM      7  C   UNL     1       4.598   4.031  16.659  0.00  0.00    +0.000 A 
ATOM      8  C   UNL     1       3.359   3.855  17.263  0.00  0.00    +0.000 A 
ATOM      9  F   UNL     1       2.802   2.638  17.272  0.00  0.00    +0.000 F 
ATOM     10  C   UNL     1       2.677   4.921  17.837  0.00  0.00    +0.000 A 
ATOM     11  C   UNL     1       3.235   6.203  17.807  0.00  0.00    +0.000 A 
ATOM     12  C   UNL     1       4.503   6.378  17.228  0.00  0.00    +0.000 A 
BRANCH   6  14
ATOM     13  N   UNL     1       7.472   5.669  15.494  0.00  0.00    +0.000 NA
ATOM     14  C   UNL     1       6.447   5.504  16.015  0.00  0.00    +0.000 C 
ENDBRANCH   6  14
ENDBRANCH   1  11
BRANCH   3  15
ATOM     15  C   UNL     1       0.794   9.492  20.543  0.00  0.00    +0.000 A 
ATOM     16  C   UNL     1       0.069  10.656  20.309  0.00  0.00    +0.000 A 
ATOM     17  C   UNL     1      -0.598  11.253  21.375  0.00  0.00    +0.000 A 
ATOM     18  C   UNL     1      -0.511  10.678  22.638  0.00  0.00    +0.000 A 
ATOM     19  C   UNL     1       0.241   9.525  22.784  0.00  0.00    +0.000 A 
ATOM     20  N   UNL     1       0.893   8.917  21.770  0.00  0.00    +0.000 NA
ENDBRANCH   3  15
TORSDOF 3
ENDMDL
MODEL 8
REMARK VINA RESULT:      -7.3      2.890      7.520
REMARK  Name = 
REMARK  3 active torsions:
REMARK  status: ('A' for Active; 'I' for Inactive)
REMARK    1  A    between atoms: C_2  and  C_3
REMARK    2  A    between atoms: C_8  and  C_9
REMARK    3  A    between atoms: C_11  and  C_12
REMARK                            x       y       z     vdW  Elec       q    Type
REMARK                         _______ _______ _______ _____ _____    ______ ____
ROOT
ATOM      1  C   UNL     1       5.186   4.943  15.941  0.00  0.00    +0.000 A 
ATOM      2  N   UNL     1       4.262   4.181  16.495  0.00  0.00    +0.000 NA
ATOM      3  C   UNL     1       3.962   4.836  17.672  0.00  0.00    +0.000 A 
ATOM      4  C   UNL     1       4.730   5.971  17.777  0.00  0.00    +0.000 A 
ATOM      5  O   UNL     1       5.523   6.051  16.674  0.00  0.00    +0.000 OA
ENDROOT
BRANCH   1  11
ATOM      6  C   UNL     1       6.196   3.450  12.642  0.00  0.00    +0.000 A 
ATOM      7  C   UNL     1       7.361   4.163  12.356  0.00  0.00    +0.000 A 
ATOM      8  C   UNL     1       7.776   5.164  13.225  0.00  0.00    +0.000 A 
ATOM      9  F   UNL     1       8.895   5.846  12.951  0.00  0.00    +0.000 F 
ATOM     10  C   UNL     1       7.067   5.456  14.383  0.00  0.00    +0.000 A 
ATOM     11  C   UNL     1       5.914   4.730  14.697  0.00  0.00    +0.000 A 
ATOM     12  C   UNL     1       5.471   3.741  13.802  0.00  0.00    +0.000 A 
BRANCH   6  14
ATOM     13  N   UNL     1       5.399   1.557  11.058  0.00  0.00    +0.000 NA
ATOM     14  C   UNL     1       5.760   2.403  11.767  0.00  0.00    +0.000 C 
ENDBRANCH   6  14
ENDBRANCH   1  11
BRANCH   3  15
ATOM     15  C   UNL     1       2.992   4.384  18.647  0.00  0.00    +0.000 A 
ATOM     16  C   UNL     1       3.027   4.864  19.951  0.00  0.00    +0.000 A 
ATOM     17  C   UNL     1       2.063   4.421  20.852  0.00  0.00    +0.000 A 
ATOM     18  C   UNL     1       1.105   3.507  20.427  0.00  0.00    +0.000 A 
ATOM     19  C   UNL     1       1.150   3.072  19.113  0.00  0.00    +0.000 A 
ATOM     20  N   UNL     1       2.067   3.488  18.213  0.00  0.00    +0.000 NA
ENDBRANCH   3  15
TORSDOF 3
ENDMDL
MODEL 9
REMARK VINA RESULT:      -7.2      3.954      7.910
REMARK  Name = 
REMARK  3 active torsions:
REMARK  status: ('A' for Active; 'I' for Inactive)
REMARK    1  A    between atoms: C_2  and  C_3
REMARK    2  A    between atoms: C_8  and  C_9
REMARK    3  A    between atoms: C_11  and  C_12
REMARK                            x       y       z     vdW  Elec       q    Type
REMARK                         _______ _______ _______ _____ _____    ______ ____
ROOT
ATOM      1  C   UNL     1       2.563   7.634  18.246  0.00  0.00    +0.000 A 
ATOM      2  N   UNL     1       2.078   7.751  19.467  0.00  0.00    +0.000 NA
ATOM      3  C   UNL     1       1.434   8.971  19.447  0.00  0.00    +0.000 A 
ATOM      4  C   UNL     1       1.565   9.542  18.204  0.00  0.00    +0.000 A 
ATOM      5  O   UNL     1       2.290   8.695  17.423  0.00  0.00    +0.000 OA
ENDROOT
BRANCH   1  11
ATOM      6  C   UNL     1       3.821   4.173  17.487  0.00  0.00    +0.000 A 
ATOM      7  C   UNL     1       4.992   4.448  16.780  0.00  0.00    +0.000 A 
ATOM      8  C   UNL     1       5.331   5.769  16.514  0.00  0.00    +0.000 A 
ATOM      9  F   UNL     1       6.456   6.033  15.837  0.00  0.00    +0.000 F 
ATOM     10  C   UNL     1       4.539   6.822  16.955  0.00  0.00    +0.000 A 
ATOM     11  C   UNL     1       3.378   6.561  17.690  0.00  0.00    +0.000 A 
ATOM     12  C   UNL     1       3.013   5.226  17.930  0.00  0.00    +0.000 A 
BRANCH   6  14
ATOM     13  N   UNL     1       3.175   1.722  18.037  0.00  0.00    +0.000 NA
ATOM     14  C   UNL     1       3.462   2.819  17.786  0.00  0.00    +0.000 C 
ENDBRANCH   6  14
ENDBRANCH   1  11
BRANCH   3  15
ATOM     15  C   UNL     1       0.737   9.558  20.572  0.00  0.00    +0.000 A 
ATOM     16  C   UNL     1       0.026  10.743  20.420  0.00  0.00    +0.000 A 
ATOM     17  C   UNL     1      -0.648  11.263  21.522  0.00  0.00    +0.000 A 
ATOM     18  C   UNL     1      -0.583  10.591  22.737  0.00  0.00    +0.000 A 
ATOM     19  C   UNL     1       0.157   9.422  22.802  0.00  0.00    +0.000 A 
ATOM     20  N   UNL     1       0.816   8.888  21.751  0.00  0.00    +0.000 NA
ENDBRANCH   3  15
TORSDOF 3
ENDMDL
