MODEL 1
REMARK VINA RESULT:      -7.5      0.000      0.000
REMARK  Name = 
REMARK  2 active torsions:
REMARK  status: ('A' for Active; 'I' for Inactive)
REMARK    1  A    between atoms: C_2  and  C_21
REMARK    2  A    between atoms: N_3  and  C_4
REMARK                            x       y       z     vdW  Elec       q    Type
REMARK                         _______ _______ _______ _____ _____    ______ ____
ROOT
ATOM      1  C   UNL     1       2.450   7.008  19.081  0.00  0.00    +0.000 A 
ATOM      2  C   UNL     1       2.409   8.013  18.119  0.00  0.00    +0.000 A 
ATOM      3  C   UNL     1       1.730   9.208  18.368  0.00  0.00    +0.000 A 
ATOM      4  F   UNL     1       1.740  10.139  17.397  0.00  0.00    +0.000 F 
ATOM      5  C   UNL     1       1.086   9.476  19.571  0.00  0.00    +0.000 A 
ATOM      6  N   UNL     1       0.458  10.659  19.785  0.00  0.00    +0.000 NA
ATOM      7  C   UNL     1      -0.111  10.913  20.978  0.00  0.00    +0.000 A 
ATOM      8  N   UNL     1      -0.797  12.097  21.181  0.00  0.00    +0.000 N 
ATOM      9  C   UNL     1      -1.432  12.762  20.036  0.00  0.00    +0.000 C 
ATOM     10  C   UNL     1      -0.759  14.093  19.679  0.00  0.00    +0.000 C 
ATOM     11  O   UNL     1      -0.603  14.934  20.833  0.00  0.00    +0.000 OA
ATOM     12  C   UNL     1       0.232  14.275  21.796  0.00  0.00    +0.000 C 
ATOM     13  C   UNL     1      -0.406  12.968  22.296  0.00  0.00    +0.000 C 
ATOM     14  C   UNL     1      -0.078   9.960  21.991  0.00  0.00    +0.000 A 
ATOM     15  C   UNL     1       0.520   8.722  21.771  0.00  0.00    +0.000 A 
ATOM     16  C   UNL     1       1.124   8.455  20.541  0.00  0.00    +0.000 A 
ATOM     17  C   UNL     1       1.767   7.220  20.282  0.00  0.00    +0.000 A 
ENDROOT
BRANCH   1  20
ATOM     18  O   UNL     1       1.588   4.656  17.625  0.00  0.00    +0.000 OA
ATOM     19  C   UNL     1       2.674   4.682  18.211  0.00  0.00    +0.000 C 
ATOM     20  N   UNL     1       3.153   5.791  18.901  0.00  0.00    +0.000 N 
ATOM     21  H   UNL     1       4.116   5.762  19.211  0.00  0.00    +0.000 HD
BRANCH  19  22
ATOM     22  C   UNL     1       3.623   3.452  18.183  0.00  0.00    +0.000 C 
ATOM     23  C   UNL     1       3.840   2.746  19.552  0.00  0.00    +0.000 C 
ATOM     24  C   UNL     1       3.732   1.394  18.831  0.00  0.00    +0.000 C 
ATOM     25  C   UNL     1       2.995   2.114  17.692  0.00  0.00    +0.000 C 
ENDBRANCH  19  22
ENDBRANCH   1  20
TORSDOF 2
ENDMDL
MODEL 2
REMARK VINA RESULT:      -7.4      2.354      3.227
REMARK  Name = 
REMARK  2 active torsions:
REMARK  status: ('A' for Active; 'I' for Inactive)
REMARK    1  A    between atoms: C_2  and  C_21
REMARK    2  A    between atoms: N_3  and  C_4
REMARK                            x       y       z     vdW  Elec       q    Type
REMARK                         _______ _______ _______ _____ _____    ______ ____
ROOT
ATOM      1  C   UNL     1       2.985   6.825  18.342  0.00  0.00    +0.000 A 
ATOM      2  C   UNL     1       2.380   6.576  19.571  0.00  0.00    +0.000 A 
ATOM      3  C   UNL     1       1.660   7.579  20.225  0.00  0.00    +0.000 A 
ATOM      4  F   UNL     1       1.094   7.266  21.404  0.00  0.00    +0.000 F 
ATOM      5  C   UNL     1       1.487   8.853  19.696  0.00  0.00    +0.000 A 
ATOM      6  N   UNL     1       0.760   9.794  20.350  0.00  0.00    +0.000 NA
ATOM      7  C   UNL     1       0.562  11.002  19.789  0.00  0.00    +0.000 A 
ATOM      8  N   UNL     1      -0.132  11.980  20.478  0.00  0.00    +0.000 N 
ATOM      9  C   UNL     1      -0.116  11.972  21.946  0.00  0.00    +0.000 C 
ATOM     10  C   UNL     1      -1.486  11.638  22.550  0.00  0.00    +0.000 C 
ATOM     11  O   UNL     1      -2.527  12.447  21.979  0.00  0.00    +0.000 OA
ATOM     12  C   UNL     1      -2.607  12.198  20.569  0.00  0.00    +0.000 C 
ATOM     13  C   UNL     1      -1.308  12.596  19.850  0.00  0.00    +0.000 C 
ATOM     14  C   UNL     1       1.116  11.302  18.549  0.00  0.00    +0.000 A 
ATOM     15  C   UNL     1       1.905  10.364  17.888  0.00  0.00    +0.000 A 
ATOM     16  C   UNL     1       2.104   9.104  18.455  0.00  0.00    +0.000 A 
ATOM     17  C   UNL     1       2.877   8.111  17.806  0.00  0.00    +0.000 A 
ENDROOT
BRANCH   1  20
ATOM     18  O   UNL     1       5.613   5.747  18.907  0.00  0.00    +0.000 OA
ATOM     19  C   UNL     1       4.971   5.378  17.920  0.00  0.00    +0.000 C 
ATOM     20  N   UNL     1       3.694   5.838  17.614  0.00  0.00    +0.000 N 
ATOM     21  H   UNL     1       3.195   5.359  16.874  0.00  0.00    +0.000 HD
BRANCH  19  22
ATOM     22  C   UNL     1       5.548   4.314  16.946  0.00  0.00    +0.000 C 
ATOM     23  C   UNL     1       5.193   4.521  15.446  0.00  0.00    +0.000 C 
ATOM     24  C   UNL     1       6.639   4.147  15.089  0.00  0.00    +0.000 C 
ATOM     25  C   UNL     1       7.037   4.504  16.529  0.00  0.00    +0.000 C 
ENDBRANCH  19  22
ENDBRANCH   1  20
TORSDOF 2
ENDMDL
MODEL 3
REMARK VINA RESULT:      -7.4      8.703      9.261
REMARK  Name = 
REMARK  2 active torsions:
REMARK  status: ('A' for Active; 'I' for Inactive)
REMARK    1  A    between atoms: C_2  and  C_21
REMARK    2  A    between atoms: N_3  and  C_4
REMARK                            x       y       z     vdW  Elec       q    Type
REMARK                         _______ _______ _______ _____ _____    ______ ____
ROOT
ATOM      1  C   UNL     1       8.809   9.669  18.738  0.00  0.00    +0.000 A 
ATOM      2  C   UNL     1       8.194  10.477  17.787  0.00  0.00    +0.000 A 
ATOM      3  C   UNL     1       8.484  11.842  17.720  0.00  0.00    +0.000 A 
ATOM      4  F   UNL     1       7.860  12.561  16.770  0.00  0.00    +0.000 F 
ATOM      5  C   UNL     1       9.399  12.464  18.563  0.00  0.00    +0.000 A 
ATOM      6  N   UNL     1       9.672  13.788  18.451  0.00  0.00    +0.000 NA
ATOM      7  C   UNL     1      10.602  14.353  19.244  0.00  0.00    +0.000 A 
ATOM      8  N   UNL     1      10.844  15.713  19.168  0.00  0.00    +0.000 N 
ATOM      9  C   UNL     1       9.763  16.610  18.743  0.00  0.00    +0.000 C 
ATOM     10  C   UNL     1      10.032  17.252  17.376  0.00  0.00    +0.000 C 
ATOM     11  O   UNL     1      11.341  17.841  17.316  0.00  0.00    +0.000 OA
ATOM     12  C   UNL     1      12.332  16.824  17.516  0.00  0.00    +0.000 C 
ATOM     13  C   UNL     1      12.210  16.182  18.908  0.00  0.00    +0.000 C 
ATOM     14  C   UNL     1      11.274  13.591  20.195  0.00  0.00    +0.000 A 
ATOM     15  C   UNL     1      10.969  12.242  20.355  0.00  0.00    +0.000 A 
ATOM     16  C   UNL     1      10.016  11.644  19.528  0.00  0.00    +0.000 A 
ATOM     17  C   UNL     1       9.694  10.270  19.638  0.00  0.00    +0.000 A 
ENDROOT
BRANCH   1  20
ATOM     18  O   UNL     1       7.251   7.999  16.956  0.00  0.00    +0.000 OA
ATOM     19  C   UNL     1       7.802   7.527  17.955  0.00  0.00    +0.000 C 
ATOM     20  N   UNL     1       8.585   8.273  18.830  0.00  0.00    +0.000 N 
ATOM     21  H   UNL     1       9.116   7.762  19.525  0.00  0.00    +0.000 HD
BRANCH  19  22
ATOM     22  C   UNL     1       7.684   6.014  18.289  0.00  0.00    +0.000 C 
ATOM     23  C   UNL     1       6.332   5.574  18.921  0.00  0.00    +0.000 C 
ATOM     24  C   UNL     1       6.359   4.329  18.022  0.00  0.00    +0.000 C 
ATOM     25  C   UNL     1       7.333   5.075  17.097  0.00  0.00    +0.000 C 
ENDBRANCH  19  22
ENDBRANCH   1  20
TORSDOF 2
ENDMDL
MODEL 4
REMARK VINA RESULT:      -7.3      1.949      8.482
REMARK  Name = 
REMARK  2 active torsions:
REMARK  status: ('A' for Active; 'I' for Inactive)
REMARK    1  A    between atoms: C_2  and  C_21
REMARK    2  A    between atoms: N_3  and  C_4
REMARK                            x       y       z     vdW  Elec       q    Type
REMARK                         _______ _______ _______ _____ _____    ______ ____
ROOT
ATOM      1  C   UNL     1       1.327  10.010  18.976  0.00  0.00    +0.000 A 
ATOM      2  C   UNL     1       2.065   9.562  17.884  0.00  0.00    +0.000 A 
ATOM      3  C   UNL     1       2.573   8.262  17.854  0.00  0.00    +0.000 A 
ATOM      4  F   UNL     1       3.270   7.894  16.764  0.00  0.00    +0.000 F 
ATOM      5  C   UNL     1       2.362   7.343  18.877  0.00  0.00    +0.000 A 
ATOM      6  N   UNL     1       2.852   6.080  18.800  0.00  0.00    +0.000 NA
ATOM      7  C   UNL     1       2.586   5.195  19.780  0.00  0.00    +0.000 A 
ATOM      8  N   UNL     1       3.128   3.924  19.730  0.00  0.00    +0.000 N 
ATOM      9  C   UNL     1       4.404   3.715  19.033  0.00  0.00    +0.000 C 
ATOM     10  C   UNL     1       4.250   2.880  17.756  0.00  0.00    +0.000 C 
ATOM     11  O   UNL     1       3.510   1.673  17.999  0.00  0.00    +0.000 OA
ATOM     12  C   UNL     1       2.191   2.004  18.458  0.00  0.00    +0.000 C 
ATOM     13  C   UNL     1       2.233   2.762  19.795  0.00  0.00    +0.000 C 
ATOM     14  C   UNL     1       1.828   5.573  20.883  0.00  0.00    +0.000 A 
ATOM     15  C   UNL     1       1.360   6.879  21.000  0.00  0.00    +0.000 A 
ATOM     16  C   UNL     1       1.619   7.799  19.983  0.00  0.00    +0.000 A 
ATOM     17  C   UNL     1       1.140   9.131  20.047  0.00  0.00    +0.000 A 
ENDROOT
BRANCH   1  20
ATOM     18  O   UNL     1      -1.378  10.793  18.298  0.00  0.00    +0.000 OA
ATOM     19  C   UNL     1      -0.550  11.624  18.680  0.00  0.00    +0.000 C 
ATOM     20  N   UNL     1       0.754  11.303  19.047  0.00  0.00    +0.000 N 
ATOM     21  H   UNL     1       1.300  12.030  19.492  0.00  0.00    +0.000 HD
BRANCH  19  22
ATOM     22  C   UNL     1      -0.932  13.124  18.818  0.00  0.00    +0.000 C 
ATOM     23  C   UNL     1      -1.299  13.589  20.256  0.00  0.00    +0.000 C 
ATOM     24  C   UNL     1      -0.491  14.872  20.007  0.00  0.00    +0.000 C 
ATOM     25  C   UNL     1       0.256  14.129  18.888  0.00  0.00    +0.000 C 
ENDBRANCH  19  22
ENDBRANCH   1  20
TORSDOF 2
ENDMDL
MODEL 5
REMARK VINA RESULT:      -7.3      2.505      8.592
REMARK  Name = 
REMARK  2 active torsions:
REMARK  status: ('A' for Active; 'I' for Inactive)
REMARK    1  A    between atoms: C_2  and  C_21
REMARK    2  A    between atoms: N_3  and  C_4
REMARK                            x       y       z     vdW  Elec       q    Type
REMARK                         _______ _______ _______ _____ _____    ______ ____
ROOT
ATOM      1  C   UNL     1       0.048   9.964  20.634  0.00  0.00    +0.000 A 
ATOM      2  C   UNL     1       0.330   8.866  21.441  0.00  0.00    +0.000 A 
ATOM      3  C   UNL     1       1.185   7.856  20.993  0.00  0.00    +0.000 A 
ATOM      4  F   UNL     1       1.420   6.829  21.829  0.00  0.00    +0.000 F 
ATOM      5  C   UNL     1       1.811   7.890  19.752  0.00  0.00    +0.000 A 
ATOM      6  N   UNL     1       2.655   6.901  19.362  0.00  0.00    +0.000 NA
ATOM      7  C   UNL     1       3.290   6.986  18.178  0.00  0.00    +0.000 A 
ATOM      8  N   UNL     1       4.108   5.954  17.755  0.00  0.00    +0.000 N 
ATOM      9  C   UNL     1       3.835   4.587  18.216  0.00  0.00    +0.000 C 
ATOM     10  C   UNL     1       4.920   4.053  19.158  0.00  0.00    +0.000 C 
ATOM     11  O   UNL     1       6.235   4.234  18.608  0.00  0.00    +0.000 OA
ATOM     12  C   UNL     1       6.484   5.634  18.415  0.00  0.00    +0.000 C 
ATOM     13  C   UNL     1       5.503   6.248  17.403  0.00  0.00    +0.000 C 
ATOM     14  C   UNL     1       3.073   8.075  17.339  0.00  0.00    +0.000 A 
ATOM     15  C   UNL     1       2.174   9.073  17.704  0.00  0.00    +0.000 A 
ATOM     16  C   UNL     1       1.520   9.000  18.935  0.00  0.00    +0.000 A 
ATOM     17  C   UNL     1       0.618  10.005  19.358  0.00  0.00    +0.000 A 
ENDROOT
BRANCH   1  20
ATOM     18  O   UNL     1      -0.512  10.834  23.339  0.00  0.00    +0.000 OA
ATOM     19  C   UNL     1      -1.032  11.392  22.369  0.00  0.00    +0.000 C 
ATOM     20  N   UNL     1      -0.779  11.038  21.047  0.00  0.00    +0.000 N 
ATOM     21  H   UNL     1      -1.132  11.656  20.327  0.00  0.00    +0.000 HD
BRANCH  19  22
ATOM     22  C   UNL     1      -2.003  12.589  22.564  0.00  0.00    +0.000 C 
ATOM     23  C   UNL     1      -3.092  12.751  21.466  0.00  0.00    +0.000 C 
ATOM     24  C   UNL     1      -4.110  13.064  22.572  0.00  0.00    +0.000 C 
ATOM     25  C   UNL     1      -3.173  12.364  23.568  0.00  0.00    +0.000 C 
ENDBRANCH  19  22
ENDBRANCH   1  20
TORSDOF 2
ENDMDL
MODEL 6
REMARK VINA RESULT:      -7.3      0.957      1.105
REMARK  Name = 
REMARK  2 active torsions:
REMARK  status: ('A' for Active; 'I' for Inactive)
REMARK    1  A    between atoms: C_2  and  C_21
REMARK    2  A    between atoms: N_3  and  C_4
REMARK                            x       y       z     vdW  Elec       q    Type
REMARK                         _______ _______ _______ _____ _____    ______ ____
ROOT
ATOM      1  C   UNL     1       2.201   6.805  19.646  0.00  0.00    +0.000 A 
ATOM      2  C   UNL     1       2.256   7.628  18.526  0.00  0.00    +0.000 A 
ATOM      3  C   UNL     1       1.718   8.916  18.562  0.00  0.00    +0.000 A 
ATOM      4  F   UNL     1       1.815   9.660  17.446  0.00  0.00    +0.000 F 
ATOM      5  C   UNL     1       1.126   9.456  19.698  0.00  0.00    +0.000 A 
ATOM      6  N   UNL     1       0.636  10.722  19.702  0.00  0.00    +0.000 NA
ATOM      7  C   UNL     1       0.117  11.239  20.832  0.00  0.00    +0.000 A 
ATOM      8  N   UNL     1      -0.431  12.509  20.825  0.00  0.00    +0.000 N 
ATOM      9  C   UNL     1      -1.006  13.034  19.580  0.00  0.00    +0.000 C 
ATOM     10  C   UNL     1      -0.196  14.200  19.002  0.00  0.00    +0.000 C 
ATOM     11  O   UNL     1       0.070  15.204  19.994  0.00  0.00    +0.000 OA
ATOM     12  C   UNL     1       0.841  14.631  21.059  0.00  0.00    +0.000 C 
ATOM     13  C   UNL     1       0.071  13.509  21.774  0.00  0.00    +0.000 C 
ATOM     14  C   UNL     1       0.060  10.476  21.995  0.00  0.00    +0.000 A 
ATOM     15  C   UNL     1       0.514   9.160  21.993  0.00  0.00    +0.000 A 
ATOM     16  C   UNL     1       1.066   8.620  20.830  0.00  0.00    +0.000 A 
ATOM     17  C   UNL     1       1.564   7.295  20.790  0.00  0.00    +0.000 A 
ENDROOT
BRANCH   1  20
ATOM     18  O   UNL     1       0.837   4.293  20.120  0.00  0.00    +0.000 OA
ATOM     19  C   UNL     1       2.058   4.334  19.942  0.00  0.00    +0.000 C 
ATOM     20  N   UNL     1       2.762   5.505  19.682  0.00  0.00    +0.000 N 
ATOM     21  H   UNL     1       3.729   5.409  19.398  0.00  0.00    +0.000 HD
BRANCH  19  22
ATOM     22  C   UNL     1       2.908   3.033  19.960  0.00  0.00    +0.000 C 
ATOM     23  C   UNL     1       2.342   1.854  19.117  0.00  0.00    +0.000 C 
ATOM     24  C   UNL     1       3.769   1.566  18.629  0.00  0.00    +0.000 C 
ATOM     25  C   UNL     1       4.140   3.008  19.007  0.00  0.00    +0.000 C 
ENDBRANCH  19  22
ENDBRANCH   1  20
TORSDOF 2
ENDMDL
MODEL 7
REMARK VINA RESULT:      -7.3      1.390      1.608
REMARK  Name = 
REMARK  2 active torsions:
REMARK  status: ('A' for Active; 'I' for Inactive)
REMARK    1  A    between atoms: C_2  and  C_21
REMARK    2  A    between atoms: N_3  and  C_4
REMARK                            x       y       z     vdW  Elec       q    Type
REMARK                         _______ _______ _______ _____ _____    ______ ____
ROOT
ATOM      1  C   UNL     1       1.850   7.734  20.084  0.00  0.00    +0.000 A 
ATOM      2  C   UNL     1       1.667   8.707  19.107  0.00  0.00    +0.000 A 
ATOM      3  C   UNL     1       0.888   9.837  19.365  0.00  0.00    +0.000 A 
ATOM      4  F   UNL     1       0.761  10.741  18.378  0.00  0.00    +0.000 F 
ATOM      5  C   UNL     1       0.278  10.070  20.593  0.00  0.00    +0.000 A 
ATOM      6  N   UNL     1      -0.451  11.193  20.815  0.00  0.00    +0.000 NA
ATOM      7  C   UNL     1      -0.985  11.420  22.030  0.00  0.00    +0.000 A 
ATOM      8  N   UNL     1      -1.773  12.536  22.243  0.00  0.00    +0.000 N 
ATOM      9  C   UNL     1      -2.522  13.110  21.119  0.00  0.00    +0.000 C 
ATOM     10  C   UNL     1      -1.999  14.490  20.703  0.00  0.00    +0.000 C 
ATOM     11  O   UNL     1      -1.872  15.370  21.832  0.00  0.00    +0.000 OA
ATOM     12  C   UNL     1      -0.932  14.817  22.764  0.00  0.00    +0.000 C 
ATOM     13  C   UNL     1      -1.415  13.468  23.320  0.00  0.00    +0.000 C 
ATOM     14  C   UNL     1      -0.812  10.499  23.059  0.00  0.00    +0.000 A 
ATOM     15  C   UNL     1      -0.108   9.319  22.833  0.00  0.00    +0.000 A 
ATOM     16  C   UNL     1       0.461   9.082  21.580  0.00  0.00    +0.000 A 
ATOM     17  C   UNL     1       1.207   7.909  21.313  0.00  0.00    +0.000 A 
ENDROOT
BRANCH   1  20
ATOM     18  O   UNL     1       1.127   4.961  20.508  0.00  0.00    +0.000 OA
ATOM     19  C   UNL     1       2.262   5.276  20.141  0.00  0.00    +0.000 C 
ATOM     20  N   UNL     1       2.659   6.586  19.894  0.00  0.00    +0.000 N 
ATOM     21  H   UNL     1       3.558   6.721  19.449  0.00  0.00    +0.000 HD
BRANCH  19  22
ATOM     22  C   UNL     1       3.346   4.192  19.887  0.00  0.00    +0.000 C 
ATOM     23  C   UNL     1       2.849   2.720  19.969  0.00  0.00    +0.000 C 
ATOM     24  C   UNL     1       3.699   2.402  18.729  0.00  0.00    +0.000 C 
ATOM     25  C   UNL     1       3.688   3.902  18.395  0.00  0.00    +0.000 C 
ENDBRANCH  19  22
ENDBRANCH   1  20
TORSDOF 2
ENDMDL
MODEL 8
REMARK VINA RESULT:      -7.2      1.765      2.513
REMARK  Name = 
REMARK  2 active torsions:
REMARK  status: ('A' for Active; 'I' for Inactive)
REMARK    1  A    between atoms: C_2  and  C_21
REMARK    2  A    between atoms: N_3  and  C_4
REMARK                            x       y       z     vdW  Elec       q    Type
REMARK                         _______ _______ _______ _____ _____    ______ ____
ROOT
ATOM      1  C   UNL     1       2.346   6.518  19.452  0.00  0.00    +0.000 A 
ATOM      2  C   UNL     1       1.819   6.767  20.715  0.00  0.00    +0.000 A 
ATOM      3  C   UNL     1       1.318   8.029  21.041  0.00  0.00    +0.000 A 
ATOM      4  F   UNL     1       0.815   8.196  22.277  0.00  0.00    +0.000 F 
ATOM      5  C   UNL     1       1.293   9.088  20.140  0.00  0.00    +0.000 A 
ATOM      6  N   UNL     1       0.775  10.294  20.485  0.00  0.00    +0.000 NA
ATOM      7  C   UNL     1       0.713  11.285  19.576  0.00  0.00    +0.000 A 
ATOM      8  N   UNL     1       0.235  12.531  19.940  0.00  0.00    +0.000 N 
ATOM      9  C   UNL     1       0.377  12.974  21.333  0.00  0.00    +0.000 C 
ATOM     10  C   UNL     1      -0.970  13.080  22.059  0.00  0.00    +0.000 C 
ATOM     11  O   UNL     1      -1.923  13.838  21.297  0.00  0.00    +0.000 OA
ATOM     12  C   UNL     1      -2.161  13.183  20.043  0.00  0.00    +0.000 C 
ATOM     13  C   UNL     1      -0.884  13.114  19.190  0.00  0.00    +0.000 C 
ATOM     14  C   UNL     1       1.196  11.089  18.286  0.00  0.00    +0.000 A 
ATOM     15  C   UNL     1       1.775   9.873  17.931  0.00  0.00    +0.000 A 
ATOM     16  C   UNL     1       1.831   8.835  18.863  0.00  0.00    +0.000 A 
ATOM     17  C   UNL     1       2.387   7.574  18.537  0.00  0.00    +0.000 A 
ENDROOT
BRANCH   1  20
ATOM     18  O   UNL     1       5.052   5.507  19.664  0.00  0.00    +0.000 OA
ATOM     19  C   UNL     1       4.155   4.829  19.154  0.00  0.00    +0.000 C 
ATOM     20  N   UNL     1       2.833   5.249  19.051  0.00  0.00    +0.000 N 
ATOM     21  H   UNL     1       2.151   4.560  18.762  0.00  0.00    +0.000 HD
BRANCH  19  22
ATOM     22  C   UNL     1       4.446   3.401  18.613  0.00  0.00    +0.000 C 
ATOM     23  C   UNL     1       4.080   2.236  19.575  0.00  0.00    +0.000 C 
ATOM     24  C   UNL     1       3.512   1.469  18.371  0.00  0.00    +0.000 C 
ATOM     25  C   UNL     1       3.387   2.812  17.634  0.00  0.00    +0.000 C 
ENDBRANCH  19  22
ENDBRANCH   1  20
TORSDOF 2
ENDMDL
MODEL 9
REMARK VINA RESULT:      -7.2      1.326      1.627
REMARK  Name = 
REMARK  2 active torsions:
REMARK  status: ('A' for Active; 'I' for Inactive)
REMARK    1  A    between atoms: C_2  and  C_21
REMARK    2  A    between atoms: N_3  and  C_4
REMARK                            x       y       z     vdW  Elec       q    Type
REMARK                         _______ _______ _______ _____ _____    ______ ____
ROOT
ATOM      1  C   UNL     1       2.294   7.649  19.096  0.00  0.00    +0.000 A 
ATOM      2  C   UNL     1       1.893   8.648  18.215  0.00  0.00    +0.000 A 
ATOM      3  C   UNL     1       1.037   9.668  18.637  0.00  0.00    +0.000 A 
ATOM      4  F   UNL     1       0.698  10.605  17.734  0.00  0.00    +0.000 F 
ATOM      5  C   UNL     1       0.559   9.763  19.939  0.00  0.00    +0.000 A 
ATOM      6  N   UNL     1      -0.251  10.783  20.319  0.00  0.00    +0.000 NA
ATOM      7  C   UNL     1      -0.655  10.881  21.599  0.00  0.00    +0.000 A 
ATOM      8  N   UNL     1      -1.524  11.889  21.976  0.00  0.00    +0.000 N 
ATOM      9  C   UNL     1      -2.460  12.437  20.986  0.00  0.00    +0.000 C 
ATOM     10  C   UNL     1      -2.138  13.888  20.609  0.00  0.00    +0.000 C 
ATOM     11  O   UNL     1      -1.967  14.713  21.773  0.00  0.00    +0.000 OA
ATOM     12  C   UNL     1      -0.869  14.218  22.552  0.00  0.00    +0.000 C 
ATOM     13  C   UNL     1      -1.138  12.794  23.067  0.00  0.00    +0.000 C 
ATOM     14  C   UNL     1      -0.263   9.930  22.536  0.00  0.00    +0.000 A 
ATOM     15  C   UNL     1       0.527   8.851  22.152  0.00  0.00    +0.000 A 
ATOM     16  C   UNL     1       0.962   8.748  20.829  0.00  0.00    +0.000 A 
ATOM     17  C   UNL     1       1.790   7.682  20.400  0.00  0.00    +0.000 A 
ENDROOT
BRANCH   1  20
ATOM     18  O   UNL     1       1.666   5.119  17.834  0.00  0.00    +0.000 OA
ATOM     19  C   UNL     1       2.823   5.402  18.155  0.00  0.00    +0.000 C 
ATOM     20  N   UNL     1       3.189   6.611  18.737  0.00  0.00    +0.000 N 
ATOM     21  H   UNL     1       4.180   6.805  18.817  0.00  0.00    +0.000 HD
BRANCH  19  22
ATOM     22  C   UNL     1       3.989   4.410  17.887  0.00  0.00    +0.000 C 
ATOM     23  C   UNL     1       4.805   4.675  16.589  0.00  0.00    +0.000 C 
ATOM     24  C   UNL     1       6.088   4.377  17.378  0.00  0.00    +0.000 C 
ATOM     25  C   UNL     1       5.310   4.679  18.668  0.00  0.00    +0.000 C 
ENDBRANCH  19  22
ENDBRANCH   1  20
TORSDOF 2
ENDMDL
