MODEL 1
REMARK VINA RESULT:      -7.9      0.000      0.000
REMARK  Name = 
REMARK  9 active torsions:
REMARK  status: ('A' for Active; 'I' for Inactive)
REMARK    1  A    between atoms: C_2  and  C_3
REMARK    2  A    between atoms: C_2  and  C_4
REMARK    3  A    between atoms: N_6  and  C_7
REMARK    4  A    between atoms: N_11  and  C_12
REMARK    5  A    between atoms: C_25  and  O_26
REMARK    6  A    between atoms: O_26  and  C_27
REMARK    7  A    between atoms: C_27  and  C_28
REMARK    8  A    between atoms: C_28  and  C_29
REMARK    9  A    between atoms: C_29  and  N_30
REMARK                            x       y       z     vdW  Elec       q    Type
REMARK                         _______ _______ _______ _____ _____    ______ ____
ROOT
ATOM      1  C   UNL     1      -0.217  10.021  18.450  0.00  0.00    +0.000 A 
ATOM      2  C   UNL     1      -0.625  10.698  19.591  0.00  0.00    +0.000 A 
ATOM      3  C   UNL     1      -0.150  10.335  20.861  0.00  0.00    +0.000 A 
ATOM      4  C   UNL     1      -0.626  10.923  22.034  0.00  0.00    +0.000 A 
ATOM      5  N   UNL     1      -1.619  11.939  21.928  0.00  0.00    +0.000 N 
ATOM      6  N   UNL     1      -0.153  10.553  23.235  0.00  0.00    +0.000 NA
ATOM      7  C   UNL     1       0.775   9.595  23.258  0.00  0.00    +0.000 A 
ATOM      8  N   UNL     1       1.287   8.962  22.194  0.00  0.00    +0.000 NA
ATOM      9  C   UNL     1       0.814   9.332  20.992  0.00  0.00    +0.000 A 
ATOM     10  C   UNL     1       1.289   8.726  19.839  0.00  0.00    +0.000 A 
ATOM     11  C   UNL     1       0.818   9.081  18.559  0.00  0.00    +0.000 A 
ATOM     12  H   UNL     1      -2.364  11.612  21.316  0.00  0.00    +0.000 HD
ENDROOT
BRANCH   5  13
ATOM     13  C   UNL     1      -2.113  12.762  22.956  0.00  0.00    +0.000 A 
ATOM     14  C   UNL     1      -3.346  12.503  23.577  0.00  0.00    +0.000 A 
ATOM     15  C   UNL     1      -3.848  13.353  24.552  0.00  0.00    +0.000 A 
ATOM     16  C   UNL     1      -3.098  14.448  24.956  0.00  0.00    +0.000 A 
ATOM     17  F   UNL     1      -3.616  15.278  25.874  0.00  0.00    +0.000 F 
ATOM     18  C   UNL     1      -1.833  14.673  24.421  0.00  0.00    +0.000 A 
ATOM     19 CL   UNL     1      -0.884  16.011  24.948  0.00  0.00    +0.000 Cl
ATOM     20  C   UNL     1      -1.331  13.821  23.437  0.00  0.00    +0.000 A 
ENDBRANCH   5  13
BRANCH   1  23
ATOM     21  C   UNL     1      -2.222   9.987  17.048  0.00  0.00    +0.000 C 
ATOM     22  O   UNL     1      -2.950   9.421  17.864  0.00  0.00    +0.000 OA
ATOM     23  N   UNL     1      -0.902  10.308  17.262  0.00  0.00    +0.000 N 
ATOM     24  H   UNL     1      -0.458  10.944  16.622  0.00  0.00    +0.000 HD
BRANCH  21  26
ATOM     25  C   UNL     1      -3.468  11.491  15.579  0.00  0.00    +0.000 C 
ATOM     26  C   UNL     1      -2.730  10.366  15.676  0.00  0.00    +0.000 C 
ATOM     27  C   UNL     1      -2.473   9.502  14.482  0.00  0.00    +0.000 C 
ENDBRANCH  21  26
ENDBRANCH   1  23
BRANCH  11  28
ATOM     28  O   UNL     1       1.356   8.343  17.543  0.00  0.00    +0.000 OA
BRANCH  28  29
ATOM     29  C   UNL     1       2.724   7.974  17.690  0.00  0.00    +0.000 C 
BRANCH  29  30
ATOM     30  C   UNL     1       2.870   6.470  17.826  0.00  0.00    +0.000 C 
BRANCH  30  31
ATOM     31  C   UNL     1       4.327   6.050  17.975  0.00  0.00    +0.000 C 
BRANCH  31  32
ATOM     32  N   UNL     1       5.168   6.565  16.883  0.00  0.00    +0.000 NA
ATOM     33  C   UNL     1       5.371   5.525  15.847  0.00  0.00    +0.000 C 
ATOM     34  C   UNL     1       6.360   4.408  16.242  0.00  0.00    +0.000 C 
ATOM     35  O   UNL     1       7.601   4.915  16.749  0.00  0.00    +0.000 OA
ATOM     36  C   UNL     1       7.394   5.858  17.807  0.00  0.00    +0.000 C 
ATOM     37  C   UNL     1       6.506   7.013  17.327  0.00  0.00    +0.000 C 
ENDBRANCH  31  32
ENDBRANCH  30  31
ENDBRANCH  29  30
ENDBRANCH  28  29
ENDBRANCH  11  28
TORSDOF 8
ENDMDL
MODEL 2
REMARK VINA RESULT:      -7.6      1.740      2.157
REMARK  Name = 
REMARK  9 active torsions:
REMARK  status: ('A' for Active; 'I' for Inactive)
REMARK    1  A    between atoms: C_2  and  C_3
REMARK    2  A    between atoms: C_2  and  C_4
REMARK    3  A    between atoms: N_6  and  C_7
REMARK    4  A    between atoms: N_11  and  C_12
REMARK    5  A    between atoms: C_25  and  O_26
REMARK    6  A    between atoms: O_26  and  C_27
REMARK    7  A    between atoms: C_27  and  C_28
REMARK    8  A    between atoms: C_28  and  C_29
REMARK    9  A    between atoms: C_29  and  N_30
REMARK                            x       y       z     vdW  Elec       q    Type
REMARK                         _______ _______ _______ _____ _____    ______ ____
ROOT
ATOM      1  C   UNL     1      -0.176   9.975  18.522  0.00  0.00    +0.000 A 
ATOM      2  C   UNL     1      -0.599  10.667  19.648  0.00  0.00    +0.000 A 
ATOM      3  C   UNL     1      -0.146  10.315  20.930  0.00  0.00    +0.000 A 
ATOM      4  C   UNL     1      -0.637  10.919  22.089  0.00  0.00    +0.000 A 
ATOM      5  N   UNL     1      -1.621  11.940  21.955  0.00  0.00    +0.000 N 
ATOM      6  N   UNL     1      -0.186  10.559  23.301  0.00  0.00    +0.000 NA
ATOM      7  C   UNL     1       0.735   9.595  23.349  0.00  0.00    +0.000 A 
ATOM      8  N   UNL     1       1.259   8.948  22.301  0.00  0.00    +0.000 NA
ATOM      9  C   UNL     1       0.809   9.308  21.088  0.00  0.00    +0.000 A 
ATOM     10  C   UNL     1       1.297   8.686  19.949  0.00  0.00    +0.000 A 
ATOM     11  C   UNL     1       0.849   9.029  18.658  0.00  0.00    +0.000 A 
ATOM     12  H   UNL     1      -2.359  11.612  21.335  0.00  0.00    +0.000 HD
ENDROOT
BRANCH   5  13
ATOM     13  C   UNL     1      -2.126  12.778  22.966  0.00  0.00    +0.000 A 
ATOM     14  C   UNL     1      -3.365  12.528  23.578  0.00  0.00    +0.000 A 
ATOM     15  C   UNL     1      -3.878  13.392  24.535  0.00  0.00    +0.000 A 
ATOM     16  C   UNL     1      -3.131  14.492  24.932  0.00  0.00    +0.000 A 
ATOM     17  F   UNL     1      -3.659  15.336  25.832  0.00  0.00    +0.000 F 
ATOM     18  C   UNL     1      -1.861  14.710  24.407  0.00  0.00    +0.000 A 
ATOM     19 CL   UNL     1      -0.917  16.055  24.926  0.00  0.00    +0.000 Cl
ATOM     20  C   UNL     1      -1.348  13.844  23.441  0.00  0.00    +0.000 A 
ENDBRANCH   5  13
BRANCH   1  23
ATOM     21  C   UNL     1      -2.164   9.954  17.094  0.00  0.00    +0.000 C 
ATOM     22  O   UNL     1      -2.913   9.417  17.910  0.00  0.00    +0.000 OA
ATOM     23  N   UNL     1      -0.841  10.253  17.320  0.00  0.00    +0.000 N 
ATOM     24  H   UNL     1      -0.377  10.870  16.675  0.00  0.00    +0.000 HD
BRANCH  21  26
ATOM     25  C   UNL     1      -3.294  11.493  15.569  0.00  0.00    +0.000 C 
ATOM     26  C   UNL     1      -2.647  10.318  15.709  0.00  0.00    +0.000 C 
ATOM     27  C   UNL     1      -2.465   9.390  14.550  0.00  0.00    +0.000 C 
ENDBRANCH  21  26
ENDBRANCH   1  23
BRANCH  11  28
ATOM     28  O   UNL     1       1.399   8.277  17.659  0.00  0.00    +0.000 OA
BRANCH  28  29
ATOM     29  C   UNL     1       2.733   7.827  17.871  0.00  0.00    +0.000 C 
BRANCH  29  30
ATOM     30  C   UNL     1       2.858   6.341  17.594  0.00  0.00    +0.000 C 
BRANCH  30  31
ATOM     31  C   UNL     1       2.406   5.499  18.781  0.00  0.00    +0.000 C 
BRANCH  31  32
ATOM     32  N   UNL     1       2.271   4.076  18.433  0.00  0.00    +0.000 NA
ATOM     33  C   UNL     1       1.657   3.322  19.551  0.00  0.00    +0.000 C 
ATOM     34  C   UNL     1       2.599   3.063  20.746  0.00  0.00    +0.000 C 
ATOM     35  O   UNL     1       3.863   2.512  20.352  0.00  0.00    +0.000 OA
ATOM     36  C   UNL     1       4.485   3.296  19.328  0.00  0.00    +0.000 C 
ATOM     37  C   UNL     1       3.558   3.421  18.112  0.00  0.00    +0.000 C 
ENDBRANCH  31  32
ENDBRANCH  30  31
ENDBRANCH  29  30
ENDBRANCH  28  29
ENDBRANCH  11  28
TORSDOF 8
ENDMDL
MODEL 3
REMARK VINA RESULT:      -7.3      2.159      2.600
REMARK  Name = 
REMARK  9 active torsions:
REMARK  status: ('A' for Active; 'I' for Inactive)
REMARK    1  A    between atoms: C_2  and  C_3
REMARK    2  A    between atoms: C_2  and  C_4
REMARK    3  A    between atoms: N_6  and  C_7
REMARK    4  A    between atoms: N_11  and  C_12
REMARK    5  A    between atoms: C_25  and  O_26
REMARK    6  A    between atoms: O_26  and  C_27
REMARK    7  A    between atoms: C_27  and  C_28
REMARK    8  A    between atoms: C_28  and  C_29
REMARK    9  A    between atoms: C_29  and  N_30
REMARK                            x       y       z     vdW  Elec       q    Type
REMARK                         _______ _______ _______ _____ _____    ______ ____
ROOT
ATOM      1  C   UNL     1      -1.213  11.000  18.349  0.00  0.00    +0.000 A 
ATOM      2  C   UNL     1      -1.902  11.742  19.298  0.00  0.00    +0.000 A 
ATOM      3  C   UNL     1      -1.574  11.663  20.661  0.00  0.00    +0.000 A 
ATOM      4  C   UNL     1      -2.318  12.311  21.648  0.00  0.00    +0.000 A 
ATOM      5  N   UNL     1      -3.441  13.090  21.248  0.00  0.00    +0.000 N 
ATOM      6  N   UNL     1      -1.980  12.214  22.944  0.00  0.00    +0.000 NA
ATOM      7  C   UNL     1      -0.917  11.465  23.244  0.00  0.00    +0.000 A 
ATOM      8  N   UNL     1      -0.148  10.797  22.375  0.00  0.00    +0.000 NA
ATOM      9  C   UNL     1      -0.485  10.894  21.079  0.00  0.00    +0.000 A 
ATOM     10  C   UNL     1       0.258  10.232  20.114  0.00  0.00    +0.000 A 
ATOM     11  C   UNL     1      -0.064  10.302  18.744  0.00  0.00    +0.000 A 
ATOM     12  H   UNL     1      -4.016  12.542  20.611  0.00  0.00    +0.000 HD
ENDROOT
BRANCH   5  13
ATOM     13  C   UNL     1      -4.220  13.942  22.052  0.00  0.00    +0.000 A 
ATOM     14  C   UNL     1      -3.910  15.304  22.196  0.00  0.00    +0.000 A 
ATOM     15  C   UNL     1      -4.654  16.122  23.034  0.00  0.00    +0.000 A 
ATOM     16  C   UNL     1      -5.753  15.599  23.700  0.00  0.00    +0.000 A 
ATOM     17  F   UNL     1      -6.438  16.396  24.534  0.00  0.00    +0.000 F 
ATOM     18  C   UNL     1      -6.135  14.275  23.501  0.00  0.00    +0.000 A 
ATOM     19 CL   UNL     1      -7.520  13.633  24.299  0.00  0.00    +0.000 Cl
ATOM     20  C   UNL     1      -5.383  13.452  22.662  0.00  0.00    +0.000 A 
ENDBRANCH   5  13
BRANCH   1  23
ATOM     21  C   UNL     1      -2.753  10.128  16.658  0.00  0.00    +0.000 C 
ATOM     22  O   UNL     1      -3.301   9.300  17.386  0.00  0.00    +0.000 OA
ATOM     23  N   UNL     1      -1.746  10.977  17.052  0.00  0.00    +0.000 N 
ATOM     24  H   UNL     1      -1.510  11.746  16.449  0.00  0.00    +0.000 HD
BRANCH  21  26
ATOM     25  C   UNL     1      -4.146  11.106  14.905  0.00  0.00    +0.000 C 
ATOM     26  C   UNL     1      -3.135  10.264  15.202  0.00  0.00    +0.000 C 
ATOM     27  C   UNL     1      -2.458   9.459  14.138  0.00  0.00    +0.000 C 
ENDBRANCH  21  26
ENDBRANCH   1  23
BRANCH  11  28
ATOM     28  O   UNL     1       0.743   9.544  17.942  0.00  0.00    +0.000 OA
BRANCH  28  29
ATOM     29  C   UNL     1       1.806   8.855  18.592  0.00  0.00    +0.000 C 
BRANCH  29  30
ATOM     30  C   UNL     1       2.454   7.850  17.658  0.00  0.00    +0.000 C 
BRANCH  30  31
ATOM     31  C   UNL     1       3.152   6.730  18.422  0.00  0.00    +0.000 C 
BRANCH  31  32
ATOM     32  N   UNL     1       3.954   5.872  17.536  0.00  0.00    +0.000 NA
ATOM     33  C   UNL     1       3.532   4.457  17.659  0.00  0.00    +0.000 C 
ATOM     34  C   UNL     1       3.995   3.757  18.955  0.00  0.00    +0.000 C 
ATOM     35  O   UNL     1       5.395   3.927  19.212  0.00  0.00    +0.000 OA
ATOM     36  C   UNL     1       5.776   5.307  19.172  0.00  0.00    +0.000 C 
ATOM     37  C   UNL     1       5.406   5.925  17.817  0.00  0.00    +0.000 C 
ENDBRANCH  31  32
ENDBRANCH  30  31
ENDBRANCH  29  30
ENDBRANCH  28  29
ENDBRANCH  11  28
TORSDOF 8
ENDMDL
MODEL 4
REMARK VINA RESULT:      -7.2      2.906      5.100
REMARK  Name = 
REMARK  9 active torsions:
REMARK  status: ('A' for Active; 'I' for Inactive)
REMARK    1  A    between atoms: C_2  and  C_3
REMARK    2  A    between atoms: C_2  and  C_4
REMARK    3  A    between atoms: N_6  and  C_7
REMARK    4  A    between atoms: N_11  and  C_12
REMARK    5  A    between atoms: C_25  and  O_26
REMARK    6  A    between atoms: O_26  and  C_27
REMARK    7  A    between atoms: C_27  and  C_28
REMARK    8  A    between atoms: C_28  and  C_29
REMARK    9  A    between atoms: C_29  and  N_30
REMARK                            x       y       z     vdW  Elec       q    Type
REMARK                         _______ _______ _______ _____ _____    ______ ____
ROOT
ATOM      1  C   UNL     1       2.499   6.145  19.423  0.00  0.00    +0.000 A 
ATOM      2  C   UNL     1       1.846   7.246  19.959  0.00  0.00    +0.000 A 
ATOM      3  C   UNL     1       1.843   8.483  19.296  0.00  0.00    +0.000 A 
ATOM      4  C   UNL     1       1.291   9.633  19.861  0.00  0.00    +0.000 A 
ATOM      5  N   UNL     1       0.697   9.535  21.152  0.00  0.00    +0.000 N 
ATOM      6  N   UNL     1       1.305  10.804  19.203  0.00  0.00    +0.000 NA
ATOM      7  C   UNL     1       1.879  10.820  17.998  0.00  0.00    +0.000 A 
ATOM      8  N   UNL     1       2.445   9.778  17.376  0.00  0.00    +0.000 NA
ATOM      9  C   UNL     1       2.430   8.607  18.034  0.00  0.00    +0.000 A 
ATOM     10  C   UNL     1       2.997   7.479  17.462  0.00  0.00    +0.000 A 
ATOM     11  C   UNL     1       3.008   6.232  18.119  0.00  0.00    +0.000 A 
ATOM     12  H   UNL     1       1.340   9.054  21.778  0.00  0.00    +0.000 HD
ENDROOT
BRANCH   5  13
ATOM     13  C   UNL     1      -0.047  10.520  21.828  0.00  0.00    +0.000 A 
ATOM     14  C   UNL     1      -0.993  10.181  22.809  0.00  0.00    +0.000 A 
ATOM     15  C   UNL     1      -1.760  11.157  23.430  0.00  0.00    +0.000 A 
ATOM     16  C   UNL     1      -1.553  12.492  23.114  0.00  0.00    +0.000 A 
ATOM     17  F   UNL     1      -2.329  13.418  23.697  0.00  0.00    +0.000 F 
ATOM     18  C   UNL     1      -0.558  12.858  22.212  0.00  0.00    +0.000 A 
ATOM     19 CL   UNL     1      -0.276  14.517  21.845  0.00  0.00    +0.000 Cl
ATOM     20  C   UNL     1       0.209  11.876  21.584  0.00  0.00    +0.000 A 
ENDBRANCH   5  13
BRANCH   1  23
ATOM     21  C   UNL     1       1.670   4.047  20.372  0.00  0.00    +0.000 C 
ATOM     22  O   UNL     1       0.593   4.044  19.775  0.00  0.00    +0.000 OA
ATOM     23  N   UNL     1       2.633   5.021  20.250  0.00  0.00    +0.000 N 
ATOM     24  H   UNL     1       3.550   4.831  20.615  0.00  0.00    +0.000 HD
BRANCH  21  26
ATOM     25  C   UNL     1       1.091   2.608  22.260  0.00  0.00    +0.000 C 
ATOM     26  C   UNL     1       2.026   2.952  21.351  0.00  0.00    +0.000 C 
ATOM     27  C   UNL     1       3.378   2.312  21.349  0.00  0.00    +0.000 C 
ENDBRANCH  21  26
ENDBRANCH   1  23
BRANCH  11  28
ATOM     28  O   UNL     1       3.656   5.245  17.432  0.00  0.00    +0.000 OA
BRANCH  28  29
ATOM     29  C   UNL     1       3.729   3.976  18.072  0.00  0.00    +0.000 C 
BRANCH  29  30
ATOM     30  C   UNL     1       5.137   3.694  18.563  0.00  0.00    +0.000 C 
BRANCH  30  31
ATOM     31  C   UNL     1       5.854   4.966  18.998  0.00  0.00    +0.000 C 
BRANCH  31  32
ATOM     32  N   UNL     1       7.283   4.946  18.644  0.00  0.00    +0.000 NA
ATOM     33  C   UNL     1       7.875   6.297  18.791  0.00  0.00    +0.000 C 
ATOM     34  C   UNL     1       7.490   7.293  17.676  0.00  0.00    +0.000 C 
ATOM     35  O   UNL     1       7.682   6.759  16.359  0.00  0.00    +0.000 OA
ATOM     36  C   UNL     1       7.034   5.491  16.204  0.00  0.00    +0.000 C 
ATOM     37  C   UNL     1       7.542   4.498  17.258  0.00  0.00    +0.000 C 
ENDBRANCH  31  32
ENDBRANCH  30  31
ENDBRANCH  29  30
ENDBRANCH  28  29
ENDBRANCH  11  28
TORSDOF 8
ENDMDL
MODEL 5
REMARK VINA RESULT:      -7.2      2.126      2.590
REMARK  Name = 
REMARK  9 active torsions:
REMARK  status: ('A' for Active; 'I' for Inactive)
REMARK    1  A    between atoms: C_2  and  C_3
REMARK    2  A    between atoms: C_2  and  C_4
REMARK    3  A    between atoms: N_6  and  C_7
REMARK    4  A    between atoms: N_11  and  C_12
REMARK    5  A    between atoms: C_25  and  O_26
REMARK    6  A    between atoms: O_26  and  C_27
REMARK    7  A    between atoms: C_27  and  C_28
REMARK    8  A    between atoms: C_28  and  C_29
REMARK    9  A    between atoms: C_29  and  N_30
REMARK                            x       y       z     vdW  Elec       q    Type
REMARK                         _______ _______ _______ _____ _____    ______ ____
ROOT
ATOM      1  C   UNL     1      -0.130   9.929  18.406  0.00  0.00    +0.000 A 
ATOM      2  C   UNL     1      -0.561  10.611  19.535  0.00  0.00    +0.000 A 
ATOM      3  C   UNL     1      -0.090  10.271  20.814  0.00  0.00    +0.000 A 
ATOM      4  C   UNL     1      -0.586  10.862  21.976  0.00  0.00    +0.000 A 
ATOM      5  N   UNL     1      -1.597  11.858  21.850  0.00  0.00    +0.000 N 
ATOM      6  N   UNL     1      -0.117  10.514  23.185  0.00  0.00    +0.000 NA
ATOM      7  C   UNL     1       0.829   9.573  23.225  0.00  0.00    +0.000 A 
ATOM      8  N   UNL     1       1.361   8.939  22.173  0.00  0.00    +0.000 NA
ATOM      9  C   UNL     1       0.892   9.288  20.963  0.00  0.00    +0.000 A 
ATOM     10  C   UNL     1       1.387   8.678  19.821  0.00  0.00    +0.000 A 
ATOM     11  C   UNL     1       0.920   9.010  18.534  0.00  0.00    +0.000 A 
ATOM     12  H   UNL     1      -2.331  11.512  21.236  0.00  0.00    +0.000 HD
ENDROOT
BRANCH   5  13
ATOM     13  C   UNL     1      -2.115  12.684  22.865  0.00  0.00    +0.000 A 
ATOM     14  C   UNL     1      -1.420  13.818  23.316  0.00  0.00    +0.000 A 
ATOM     15  C   UNL     1      -1.915  14.593  24.356  0.00  0.00    +0.000 A 
ATOM     16  C   UNL     1      -3.140  14.273  24.923  0.00  0.00    +0.000 A 
ATOM     17  F   UNL     1      -3.585  15.013  25.950  0.00  0.00    +0.000 F 
ATOM     18  C   UNL     1      -3.890  13.209  24.430  0.00  0.00    +0.000 A 
ATOM     19 CL   UNL     1      -5.428  12.833  25.109  0.00  0.00    +0.000 Cl
ATOM     20  C   UNL     1      -3.389  12.427  23.389  0.00  0.00    +0.000 A 
ENDBRANCH   5  13
BRANCH   1  23
ATOM     21  C   UNL     1      -2.146   9.925  17.018  0.00  0.00    +0.000 C 
ATOM     22  O   UNL     1      -2.894   9.434  17.865  0.00  0.00    +0.000 OA
ATOM     23  N   UNL     1      -0.811  10.191  17.209  0.00  0.00    +0.000 N 
ATOM     24  H   UNL     1      -0.342  10.774  16.536  0.00  0.00    +0.000 HD
BRANCH  21  26
ATOM     25  C   UNL     1      -3.360  11.397  15.491  0.00  0.00    +0.000 C 
ATOM     26  C   UNL     1      -2.647  10.260  15.632  0.00  0.00    +0.000 C 
ATOM     27  C   UNL     1      -2.409   9.345  14.473  0.00  0.00    +0.000 C 
ENDBRANCH  21  26
ENDBRANCH   1  23
BRANCH  11  28
ATOM     28  O   UNL     1       1.481   8.272  17.530  0.00  0.00    +0.000 OA
BRANCH  28  29
ATOM     29  C   UNL     1       2.572   7.434  17.899  0.00  0.00    +0.000 C 
BRANCH  29  30
ATOM     30  C   UNL     1       2.180   5.970  17.836  0.00  0.00    +0.000 C 
BRANCH  30  31
ATOM     31  C   UNL     1       2.587   5.216  19.097  0.00  0.00    +0.000 C 
BRANCH  31  32
ATOM     32  N   UNL     1       1.894   3.924  19.218  0.00  0.00    +0.000 NA
ATOM     33  C   UNL     1       2.407   3.165  20.384  0.00  0.00    +0.000 C 
ATOM     34  C   UNL     1       3.800   2.534  20.178  0.00  0.00    +0.000 C 
ATOM     35  O   UNL     1       3.900   1.786  18.960  0.00  0.00    +0.000 OA
ATOM     36  C   UNL     1       3.480   2.557  17.829  0.00  0.00    +0.000 C 
ATOM     37  C   UNL     1       2.044   3.058  18.028  0.00  0.00    +0.000 C 
ENDBRANCH  31  32
ENDBRANCH  30  31
ENDBRANCH  29  30
ENDBRANCH  28  29
ENDBRANCH  11  28
TORSDOF 8
ENDMDL
MODEL 6
REMARK VINA RESULT:      -7.2      5.110      9.417
REMARK  Name = 
REMARK  9 active torsions:
REMARK  status: ('A' for Active; 'I' for Inactive)
REMARK    1  A    between atoms: C_2  and  C_3
REMARK    2  A    between atoms: C_2  and  C_4
REMARK    3  A    between atoms: N_6  and  C_7
REMARK    4  A    between atoms: N_11  and  C_12
REMARK    5  A    between atoms: C_25  and  O_26
REMARK    6  A    between atoms: O_26  and  C_27
REMARK    7  A    between atoms: C_27  and  C_28
REMARK    8  A    between atoms: C_28  and  C_29
REMARK    9  A    between atoms: C_29  and  N_30
REMARK                            x       y       z     vdW  Elec       q    Type
REMARK                         _______ _______ _______ _____ _____    ______ ____
ROOT
ATOM      1  C   UNL     1       1.290  11.166  19.166  0.00  0.00    +0.000 A 
ATOM      2  C   UNL     1       1.901  10.007  18.710  0.00  0.00    +0.000 A 
ATOM      3  C   UNL     1       1.756   8.790  19.396  0.00  0.00    +0.000 A 
ATOM      4  C   UNL     1       2.447   7.635  19.025  0.00  0.00    +0.000 A 
ATOM      5  N   UNL     1       3.316   7.698  17.898  0.00  0.00    +0.000 N 
ATOM      6  N   UNL     1       2.289   6.487  19.703  0.00  0.00    +0.000 NA
ATOM      7  C   UNL     1       1.459   6.503  20.748  0.00  0.00    +0.000 A 
ATOM      8  N   UNL     1       0.763   7.558  21.190  0.00  0.00    +0.000 NA
ATOM      9  C   UNL     1       0.920   8.706  20.512  0.00  0.00    +0.000 A 
ATOM     10  C   UNL     1       0.237   9.847  20.904  0.00  0.00    +0.000 A 
ATOM     11  C   UNL     1       0.376  11.074  20.225  0.00  0.00    +0.000 A 
ATOM     12  H   UNL     1       3.922   8.511  17.991  0.00  0.00    +0.000 HD
ENDROOT
BRANCH   5  13
ATOM     13  C   UNL     1       3.975   6.628  17.266  0.00  0.00    +0.000 A 
ATOM     14  C   UNL     1       4.996   6.845  16.327  0.00  0.00    +0.000 A 
ATOM     15  C   UNL     1       5.601   5.783  15.670  0.00  0.00    +0.000 A 
ATOM     16  C   UNL     1       5.227   4.484  15.982  0.00  0.00    +0.000 A 
ATOM     17  F   UNL     1       5.797   3.473  15.310  0.00  0.00    +0.000 F 
ATOM     18  C   UNL     1       4.282   4.241  16.975  0.00  0.00    +0.000 A 
ATOM     19 CL   UNL     1       3.843   2.628  17.389  0.00  0.00    +0.000 Cl
ATOM     20  C   UNL     1       3.671   5.309  17.632  0.00  0.00    +0.000 A 
ENDBRANCH   5  13
BRANCH   1  23
ATOM     21  C   UNL     1       2.395  13.349  19.168  0.00  0.00    +0.000 C 
ATOM     22  O   UNL     1       2.807  13.293  20.327  0.00  0.00    +0.000 OA
ATOM     23  N   UNL     1       1.663  12.366  18.545  0.00  0.00    +0.000 N 
ATOM     24  H   UNL     1       1.552  12.417  17.547  0.00  0.00    +0.000 HD
BRANCH  21  26
ATOM     25  C   UNL     1       1.630  15.449  18.178  0.00  0.00    +0.000 C 
ATOM     26  C   UNL     1       2.643  14.567  18.307  0.00  0.00    +0.000 C 
ATOM     27  C   UNL     1       3.937  14.761  17.583  0.00  0.00    +0.000 C 
ENDBRANCH  21  26
ENDBRANCH   1  23
BRANCH  11  28
ATOM     28  O   UNL     1      -0.329  12.103  20.782  0.00  0.00    +0.000 OA
BRANCH  28  29
ATOM     29  C   UNL     1      -1.738  11.919  20.882  0.00  0.00    +0.000 C 
BRANCH  29  30
ATOM     30  C   UNL     1      -2.460  12.619  19.747  0.00  0.00    +0.000 C 
BRANCH  30  31
ATOM     31  C   UNL     1      -2.134  11.996  18.394  0.00  0.00    +0.000 C 
BRANCH  31  32
ATOM     32  N   UNL     1      -2.797  10.696  18.208  0.00  0.00    +0.000 NA
ATOM     33  C   UNL     1      -2.223   9.980  17.045  0.00  0.00    +0.000 C 
ATOM     34  C   UNL     1      -2.657  10.533  15.670  0.00  0.00    +0.000 C 
ATOM     35  O   UNL     1      -4.077  10.696  15.557  0.00  0.00    +0.000 OA
ATOM     36  C   UNL     1      -4.609  11.461  16.645  0.00  0.00    +0.000 C 
ATOM     37  C   UNL     1      -4.256  10.803  17.985  0.00  0.00    +0.000 C 
ENDBRANCH  31  32
ENDBRANCH  30  31
ENDBRANCH  29  30
ENDBRANCH  28  29
ENDBRANCH  11  28
TORSDOF 8
ENDMDL
MODEL 7
REMARK VINA RESULT:      -7.2      5.210     10.430
REMARK  Name = 
REMARK  9 active torsions:
REMARK  status: ('A' for Active; 'I' for Inactive)
REMARK    1  A    between atoms: C_2  and  C_3
REMARK    2  A    between atoms: C_2  and  C_4
REMARK    3  A    between atoms: N_6  and  C_7
REMARK    4  A    between atoms: N_11  and  C_12
REMARK    5  A    between atoms: C_25  and  O_26
REMARK    6  A    between atoms: O_26  and  C_27
REMARK    7  A    between atoms: C_27  and  C_28
REMARK    8  A    between atoms: C_28  and  C_29
REMARK    9  A    between atoms: C_29  and  N_30
REMARK                            x       y       z     vdW  Elec       q    Type
REMARK                         _______ _______ _______ _____ _____    ______ ____
ROOT
ATOM      1  C   UNL     1       1.115  10.495  19.152  0.00  0.00    +0.000 A 
ATOM      2  C   UNL     1       1.967   9.531  18.632  0.00  0.00    +0.000 A 
ATOM      3  C   UNL     1       2.061   8.255  19.210  0.00  0.00    +0.000 A 
ATOM      4  C   UNL     1       2.987   7.304  18.779  0.00  0.00    +0.000 A 
ATOM      5  N   UNL     1       3.854   7.644  17.701  0.00  0.00    +0.000 N 
ATOM      6  N   UNL     1       3.054   6.093  19.354  0.00  0.00    +0.000 NA
ATOM      7  C   UNL     1       2.211   5.846  20.359  0.00  0.00    +0.000 A 
ATOM      8  N   UNL     1       1.298   6.692  20.853  0.00  0.00    +0.000 NA
ATOM      9  C   UNL     1       1.230   7.903  20.277  0.00  0.00    +0.000 A 
ATOM     10  C   UNL     1       0.314   8.840  20.730  0.00  0.00    +0.000 A 
ATOM     11  C   UNL     1       0.212  10.124  20.158  0.00  0.00    +0.000 A 
ATOM     12  H   UNL     1       4.274   8.553  17.886  0.00  0.00    +0.000 HD
ENDROOT
BRANCH   5  13
ATOM     13  C   UNL     1       4.738   6.792  17.014  0.00  0.00    +0.000 A 
ATOM     14  C   UNL     1       4.639   6.593  15.628  0.00  0.00    +0.000 A 
ATOM     15  C   UNL     1       5.482   5.708  14.970  0.00  0.00    +0.000 A 
ATOM     16  C   UNL     1       6.473   5.050  15.684  0.00  0.00    +0.000 A 
ATOM     17  F   UNL     1       7.254   4.172  15.038  0.00  0.00    +0.000 F 
ATOM     18  C   UNL     1       6.650   5.301  17.042  0.00  0.00    +0.000 A 
ATOM     19 CL   UNL     1       7.902   4.512  17.923  0.00  0.00    +0.000 Cl
ATOM     20  C   UNL     1       5.798   6.186  17.703  0.00  0.00    +0.000 A 
ENDBRANCH   5  13
BRANCH   1  23
ATOM     21  C   UNL     1       1.810  12.833  19.353  0.00  0.00    +0.000 C 
ATOM     22  O   UNL     1       2.265  12.743  20.494  0.00  0.00    +0.000 OA
ATOM     23  N   UNL     1       1.246  11.796  18.648  0.00  0.00    +0.000 N 
ATOM     24  H   UNL     1       1.094  11.920  17.661  0.00  0.00    +0.000 HD
BRANCH  21  26
ATOM     25  C   UNL     1       0.662  14.865  18.628  0.00  0.00    +0.000 C 
ATOM     26  C   UNL     1       1.807  14.151  18.613  0.00  0.00    +0.000 C 
ATOM     27  C   UNL     1       3.004  14.621  17.849  0.00  0.00    +0.000 C 
ENDBRANCH  21  26
ENDBRANCH   1  23
BRANCH  11  28
ATOM     28  O   UNL     1      -0.707  10.932  20.764  0.00  0.00    +0.000 OA
BRANCH  28  29
ATOM     29  C   UNL     1      -0.427  11.305  22.110  0.00  0.00    +0.000 C 
BRANCH  29  30
ATOM     30  C   UNL     1      -1.704  11.422  22.920  0.00  0.00    +0.000 C 
BRANCH  30  31
ATOM     31  C   UNL     1      -2.696  12.389  22.284  0.00  0.00    +0.000 C 
BRANCH  31  32
ATOM     32  N   UNL     1      -4.014  12.340  22.935  0.00  0.00    +0.000 NA
ATOM     33  C   UNL     1      -4.961  13.262  22.265  0.00  0.00    +0.000 C 
ATOM     34  C   UNL     1      -4.732  14.757  22.574  0.00  0.00    +0.000 C 
ATOM     35  O   UNL     1      -4.618  15.026  23.977  0.00  0.00    +0.000 OA
ATOM     36  C   UNL     1      -3.640  14.185  24.599  0.00  0.00    +0.000 C 
ATOM     37  C   UNL     1      -3.980  12.707  24.368  0.00  0.00    +0.000 C 
ENDBRANCH  31  32
ENDBRANCH  30  31
ENDBRANCH  29  30
ENDBRANCH  28  29
ENDBRANCH  11  28
TORSDOF 8
ENDMDL
MODEL 8
REMARK VINA RESULT:      -7.2      5.195     10.193
REMARK  Name = 
REMARK  9 active torsions:
REMARK  status: ('A' for Active; 'I' for Inactive)
REMARK    1  A    between atoms: C_2  and  C_3
REMARK    2  A    between atoms: C_2  and  C_4
REMARK    3  A    between atoms: N_6  and  C_7
REMARK    4  A    between atoms: N_11  and  C_12
REMARK    5  A    between atoms: C_25  and  O_26
REMARK    6  A    between atoms: O_26  and  C_27
REMARK    7  A    between atoms: C_27  and  C_28
REMARK    8  A    between atoms: C_28  and  C_29
REMARK    9  A    between atoms: C_29  and  N_30
REMARK                            x       y       z     vdW  Elec       q    Type
REMARK                         _______ _______ _______ _____ _____    ______ ____
ROOT
ATOM      1  C   UNL     1       1.288   8.996  19.772  0.00  0.00    +0.000 A 
ATOM      2  C   UNL     1       2.208   8.234  19.067  0.00  0.00    +0.000 A 
ATOM      3  C   UNL     1       2.496   6.911  19.440  0.00  0.00    +0.000 A 
ATOM      4  C   UNL     1       3.494   6.158  18.820  0.00  0.00    +0.000 A 
ATOM      5  N   UNL     1       4.232   6.756  17.759  0.00  0.00    +0.000 N 
ATOM      6  N   UNL     1       3.748   4.896  19.202  0.00  0.00    +0.000 NA
ATOM      7  C   UNL     1       3.017   4.403  20.204  0.00  0.00    +0.000 A 
ATOM      8  N   UNL     1       2.049   5.045  20.870  0.00  0.00    +0.000 NA
ATOM      9  C   UNL     1       1.795   6.307  20.487  0.00  0.00    +0.000 A 
ATOM     10  C   UNL     1       0.809   7.044  21.126  0.00  0.00    +0.000 A 
ATOM     11  C   UNL     1       0.513   8.372  20.760  0.00  0.00    +0.000 A 
ATOM     12  H   UNL     1       4.553   7.676  18.054  0.00  0.00    +0.000 HD
ENDROOT
BRANCH   5  13
ATOM     13  C   UNL     1       5.158   6.132  16.903  0.00  0.00    +0.000 A 
ATOM     14  C   UNL     1       6.535   6.144  17.177  0.00  0.00    +0.000 A 
ATOM     15  C   UNL     1       7.444   5.571  16.298  0.00  0.00    +0.000 A 
ATOM     16  C   UNL     1       6.981   4.932  15.157  0.00  0.00    +0.000 A 
ATOM     17  F   UNL     1       7.876   4.417  14.301  0.00  0.00    +0.000 F 
ATOM     18  C   UNL     1       5.614   4.827  14.912  0.00  0.00    +0.000 A 
ATOM     19 CL   UNL     1       5.036   4.002  13.514  0.00  0.00    +0.000 Cl
ATOM     20  C   UNL     1       4.702   5.408  15.793  0.00  0.00    +0.000 A 
ENDBRANCH   5  13
BRANCH   1  23
ATOM     21  C   UNL     1       0.251  10.918  18.667  0.00  0.00    +0.000 C 
ATOM     22  O   UNL     1      -0.671  10.293  18.142  0.00  0.00    +0.000 OA
ATOM     23  N   UNL     1       1.225  10.362  19.463  0.00  0.00    +0.000 N 
ATOM     24  H   UNL     1       1.806  10.979  20.004  0.00  0.00    +0.000 HD
BRANCH  21  26
ATOM     25  C   UNL     1      -0.684  13.099  18.084  0.00  0.00    +0.000 C 
ATOM     26  C   UNL     1       0.414  12.405  18.448  0.00  0.00    +0.000 C 
ATOM     27  C   UNL     1       1.747  13.072  18.576  0.00  0.00    +0.000 C 
ENDBRANCH  21  26
ENDBRANCH   1  23
BRANCH  11  28
ATOM     28  O   UNL     1      -0.448   8.962  21.532  0.00  0.00    +0.000 OA
BRANCH  28  29
ATOM     29  C   UNL     1      -0.054   9.342  22.846  0.00  0.00    +0.000 C 
BRANCH  29  30
ATOM     30  C   UNL     1      -0.836  10.553  23.320  0.00  0.00    +0.000 C 
BRANCH  30  31
ATOM     31  C   UNL     1      -1.217  11.473  22.166  0.00  0.00    +0.000 C 
BRANCH  31  32
ATOM     32  N   UNL     1      -1.505  12.843  22.621  0.00  0.00    +0.000 NA
ATOM     33  C   UNL     1      -2.689  12.858  23.511  0.00  0.00    +0.000 C 
ATOM     34  C   UNL     1      -4.041  12.687  22.786  0.00  0.00    +0.000 C 
ATOM     35  O   UNL     1      -4.193  13.573  21.670  0.00  0.00    +0.000 OA
ATOM     36  C   UNL     1      -3.080  13.488  20.773  0.00  0.00    +0.000 C 
ATOM     37  C   UNL     1      -1.771  13.789  21.515  0.00  0.00    +0.000 C 
ENDBRANCH  31  32
ENDBRANCH  30  31
ENDBRANCH  29  30
ENDBRANCH  28  29
ENDBRANCH  11  28
TORSDOF 8
ENDMDL
MODEL 9
REMARK VINA RESULT:      -7.2      5.180     10.190
REMARK  Name = 
REMARK  9 active torsions:
REMARK  status: ('A' for Active; 'I' for Inactive)
REMARK    1  A    between atoms: C_2  and  C_3
REMARK    2  A    between atoms: C_2  and  C_4
REMARK    3  A    between atoms: N_6  and  C_7
REMARK    4  A    between atoms: N_11  and  C_12
REMARK    5  A    between atoms: C_25  and  O_26
REMARK    6  A    between atoms: O_26  and  C_27
REMARK    7  A    between atoms: C_27  and  C_28
REMARK    8  A    between atoms: C_28  and  C_29
REMARK    9  A    between atoms: C_29  and  N_30
REMARK                            x       y       z     vdW  Elec       q    Type
REMARK                         _______ _______ _______ _____ _____    ______ ____
ROOT
ATOM      1  C   UNL     1       1.187   9.262  19.836  0.00  0.00    +0.000 A 
ATOM      2  C   UNL     1       2.115   8.474  19.168  0.00  0.00    +0.000 A 
ATOM      3  C   UNL     1       2.346   7.142  19.549  0.00  0.00    +0.000 A 
ATOM      4  C   UNL     1       3.347   6.362  18.970  0.00  0.00    +0.000 A 
ATOM      5  N   UNL     1       4.150   6.941  17.945  0.00  0.00    +0.000 N 
ATOM      6  N   UNL     1       3.546   5.092  19.358  0.00  0.00    +0.000 NA
ATOM      7  C   UNL     1       2.757   4.617  20.324  0.00  0.00    +0.000 A 
ATOM      8  N   UNL     1       1.780   5.286  20.948  0.00  0.00    +0.000 NA
ATOM      9  C   UNL     1       1.581   6.557  20.561  0.00  0.00    +0.000 A 
ATOM     10  C   UNL     1       0.590   7.321  21.158  0.00  0.00    +0.000 A 
ATOM     11  C   UNL     1       0.351   8.659  20.785  0.00  0.00    +0.000 A 
ATOM     12  H   UNL     1       4.485   7.850  18.259  0.00  0.00    +0.000 HD
ENDROOT
BRANCH   5  13
ATOM     13  C   UNL     1       5.094   6.291  17.129  0.00  0.00    +0.000 A 
ATOM     14  C   UNL     1       6.463   6.295  17.444  0.00  0.00    +0.000 A 
ATOM     15  C   UNL     1       7.391   5.697  16.602  0.00  0.00    +0.000 A 
ATOM     16  C   UNL     1       6.955   5.041  15.460  0.00  0.00    +0.000 A 
ATOM     17  F   UNL     1       7.870   4.501  14.641  0.00  0.00    +0.000 F 
ATOM     18  C   UNL     1       5.595   4.946  15.176  0.00  0.00    +0.000 A 
ATOM     19 CL   UNL     1       5.050   4.101  13.778  0.00  0.00    +0.000 Cl
ATOM     20  C   UNL     1       4.664   5.551  16.019  0.00  0.00    +0.000 A 
ENDBRANCH   5  13
BRANCH   1  23
ATOM     21  C   UNL     1       0.242  11.222  18.717  0.00  0.00    +0.000 C 
ATOM     22  O   UNL     1      -0.692  10.632  18.172  0.00  0.00    +0.000 OA
ATOM     23  N   UNL     1       1.179  10.630  19.530  0.00  0.00    +0.000 N 
ATOM     24  H   UNL     1       1.771  11.224  20.085  0.00  0.00    +0.000 HD
BRANCH  21  26
ATOM     25  C   UNL     1      -0.634  13.488  18.448  0.00  0.00    +0.000 C 
ATOM     26  C   UNL     1       0.461  12.703  18.506  0.00  0.00    +0.000 C 
ATOM     27  C   UNL     1       1.833  13.269  18.316  0.00  0.00    +0.000 C 
ENDBRANCH  21  26
ENDBRANCH   1  23
BRANCH  11  28
ATOM     28  O   UNL     1      -0.626   9.274  21.516  0.00  0.00    +0.000 OA
BRANCH  28  29
ATOM     29  C   UNL     1      -0.243   9.753  22.801  0.00  0.00    +0.000 C 
BRANCH  29  30
ATOM     30  C   UNL     1      -1.150  10.881  23.255  0.00  0.00    +0.000 C 
BRANCH  30  31
ATOM     31  C   UNL     1      -1.493  11.831  22.113  0.00  0.00    +0.000 C 
BRANCH  31  32
ATOM     32  N   UNL     1      -2.905  12.243  22.139  0.00  0.00    +0.000 NA
ATOM     33  C   UNL     1      -3.166  13.277  21.110  0.00  0.00    +0.000 C 
ATOM     34  C   UNL     1      -2.626  14.681  21.456  0.00  0.00    +0.000 C 
ATOM     35  O   UNL     1      -3.005  15.117  22.768  0.00  0.00    +0.000 OA
ATOM     36  C   UNL     1      -2.672  14.144  23.766  0.00  0.00    +0.000 C 
ATOM     37  C   UNL     1      -3.335  12.799  23.442  0.00  0.00    +0.000 C 
ENDBRANCH  31  32
ENDBRANCH  30  31
ENDBRANCH  29  30
ENDBRANCH  28  29
ENDBRANCH  11  28
TORSDOF 8
ENDMDL
