MODEL 1
REMARK VINA RESULT:      -8.7      0.000      0.000
REMARK  Name = 
REMARK  3 active torsions:
REMARK  status: ('A' for Active; 'I' for Inactive)
REMARK    1  A    between atoms: C_2  and  C_11
REMARK    2  A    between atoms: C_13  and  S_14
REMARK    3  A    between atoms: S_14  and  N_17
REMARK                            x       y       z     vdW  Elec       q    Type
REMARK                         _______ _______ _______ _____ _____    ______ ____
ROOT
ATOM      1  C   UNL     1       2.478   5.213  18.702  0.00  0.00    +0.000 A 
ATOM      2  C   UNL     1       3.477   5.728  17.849  0.00  0.00    +0.000 A 
ATOM      3  C   UNL     1       4.082   4.926  16.877  0.00  0.00    +0.000 A 
ATOM      4  C   UNL     1       3.658   3.607  16.702  0.00  0.00    +0.000 A 
ATOM      5  C   UNL     1       2.666   3.089  17.533  0.00  0.00    +0.000 A 
ATOM      6  C   UNL     1       2.079   3.879  18.540  0.00  0.00    +0.000 A 
ATOM      7 CL   UNL     1       0.908   3.089  19.536  0.00  0.00    +0.000 Cl
ENDROOT
BRANCH   1   9
ATOM      8  O   UNL     1       1.523   5.702  20.772  0.00  0.00    +0.000 OA
ATOM      9  C   UNL     1       1.987   6.172  19.736  0.00  0.00    +0.000 C 
ATOM     10  N   UNL     1       2.041   7.520  19.457  0.00  0.00    +0.000 N 
ATOM     11  C   UNL     1       1.461   8.475  20.293  0.00  0.00    +0.000 A 
ATOM     12  C   UNL     1       1.581   8.416  21.679  0.00  0.00    +0.000 A 
ATOM     13  C   UNL     1       0.881   9.337  22.455  0.00  0.00    +0.000 A 
ATOM     14  C   UNL     1       0.069  10.266  21.821  0.00  0.00    +0.000 A 
ATOM     15 CL   UNL     1      -0.888  11.359  22.734  0.00  0.00    +0.000 Cl
ATOM     16  C   UNL     1       0.043  10.280  20.434  0.00  0.00    +0.000 A 
ATOM     17  N   UNL     1       0.756   9.430  19.654  0.00  0.00    +0.000 NA
ATOM     18  H   UNL     1       2.073   7.810  18.488  0.00  0.00    +0.000 HD
ENDBRANCH   1   9
BRANCH   3  19
ATOM     19  S   UNL     1       5.338   5.628  15.814  0.00  0.00    +0.000 S 
ATOM     20  O   UNL     1       5.667   4.622  14.830  0.00  0.00    +0.000 OA
ATOM     21  O   UNL     1       4.875   6.943  15.421  0.00  0.00    +0.000 OA
BRANCH  19  22
ATOM     22  N   UNL     1       6.690   5.821  16.866  0.00  0.00    +0.000 NA
ATOM     23  C   UNL     1       6.836   7.182  17.454  0.00  0.00    +0.000 C 
ATOM     24  C   UNL     1       8.087   7.312  18.316  0.00  0.00    +0.000 C 
ATOM     25  C   UNL     1       8.150   6.204  19.355  0.00  0.00    +0.000 C 
ATOM     26  C   UNL     1       8.169   4.863  18.640  0.00  0.00    +0.000 C 
ATOM     27  C   UNL     1       6.918   4.680  17.792  0.00  0.00    +0.000 C 
ENDBRANCH  19  22
ENDBRANCH   3  19
TORSDOF 3
ENDMDL
MODEL 2
REMARK VINA RESULT:      -8.4      2.606      3.283
REMARK  Name = 
REMARK  3 active torsions:
REMARK  status: ('A' for Active; 'I' for Inactive)
REMARK    1  A    between atoms: C_2  and  C_11
REMARK    2  A    between atoms: C_13  and  S_14
REMARK    3  A    between atoms: S_14  and  N_17
REMARK                            x       y       z     vdW  Elec       q    Type
REMARK                         _______ _______ _______ _____ _____    ______ ____
ROOT
ATOM      1  C   UNL     1       3.447   6.058  17.976  0.00  0.00    +0.000 A 
ATOM      2  C   UNL     1       4.712   6.220  17.372  0.00  0.00    +0.000 A 
ATOM      3  C   UNL     1       5.507   5.115  17.052  0.00  0.00    +0.000 A 
ATOM      4  C   UNL     1       5.027   3.824  17.279  0.00  0.00    +0.000 A 
ATOM      5  C   UNL     1       3.774   3.651  17.867  0.00  0.00    +0.000 A 
ATOM      6  C   UNL     1       2.984   4.759  18.227  0.00  0.00    +0.000 A 
ATOM      7 CL   UNL     1       1.483   4.399  19.004  0.00  0.00    +0.000 Cl
ENDROOT
BRANCH   1   9
ATOM      8  O   UNL     1       3.006   8.322  17.636  0.00  0.00    +0.000 OA
ATOM      9  C   UNL     1       2.756   7.335  18.324  0.00  0.00    +0.000 C 
ATOM     10  N   UNL     1       1.916   7.349  19.416  0.00  0.00    +0.000 N 
ATOM     11  C   UNL     1       1.356   8.528  19.908  0.00  0.00    +0.000 A 
ATOM     12  C   UNL     1       0.825   9.502  19.067  0.00  0.00    +0.000 A 
ATOM     13  C   UNL     1       0.388  10.704  19.620  0.00  0.00    +0.000 A 
ATOM     14  C   UNL     1       0.519  10.898  20.988  0.00  0.00    +0.000 A 
ATOM     15 CL   UNL     1       0.085  12.395  21.704  0.00  0.00    +0.000 Cl
ATOM     16  C   UNL     1       1.019   9.856  21.755  0.00  0.00    +0.000 A 
ATOM     17  N   UNL     1       1.402   8.658  21.249  0.00  0.00    +0.000 NA
ATOM     18  H   UNL     1       2.045   6.644  20.131  0.00  0.00    +0.000 HD
ENDBRANCH   1   9
BRANCH   3  19
ATOM     19  S   UNL     1       7.100   5.372  16.280  0.00  0.00    +0.000 S 
ATOM     20  O   UNL     1       7.425   6.770  16.441  0.00  0.00    +0.000 OA
ATOM     21  O   UNL     1       7.982   4.332  16.768  0.00  0.00    +0.000 OA
BRANCH  19  22
ATOM     22  N   UNL     1       6.787   5.076  14.610  0.00  0.00    +0.000 NA
ATOM     23  C   UNL     1       7.913   5.406  13.693  0.00  0.00    +0.000 C 
ATOM     24  C   UNL     1       7.553   5.193  12.228  0.00  0.00    +0.000 C 
ATOM     25  C   UNL     1       6.991   3.798  12.002  0.00  0.00    +0.000 C 
ATOM     26  C   UNL     1       5.745   3.629  12.856  0.00  0.00    +0.000 C 
ATOM     27  C   UNL     1       6.070   3.803  14.334  0.00  0.00    +0.000 C 
ENDBRANCH  19  22
ENDBRANCH   3  19
TORSDOF 3
ENDMDL
MODEL 3
REMARK VINA RESULT:      -8.2      2.498      3.086
REMARK  Name = 
REMARK  3 active torsions:
REMARK  status: ('A' for Active; 'I' for Inactive)
REMARK    1  A    between atoms: C_2  and  C_11
REMARK    2  A    between atoms: C_13  and  S_14
REMARK    3  A    between atoms: S_14  and  N_17
REMARK                            x       y       z     vdW  Elec       q    Type
REMARK                         _______ _______ _______ _____ _____    ______ ____
ROOT
ATOM      1  C   UNL     1       3.236   5.314  18.201  0.00  0.00    +0.000 A 
ATOM      2  C   UNL     1       4.459   5.730  17.632  0.00  0.00    +0.000 A 
ATOM      3  C   UNL     1       5.307   4.820  16.994  0.00  0.00    +0.000 A 
ATOM      4  C   UNL     1       4.921   3.484  16.864  0.00  0.00    +0.000 A 
ATOM      5  C   UNL     1       3.711   3.062  17.415  0.00  0.00    +0.000 A 
ATOM      6  C   UNL     1       2.869   3.965  18.092  0.00  0.00    +0.000 A 
ATOM      7 CL   UNL     1       1.432   3.293  18.778  0.00  0.00    +0.000 Cl
ENDROOT
BRANCH   1   9
ATOM      8  O   UNL     1       1.905   6.084  19.953  0.00  0.00    +0.000 OA
ATOM      9  C   UNL     1       2.482   6.389  18.912  0.00  0.00    +0.000 C 
ATOM     10  N   UNL     1       2.439   7.644  18.345  0.00  0.00    +0.000 N 
ATOM     11  C   UNL     1       1.632   8.662  18.853  0.00  0.00    +0.000 A 
ATOM     12  C   UNL     1       1.526   8.910  20.219  0.00  0.00    +0.000 A 
ATOM     13  C   UNL     1       0.614   9.865  20.662  0.00  0.00    +0.000 A 
ATOM     14  C   UNL     1      -0.175  10.520  19.727  0.00  0.00    +0.000 A 
ATOM     15 CL   UNL     1      -1.379  11.635  20.226  0.00  0.00    +0.000 Cl
ATOM     16  C   UNL     1       0.028  10.241  18.384  0.00  0.00    +0.000 A 
ATOM     17  N   UNL     1       0.946   9.356  17.923  0.00  0.00    +0.000 NA
ATOM     18  H   UNL     1       2.601   7.727  17.349  0.00  0.00    +0.000 HD
ENDBRANCH   1   9
BRANCH   3  19
ATOM     19  S   UNL     1       6.842   5.398  16.281  0.00  0.00    +0.000 S 
ATOM     20  O   UNL     1       6.883   6.829  16.477  0.00  0.00    +0.000 OA
ATOM     21  O   UNL     1       7.893   4.539  16.782  0.00  0.00    +0.000 OA
BRANCH  19  22
ATOM     22  N   UNL     1       6.643   5.086  14.597  0.00  0.00    +0.000 NA
ATOM     23  C   UNL     1       7.836   5.389  13.759  0.00  0.00    +0.000 C 
ATOM     24  C   UNL     1       7.577   5.162  12.274  0.00  0.00    +0.000 C 
ATOM     25  C   UNL     1       7.011   3.773  12.025  0.00  0.00    +0.000 C 
ATOM     26  C   UNL     1       5.706   3.632  12.791  0.00  0.00    +0.000 C 
ATOM     27  C   UNL     1       5.928   3.819  14.286  0.00  0.00    +0.000 C 
ENDBRANCH  19  22
ENDBRANCH   3  19
TORSDOF 3
ENDMDL
MODEL 4
REMARK VINA RESULT:      -7.9      0.669      1.215
REMARK  Name = 
REMARK  3 active torsions:
REMARK  status: ('A' for Active; 'I' for Inactive)
REMARK    1  A    between atoms: C_2  and  C_11
REMARK    2  A    between atoms: C_13  and  S_14
REMARK    3  A    between atoms: S_14  and  N_17
REMARK                            x       y       z     vdW  Elec       q    Type
REMARK                         _______ _______ _______ _____ _____    ______ ____
ROOT
ATOM      1  C   UNL     1       2.431   4.869  18.855  0.00  0.00    +0.000 A 
ATOM      2  C   UNL     1       3.553   5.263  18.094  0.00  0.00    +0.000 A 
ATOM      3  C   UNL     1       4.169   4.378  17.203  0.00  0.00    +0.000 A 
ATOM      4  C   UNL     1       3.639   3.100  17.015  0.00  0.00    +0.000 A 
ATOM      5  C   UNL     1       2.526   2.703  17.754  0.00  0.00    +0.000 A 
ATOM      6  C   UNL     1       1.923   3.575  18.681  0.00  0.00    +0.000 A 
ATOM      7 CL   UNL     1       0.591   2.929  19.573  0.00  0.00    +0.000 Cl
ENDROOT
BRANCH   1   9
ATOM      8  O   UNL     1       1.310   5.509  20.796  0.00  0.00    +0.000 OA
ATOM      9  C   UNL     1       1.937   5.901  19.815  0.00  0.00    +0.000 C 
ATOM     10  N   UNL     1       2.173   7.228  19.529  0.00  0.00    +0.000 N 
ATOM     11  C   UNL     1       1.614   8.260  20.282  0.00  0.00    +0.000 A 
ATOM     12  C   UNL     1       1.570   8.222  21.673  0.00  0.00    +0.000 A 
ATOM     13  C   UNL     1       0.894   9.232  22.354  0.00  0.00    +0.000 A 
ATOM     14  C   UNL     1       0.268  10.230  21.621  0.00  0.00    +0.000 A 
ATOM     15 CL   UNL     1      -0.656  11.443  22.406  0.00  0.00    +0.000 Cl
ATOM     16  C   UNL     1       0.400  10.213  20.240  0.00  0.00    +0.000 A 
ATOM     17  N   UNL     1       1.097   9.272  19.556  0.00  0.00    +0.000 NA
ATOM     18  H   UNL     1       2.346   7.489  18.567  0.00  0.00    +0.000 HD
ENDBRANCH   1   9
BRANCH   3  19
ATOM     19  S   UNL     1       5.583   4.927  16.255  0.00  0.00    +0.000 S 
ATOM     20  O   UNL     1       6.435   3.776  16.065  0.00  0.00    +0.000 OA
ATOM     21  O   UNL     1       5.073   5.680  15.129  0.00  0.00    +0.000 OA
BRANCH  19  22
ATOM     22  N   UNL     1       6.380   6.022  17.323  0.00  0.00    +0.000 NA
ATOM     23  C   UNL     1       7.408   5.401  18.203  0.00  0.00    +0.000 C 
ATOM     24  C   UNL     1       8.026   6.402  19.173  0.00  0.00    +0.000 C 
ATOM     25  C   UNL     1       8.535   7.631  18.438  0.00  0.00    +0.000 C 
ATOM     26  C   UNL     1       7.369   8.285  17.713  0.00  0.00    +0.000 C 
ATOM     27  C   UNL     1       6.744   7.326  16.709  0.00  0.00    +0.000 C 
ENDBRANCH  19  22
ENDBRANCH   3  19
TORSDOF 3
ENDMDL
MODEL 5
REMARK VINA RESULT:      -7.9      3.915      8.590
REMARK  Name = 
REMARK  3 active torsions:
REMARK  status: ('A' for Active; 'I' for Inactive)
REMARK    1  A    between atoms: C_2  and  C_11
REMARK    2  A    between atoms: C_13  and  S_14
REMARK    3  A    between atoms: S_14  and  N_17
REMARK                            x       y       z     vdW  Elec       q    Type
REMARK                         _______ _______ _______ _____ _____    ______ ____
ROOT
ATOM      1  C   UNL     1       1.925   8.048  19.262  0.00  0.00    +0.000 A 
ATOM      2  C   UNL     1       1.341   9.317  19.059  0.00  0.00    +0.000 A 
ATOM      3  C   UNL     1       0.451   9.860  19.992  0.00  0.00    +0.000 A 
ATOM      4  C   UNL     1       0.173   9.168  21.172  0.00  0.00    +0.000 A 
ATOM      5  C   UNL     1       0.751   7.918  21.387  0.00  0.00    +0.000 A 
ATOM      6  C   UNL     1       1.618   7.347  20.436  0.00  0.00    +0.000 A 
ATOM      7 CL   UNL     1       2.211   5.765  20.804  0.00  0.00    +0.000 Cl
ENDROOT
BRANCH   1   9
ATOM      8  O   UNL     1       2.694   8.159  17.064  0.00  0.00    +0.000 OA
ATOM      9  C   UNL     1       2.791   7.576  18.141  0.00  0.00    +0.000 C 
ATOM     10  N   UNL     1       3.614   6.493  18.360  0.00  0.00    +0.000 N 
ATOM     11  C   UNL     1       4.335   5.887  17.330  0.00  0.00    +0.000 A 
ATOM     12  C   UNL     1       5.010   6.629  16.364  0.00  0.00    +0.000 A 
ATOM     13  C   UNL     1       5.612   5.960  15.300  0.00  0.00    +0.000 A 
ATOM     14  C   UNL     1       5.498   4.579  15.228  0.00  0.00    +0.000 A 
ATOM     15 CL   UNL     1       6.138   3.717  13.891  0.00  0.00    +0.000 Cl
ATOM     16  C   UNL     1       4.844   3.918  16.258  0.00  0.00    +0.000 A 
ATOM     17  N   UNL     1       4.296   4.540  17.331  0.00  0.00    +0.000 NA
ATOM     18  H   UNL     1       3.377   5.852  19.107  0.00  0.00    +0.000 HD
ENDBRANCH   1   9
BRANCH   3  19
ATOM     19  S   UNL     1      -0.256  11.476  19.694  0.00  0.00    +0.000 S 
ATOM     20  O   UNL     1      -0.394  12.118  20.981  0.00  0.00    +0.000 OA
ATOM     21  O   UNL     1       0.510  12.085  18.627  0.00  0.00    +0.000 OA
BRANCH  19  22
ATOM     22  N   UNL     1      -1.832  11.118  19.094  0.00  0.00    +0.000 NA
ATOM     23  C   UNL     1      -2.822  12.221  19.237  0.00  0.00    +0.000 C 
ATOM     24  C   UNL     1      -4.212  11.822  18.756  0.00  0.00    +0.000 C 
ATOM     25  C   UNL     1      -4.159  11.248  17.350  0.00  0.00    +0.000 C 
ATOM     26  C   UNL     1      -3.257  10.024  17.355  0.00  0.00    +0.000 C 
ATOM     27  C   UNL     1      -1.847  10.389  17.798  0.00  0.00    +0.000 C 
ENDBRANCH  19  22
ENDBRANCH   3  19
TORSDOF 3
ENDMDL
MODEL 6
REMARK VINA RESULT:      -7.8      2.263      2.945
REMARK  Name = 
REMARK  3 active torsions:
REMARK  status: ('A' for Active; 'I' for Inactive)
REMARK    1  A    between atoms: C_2  and  C_11
REMARK    2  A    between atoms: C_13  and  S_14
REMARK    3  A    between atoms: S_14  and  N_17
REMARK                            x       y       z     vdW  Elec       q    Type
REMARK                         _______ _______ _______ _____ _____    ______ ____
ROOT
ATOM      1  C   UNL     1       2.939   5.736  19.632  0.00  0.00    +0.000 A 
ATOM      2  C   UNL     1       4.192   6.009  19.040  0.00  0.00    +0.000 A 
ATOM      3  C   UNL     1       5.097   4.981  18.758  0.00  0.00    +0.000 A 
ATOM      4  C   UNL     1       4.743   3.654  19.010  0.00  0.00    +0.000 A 
ATOM      5  C   UNL     1       3.505   3.371  19.586  0.00  0.00    +0.000 A 
ATOM      6  C   UNL     1       2.604   4.404  19.909  0.00  0.00    +0.000 A 
ATOM      7 CL   UNL     1       1.134   3.914  20.676  0.00  0.00    +0.000 Cl
ENDROOT
BRANCH   1   9
ATOM      8  O   UNL     1       1.474   6.942  20.985  0.00  0.00    +0.000 OA
ATOM      9  C   UNL     1       2.121   6.946  19.940  0.00  0.00    +0.000 C 
ATOM     10  N   UNL     1       2.101   7.975  19.025  0.00  0.00    +0.000 N 
ATOM     11  C   UNL     1       1.245   9.069  19.154  0.00  0.00    +0.000 A 
ATOM     12  C   UNL     1       1.036   9.705  20.374  0.00  0.00    +0.000 A 
ATOM     13  C   UNL     1       0.081  10.715  20.453  0.00  0.00    +0.000 A 
ATOM     14  C   UNL     1      -0.647  11.037  19.316  0.00  0.00    +0.000 A 
ATOM     15 CL   UNL     1      -1.900  12.206  19.382  0.00  0.00    +0.000 Cl
ATOM     16  C   UNL     1      -0.343  10.381  18.133  0.00  0.00    +0.000 A 
ATOM     17  N   UNL     1       0.619   9.432  18.017  0.00  0.00    +0.000 NA
ATOM     18  H   UNL     1       2.334   7.766  18.061  0.00  0.00    +0.000 HD
ENDBRANCH   1   9
BRANCH   3  19
ATOM     19  S   UNL     1       6.668   5.376  17.999  0.00  0.00    +0.000 S 
ATOM     20  O   UNL     1       6.928   6.771  18.273  0.00  0.00    +0.000 OA
ATOM     21  O   UNL     1       7.603   4.344  18.396  0.00  0.00    +0.000 OA
BRANCH  19  22
ATOM     22  N   UNL     1       6.353   5.204  16.313  0.00  0.00    +0.000 NA
ATOM     23  C   UNL     1       7.562   5.010  15.466  0.00  0.00    +0.000 C 
ATOM     24  C   UNL     1       7.228   4.936  13.981  0.00  0.00    +0.000 C 
ATOM     25  C   UNL     1       6.145   3.902  13.717  0.00  0.00    +0.000 C 
ATOM     26  C   UNL     1       4.898   4.291  14.495  0.00  0.00    +0.000 C 
ATOM     27  C   UNL     1       5.183   4.344  15.990  0.00  0.00    +0.000 C 
ENDBRANCH  19  22
ENDBRANCH   3  19
TORSDOF 3
ENDMDL
MODEL 7
REMARK VINA RESULT:      -7.7      3.966      8.586
REMARK  Name = 
REMARK  3 active torsions:
REMARK  status: ('A' for Active; 'I' for Inactive)
REMARK    1  A    between atoms: C_2  and  C_11
REMARK    2  A    between atoms: C_13  and  S_14
REMARK    3  A    between atoms: S_14  and  N_17
REMARK                            x       y       z     vdW  Elec       q    Type
REMARK                         _______ _______ _______ _____ _____    ______ ____
ROOT
ATOM      1  C   UNL     1       1.796   8.389  19.209  0.00  0.00    +0.000 A 
ATOM      2  C   UNL     1       1.308   9.688  18.946  0.00  0.00    +0.000 A 
ATOM      3  C   UNL     1       0.397  10.306  19.808  0.00  0.00    +0.000 A 
ATOM      4  C   UNL     1      -0.000   9.659  20.980  0.00  0.00    +0.000 A 
ATOM      5  C   UNL     1       0.482   8.380  21.255  0.00  0.00    +0.000 A 
ATOM      6  C   UNL     1       1.370   7.735  20.373  0.00  0.00    +0.000 A 
ATOM      7 CL   UNL     1       1.837   6.129  20.808  0.00  0.00    +0.000 Cl
ENDROOT
BRANCH   1   9
ATOM      8  O   UNL     1       2.707   8.401  17.063  0.00  0.00    +0.000 OA
ATOM      9  C   UNL     1       2.701   7.839  18.156  0.00  0.00    +0.000 C 
ATOM     10  N   UNL     1       3.442   6.716  18.450  0.00  0.00    +0.000 N 
ATOM     11  C   UNL     1       4.189   6.044  17.482  0.00  0.00    +0.000 A 
ATOM     12  C   UNL     1       4.966   6.720  16.545  0.00  0.00    +0.000 A 
ATOM     13  C   UNL     1       5.592   5.991  15.537  0.00  0.00    +0.000 A 
ATOM     14  C   UNL     1       5.400   4.617  15.487  0.00  0.00    +0.000 A 
ATOM     15 CL   UNL     1       6.070   3.687  14.212  0.00  0.00    +0.000 Cl
ATOM     16  C   UNL     1       4.645   4.022  16.487  0.00  0.00    +0.000 A 
ATOM     17  N   UNL     1       4.069   4.701  17.509  0.00  0.00    +0.000 NA
ATOM     18  H   UNL     1       3.121   6.109  19.194  0.00  0.00    +0.000 HD
ENDBRANCH   1   9
BRANCH   3  19
ATOM     19  S   UNL     1      -0.186  11.955  19.435  0.00  0.00    +0.000 S 
ATOM     20  O   UNL     1      -0.551  12.566  20.692  0.00  0.00    +0.000 OA
ATOM     21  O   UNL     1       0.792  12.563  18.557  0.00  0.00    +0.000 OA
BRANCH  19  22
ATOM     22  N   UNL     1      -1.627  11.675  18.529  0.00  0.00    +0.000 NA
ATOM     23  C   UNL     1      -1.618  10.433  17.707  0.00  0.00    +0.000 C 
ATOM     24  C   UNL     1      -2.886  10.276  16.875  0.00  0.00    +0.000 C 
ATOM     25  C   UNL     1      -4.127  10.407  17.744  0.00  0.00    +0.000 C 
ATOM     26  C   UNL     1      -4.122  11.777  18.401  0.00  0.00    +0.000 C 
ATOM     27  C   UNL     1      -2.885  11.961  19.269  0.00  0.00    +0.000 C 
ENDBRANCH  19  22
ENDBRANCH   3  19
TORSDOF 3
ENDMDL
MODEL 8
REMARK VINA RESULT:      -7.5      2.152      2.890
REMARK  Name = 
REMARK  3 active torsions:
REMARK  status: ('A' for Active; 'I' for Inactive)
REMARK    1  A    between atoms: C_2  and  C_11
REMARK    2  A    between atoms: C_13  and  S_14
REMARK    3  A    between atoms: S_14  and  N_17
REMARK                            x       y       z     vdW  Elec       q    Type
REMARK                         _______ _______ _______ _____ _____    ______ ____
ROOT
ATOM      1  C   UNL     1       2.980   5.033  19.993  0.00  0.00    +0.000 A 
ATOM      2  C   UNL     1       4.141   5.468  19.318  0.00  0.00    +0.000 A 
ATOM      3  C   UNL     1       5.159   4.572  18.979  0.00  0.00    +0.000 A 
ATOM      4  C   UNL     1       5.009   3.212  19.257  0.00  0.00    +0.000 A 
ATOM      5  C   UNL     1       3.863   2.768  19.915  0.00  0.00    +0.000 A 
ATOM      6  C   UNL     1       2.851   3.670  20.295  0.00  0.00    +0.000 A 
ATOM      7 CL   UNL     1       1.516   2.992  21.159  0.00  0.00    +0.000 Cl
ENDROOT
BRANCH   1   9
ATOM      8  O   UNL     1       0.969   5.796  20.892  0.00  0.00    +0.000 OA
ATOM      9  C   UNL     1       2.024   6.122  20.352  0.00  0.00    +0.000 C 
ATOM     10  N   UNL     1       2.355   7.418  20.024  0.00  0.00    +0.000 N 
ATOM     11  C   UNL     1       1.457   8.475  20.177  0.00  0.00    +0.000 A 
ATOM     12  C   UNL     1       0.660   8.611  21.311  0.00  0.00    +0.000 A 
ATOM     13  C   UNL     1      -0.295   9.625  21.345  0.00  0.00    +0.000 A 
ATOM     14  C   UNL     1      -0.436  10.449  20.238  0.00  0.00    +0.000 A 
ATOM     15 CL   UNL     1      -1.660  11.650  20.191  0.00  0.00    +0.000 Cl
ATOM     16  C   UNL     1       0.430  10.269  19.169  0.00  0.00    +0.000 A 
ATOM     17  N   UNL     1       1.403   9.326  19.132  0.00  0.00    +0.000 NA
ATOM     18  H   UNL     1       3.021   7.571  19.277  0.00  0.00    +0.000 HD
ENDBRANCH   1   9
BRANCH   3  19
ATOM     19  S   UNL     1       6.608   5.171  18.117  0.00  0.00    +0.000 S 
ATOM     20  O   UNL     1       6.485   6.608  18.038  0.00  0.00    +0.000 OA
ATOM     21  O   UNL     1       7.758   4.545  18.733  0.00  0.00    +0.000 OA
BRANCH  19  22
ATOM     22  N   UNL     1       6.424   4.523  16.529  0.00  0.00    +0.000 NA
ATOM     23  C   UNL     1       5.017   4.256  16.120  0.00  0.00    +0.000 C 
ATOM     24  C   UNL     1       4.923   3.619  14.739  0.00  0.00    +0.000 C 
ATOM     25  C   UNL     1       5.699   4.427  13.711  0.00  0.00    +0.000 C 
ATOM     26  C   UNL     1       7.156   4.491  14.138  0.00  0.00    +0.000 C 
ATOM     27  C   UNL     1       7.296   5.153  15.502  0.00  0.00    +0.000 C 
ENDBRANCH  19  22
ENDBRANCH   3  19
TORSDOF 3
ENDMDL
MODEL 9
REMARK VINA RESULT:      -7.5      3.817      8.792
REMARK  Name = 
REMARK  3 active torsions:
REMARK  status: ('A' for Active; 'I' for Inactive)
REMARK    1  A    between atoms: C_2  and  C_11
REMARK    2  A    between atoms: C_13  and  S_14
REMARK    3  A    between atoms: S_14  and  N_17
REMARK                            x       y       z     vdW  Elec       q    Type
REMARK                         _______ _______ _______ _____ _____    ______ ____
ROOT
ATOM      1  C   UNL     1       1.855   8.188  19.505  0.00  0.00    +0.000 A 
ATOM      2  C   UNL     1       1.517   9.558  19.468  0.00  0.00    +0.000 A 
ATOM      3  C   UNL     1       0.690  10.125  20.443  0.00  0.00    +0.000 A 
ATOM      4  C   UNL     1       0.230   9.343  21.504  0.00  0.00    +0.000 A 
ATOM      5  C   UNL     1       0.564   7.990  21.556  0.00  0.00    +0.000 A 
ATOM      6  C   UNL     1       1.365   7.404  20.558  0.00  0.00    +0.000 A 
ATOM      7 CL   UNL     1       1.647   5.705  20.714  0.00  0.00    +0.000 Cl
ENDROOT
BRANCH   1   9
ATOM      8  O   UNL     1       2.528   8.290  17.275  0.00  0.00    +0.000 OA
ATOM      9  C   UNL     1       2.682   7.720  18.352  0.00  0.00    +0.000 C 
ATOM     10  N   UNL     1       3.534   6.656  18.547  0.00  0.00    +0.000 N 
ATOM     11  C   UNL     1       4.223   6.053  17.495  0.00  0.00    +0.000 A 
ATOM     12  C   UNL     1       4.841   6.796  16.493  0.00  0.00    +0.000 A 
ATOM     13  C   UNL     1       5.411   6.128  15.412  0.00  0.00    +0.000 A 
ATOM     14  C   UNL     1       5.322   4.744  15.358  0.00  0.00    +0.000 A 
ATOM     15 CL   UNL     1       5.922   3.880  14.004  0.00  0.00    +0.000 Cl
ATOM     16  C   UNL     1       4.725   4.082  16.422  0.00  0.00    +0.000 A 
ATOM     17  N   UNL     1       4.211   4.705  17.511  0.00  0.00    +0.000 NA
ATOM     18  H   UNL     1       3.342   6.018  19.310  0.00  0.00    +0.000 HD
ENDBRANCH   1   9
BRANCH   3  19
ATOM     19  S   UNL     1       0.298  11.868  20.358  0.00  0.00    +0.000 S 
ATOM     20  O   UNL     1       1.250  12.555  21.200  0.00  0.00    +0.000 OA
ATOM     21  O   UNL     1       0.152  12.203  18.957  0.00  0.00    +0.000 OA
BRANCH  19  22
ATOM     22  N   UNL     1      -1.255  11.965  21.102  0.00  0.00    +0.000 NA
ATOM     23  C   UNL     1      -1.232  12.253  22.563  0.00  0.00    +0.000 C 
ATOM     24  C   UNL     1      -2.626  12.255  23.178  0.00  0.00    +0.000 C 
ATOM     25  C   UNL     1      -3.562  13.172  22.405  0.00  0.00    +0.000 C 
ATOM     26  C   UNL     1      -3.646  12.685  20.968  0.00  0.00    +0.000 C 
ATOM     27  C   UNL     1      -2.274  12.699  20.306  0.00  0.00    +0.000 C 
ENDBRANCH  19  22
ENDBRANCH   3  19
TORSDOF 3
ENDMDL
