MODEL 1
REMARK VINA RESULT:      -6.9      0.000      0.000
REMARK  Name = 
REMARK  8 active torsions:
REMARK  status: ('A' for Active; 'I' for Inactive)
REMARK    1  A    between atoms: C_1  and  O_2
REMARK    2  A    between atoms: O_2  and  C_3
REMARK    3  A    between atoms: C_9  and  N_10
REMARK    4  A    between atoms: C_11  and  C_13
REMARK    5  A    between atoms: C_13  and  C_14
REMARK    6  A    between atoms: C_14  and  C_15
REMARK    7  A    between atoms: C_15  and  C_16
REMARK    8  A    between atoms: C_16  and  C_18
REMARK                            x       y       z     vdW  Elec       q    Type
REMARK                         _______ _______ _______ _____ _____    ______ ____
ROOT
ATOM      1  N   UNL     1       3.770   5.361  17.865  0.00  0.00    +0.000 N 
ATOM      2  C   UNL     1       3.286   6.652  18.024  0.00  0.00    +0.000 C 
ATOM      3  O   UNL     1       3.738   7.668  17.499  0.00  0.00    +0.000 OA
ATOM      4  H   UNL     1       3.193   4.585  18.170  0.00  0.00    +0.000 HD
ENDROOT
BRANCH   1  11
ATOM      5  C   UNL     1       6.200   5.031  17.733  0.00  0.00    +0.000 A 
ATOM      6  C   UNL     1       7.328   4.610  17.009  0.00  0.00    +0.000 A 
ATOM      7  C   UNL     1       7.211   4.211  15.677  0.00  0.00    +0.000 A 
ATOM      8  C   UNL     1       5.970   4.237  15.059  0.00  0.00    +0.000 A 
ATOM      9 CL   UNL     1       5.829   3.789  13.406  0.00  0.00    +0.000 Cl
ATOM     10  C   UNL     1       4.839   4.626  15.772  0.00  0.00    +0.000 A 
ATOM     11  C   UNL     1       4.928   5.000  17.121  0.00  0.00    +0.000 A 
BRANCH   5  13
ATOM     12  C   UNL     1       7.574   5.685  19.570  0.00  0.00    +0.000 C 
ATOM     13  O   UNL     1       6.262   5.461  19.041  0.00  0.00    +0.000 OA
ENDBRANCH   5  13
ENDBRANCH   1  11
BRANCH   2  14
ATOM     14  C   UNL     1       2.109   6.780  18.967  0.00  0.00    +0.000 C 
BRANCH  14  15
ATOM     15  C   UNL     1       2.457   6.166  20.324  0.00  0.00    +0.000 C 
BRANCH  15  16
ATOM     16  C   UNL     1       1.415   5.167  20.831  0.00  0.00    +0.000 C 
BRANCH  16  17
ATOM     17  C   UNL     1       1.998   3.798  21.146  0.00  0.00    +0.000 C 
ATOM     18  O   UNL     1       1.998   3.334  22.285  0.00  0.00    +0.000 OA
BRANCH  17  19
ATOM     19  C   UNL     1       2.586   2.989  20.035  0.00  0.00    +0.000 A 
ATOM     20  C   UNL     1       3.888   2.477  20.086  0.00  0.00    +0.000 A 
ATOM     21  C   UNL     1       4.401   1.762  18.999  0.00  0.00    +0.000 A 
ATOM     22  C   UNL     1       3.618   1.550  17.865  0.00  0.00    +0.000 A 
ATOM     23  C   UNL     1       2.317   2.045  17.815  0.00  0.00    +0.000 A 
ATOM     24  C   UNL     1       1.803   2.762  18.893  0.00  0.00    +0.000 A 
ENDBRANCH  17  19
ENDBRANCH  16  17
ENDBRANCH  15  16
ENDBRANCH  14  15
ENDBRANCH   2  14
TORSDOF 7
ENDMDL
MODEL 2
REMARK VINA RESULT:      -6.9      4.343      8.110
REMARK  Name = 
REMARK  8 active torsions:
REMARK  status: ('A' for Active; 'I' for Inactive)
REMARK    1  A    between atoms: C_1  and  O_2
REMARK    2  A    between atoms: O_2  and  C_3
REMARK    3  A    between atoms: C_9  and  N_10
REMARK    4  A    between atoms: C_11  and  C_13
REMARK    5  A    between atoms: C_13  and  C_14
REMARK    6  A    between atoms: C_14  and  C_15
REMARK    7  A    between atoms: C_15  and  C_16
REMARK    8  A    between atoms: C_16  and  C_18
REMARK                            x       y       z     vdW  Elec       q    Type
REMARK                         _______ _______ _______ _____ _____    ______ ____
ROOT
ATOM      1  N   UNL     1       5.132   5.557  18.145  0.00  0.00    +0.000 N 
ATOM      2  C   UNL     1       6.397   5.573  18.715  0.00  0.00    +0.000 C 
ATOM      3  O   UNL     1       6.670   5.320  19.888  0.00  0.00    +0.000 OA
ATOM      4  H   UNL     1       5.055   5.570  17.134  0.00  0.00    +0.000 HD
ENDROOT
BRANCH   1  11
ATOM      5  C   UNL     1       3.368   4.014  18.879  0.00  0.00    +0.000 A 
ATOM      6  C   UNL     1       2.202   3.773  19.626  0.00  0.00    +0.000 A 
ATOM      7  C   UNL     1       1.553   4.815  20.288  0.00  0.00    +0.000 A 
ATOM      8  C   UNL     1       2.059   6.104  20.203  0.00  0.00    +0.000 A 
ATOM      9 CL   UNL     1       1.238   7.397  20.981  0.00  0.00    +0.000 Cl
ATOM     10  C   UNL     1       3.228   6.353  19.490  0.00  0.00    +0.000 A 
ATOM     11  C   UNL     1       3.916   5.315  18.843  0.00  0.00    +0.000 A 
BRANCH   5  13
ATOM     12  C   UNL     1       3.486   1.708  18.280  0.00  0.00    +0.000 C 
ATOM     13  O   UNL     1       4.034   3.028  18.184  0.00  0.00    +0.000 OA
ENDBRANCH   5  13
ENDBRANCH   1  11
BRANCH   2  14
ATOM     14  C   UNL     1       7.514   5.978  17.778  0.00  0.00    +0.000 C 
BRANCH  14  15
ATOM     15  C   UNL     1       7.479   7.489  17.543  0.00  0.00    +0.000 C 
BRANCH  15  16
ATOM     16  C   UNL     1       8.423   8.274  18.456  0.00  0.00    +0.000 C 
BRANCH  16  17
ATOM     17  C   UNL     1       8.433   9.767  18.168  0.00  0.00    +0.000 C 
ATOM     18  O   UNL     1       7.579  10.303  17.462  0.00  0.00    +0.000 OA
BRANCH  17  19
ATOM     19  C   UNL     1       9.511  10.613  18.767  0.00  0.00    +0.000 A 
ATOM     20  C   UNL     1      10.603  11.075  18.023  0.00  0.00    +0.000 A 
ATOM     21  C   UNL     1      11.603  11.828  18.645  0.00  0.00    +0.000 A 
ATOM     22  C   UNL     1      11.516  12.126  20.004  0.00  0.00    +0.000 A 
ATOM     23  C   UNL     1      10.425  11.680  20.747  0.00  0.00    +0.000 A 
ATOM     24  C   UNL     1       9.427  10.925  20.131  0.00  0.00    +0.000 A 
ENDBRANCH  17  19
ENDBRANCH  16  17
ENDBRANCH  15  16
ENDBRANCH  14  15
ENDBRANCH   2  14
TORSDOF 7
ENDMDL
MODEL 3
REMARK VINA RESULT:      -6.8      0.083      1.011
REMARK  Name = 
REMARK  8 active torsions:
REMARK  status: ('A' for Active; 'I' for Inactive)
REMARK    1  A    between atoms: C_1  and  O_2
REMARK    2  A    between atoms: O_2  and  C_3
REMARK    3  A    between atoms: C_9  and  N_10
REMARK    4  A    between atoms: C_11  and  C_13
REMARK    5  A    between atoms: C_13  and  C_14
REMARK    6  A    between atoms: C_14  and  C_15
REMARK    7  A    between atoms: C_15  and  C_16
REMARK    8  A    between atoms: C_16  and  C_18
REMARK                            x       y       z     vdW  Elec       q    Type
REMARK                         _______ _______ _______ _____ _____    ______ ____
ROOT
ATOM      1  N   UNL     1       3.737   5.355  17.819  0.00  0.00    +0.000 N 
ATOM      2  C   UNL     1       3.294   6.656  18.015  0.00  0.00    +0.000 C 
ATOM      3  O   UNL     1       3.798   7.674  17.544  0.00  0.00    +0.000 OA
ATOM      4  H   UNL     1       3.124   4.590  18.076  0.00  0.00    +0.000 HD
ENDROOT
BRANCH   1  11
ATOM      5  C   UNL     1       6.164   4.989  17.731  0.00  0.00    +0.000 A 
ATOM      6  C   UNL     1       7.299   4.555  17.025  0.00  0.00    +0.000 A 
ATOM      7  C   UNL     1       7.201   4.166  15.689  0.00  0.00    +0.000 A 
ATOM      8  C   UNL     1       5.972   4.215  15.047  0.00  0.00    +0.000 A 
ATOM      9 CL   UNL     1       5.856   3.779  13.390  0.00  0.00    +0.000 Cl
ATOM     10  C   UNL     1       4.834   4.617  15.742  0.00  0.00    +0.000 A 
ATOM     11  C   UNL     1       4.903   4.981  17.094  0.00  0.00    +0.000 A 
BRANCH   5  13
ATOM     12  C   UNL     1       7.505   5.726  19.561  0.00  0.00    +0.000 C 
ATOM     13  O   UNL     1       6.207   5.409  19.042  0.00  0.00    +0.000 OA
ENDBRANCH   5  13
ENDBRANCH   1  11
BRANCH   2  14
ATOM     14  C   UNL     1       2.095   6.790  18.928  0.00  0.00    +0.000 C 
BRANCH  14  15
ATOM     15  C   UNL     1       2.443   6.281  20.328  0.00  0.00    +0.000 C 
BRANCH  15  16
ATOM     16  C   UNL     1       1.441   5.264  20.878  0.00  0.00    +0.000 C 
BRANCH  16  17
ATOM     17  C   UNL     1       2.057   3.899  21.147  0.00  0.00    +0.000 C 
ATOM     18  O   UNL     1       2.157   3.440  22.284  0.00  0.00    +0.000 OA
BRANCH  17  19
ATOM     19  C   UNL     1       2.551   3.088  19.993  0.00  0.00    +0.000 A 
ATOM     20  C   UNL     1       1.766   2.836  18.861  0.00  0.00    +0.000 A 
ATOM     21  C   UNL     1       2.265   2.036  17.829  0.00  0.00    +0.000 A 
ATOM     22  C   UNL     1       3.545   1.492  17.918  0.00  0.00    +0.000 A 
ATOM     23  C   UNL     1       4.336   1.751  19.035  0.00  0.00    +0.000 A 
ATOM     24  C   UNL     1       3.841   2.544  20.068  0.00  0.00    +0.000 A 
ENDBRANCH  17  19
ENDBRANCH  16  17
ENDBRANCH  15  16
ENDBRANCH  14  15
ENDBRANCH   2  14
TORSDOF 7
ENDMDL
MODEL 4
REMARK VINA RESULT:      -6.7      2.142      4.656
REMARK  Name = 
REMARK  8 active torsions:
REMARK  status: ('A' for Active; 'I' for Inactive)
REMARK    1  A    between atoms: C_1  and  O_2
REMARK    2  A    between atoms: O_2  and  C_3
REMARK    3  A    between atoms: C_9  and  N_10
REMARK    4  A    between atoms: C_11  and  C_13
REMARK    5  A    between atoms: C_13  and  C_14
REMARK    6  A    between atoms: C_14  and  C_15
REMARK    7  A    between atoms: C_15  and  C_16
REMARK    8  A    between atoms: C_16  and  C_18
REMARK                            x       y       z     vdW  Elec       q    Type
REMARK                         _______ _______ _______ _____ _____    ______ ____
ROOT
ATOM      1  N   UNL     1       4.070   4.311  18.685  0.00  0.00    +0.000 N 
ATOM      2  C   UNL     1       3.922   3.275  19.596  0.00  0.00    +0.000 C 
ATOM      3  O   UNL     1       4.679   2.316  19.737  0.00  0.00    +0.000 OA
ATOM      4  H   UNL     1       3.510   5.147  18.805  0.00  0.00    +0.000 HD
ENDROOT
BRANCH   1  11
ATOM      5  C   UNL     1       6.399   4.792  18.070  0.00  0.00    +0.000 A 
ATOM      6  C   UNL     1       7.416   4.815  17.101  0.00  0.00    +0.000 A 
ATOM      7  C   UNL     1       7.139   4.508  15.770  0.00  0.00    +0.000 A 
ATOM      8  C   UNL     1       5.843   4.183  15.395  0.00  0.00    +0.000 A 
ATOM      9 CL   UNL     1       5.488   3.846  13.748  0.00  0.00    +0.000 Cl
ATOM     10  C   UNL     1       4.830   4.129  16.349  0.00  0.00    +0.000 A 
ATOM     11  C   UNL     1       5.093   4.402  17.699  0.00  0.00    +0.000 A 
BRANCH   5  13
ATOM     12  C   UNL     1       7.899   5.653  19.713  0.00  0.00    +0.000 C 
ATOM     13  O   UNL     1       6.611   5.113  19.393  0.00  0.00    +0.000 OA
ENDBRANCH   5  13
ENDBRANCH   1  11
BRANCH   2  14
ATOM     14  C   UNL     1       2.678   3.355  20.455  0.00  0.00    +0.000 C 
BRANCH  14  15
ATOM     15  C   UNL     1       1.758   4.464  19.942  0.00  0.00    +0.000 C 
BRANCH  15  16
ATOM     16  C   UNL     1       1.801   5.737  20.788  0.00  0.00    +0.000 C 
BRANCH  16  17
ATOM     17  C   UNL     1       2.085   6.990  19.975  0.00  0.00    +0.000 C 
ATOM     18  O   UNL     1       2.819   6.976  18.987  0.00  0.00    +0.000 OA
BRANCH  17  19
ATOM     19  C   UNL     1       1.448   8.279  20.384  0.00  0.00    +0.000 A 
ATOM     20  C   UNL     1       1.069   8.543  21.706  0.00  0.00    +0.000 A 
ATOM     21  C   UNL     1       0.439   9.750  22.025  0.00  0.00    +0.000 A 
ATOM     22  C   UNL     1       0.192  10.697  21.032  0.00  0.00    +0.000 A 
ATOM     23  C   UNL     1       0.581  10.446  19.717  0.00  0.00    +0.000 A 
ATOM     24  C   UNL     1       1.204   9.242  19.395  0.00  0.00    +0.000 A 
ENDBRANCH  17  19
ENDBRANCH  16  17
ENDBRANCH  15  16
ENDBRANCH  14  15
ENDBRANCH   2  14
TORSDOF 7
ENDMDL
MODEL 5
REMARK VINA RESULT:      -6.7      3.066      5.685
REMARK  Name = 
REMARK  8 active torsions:
REMARK  status: ('A' for Active; 'I' for Inactive)
REMARK    1  A    between atoms: C_1  and  O_2
REMARK    2  A    between atoms: O_2  and  C_3
REMARK    3  A    between atoms: C_9  and  N_10
REMARK    4  A    between atoms: C_11  and  C_13
REMARK    5  A    between atoms: C_13  and  C_14
REMARK    6  A    between atoms: C_14  and  C_15
REMARK    7  A    between atoms: C_15  and  C_16
REMARK    8  A    between atoms: C_16  and  C_18
REMARK                            x       y       z     vdW  Elec       q    Type
REMARK                         _______ _______ _______ _____ _____    ______ ____
ROOT
ATOM      1  N   UNL     1       2.566   5.863  20.481  0.00  0.00    +0.000 N 
ATOM      2  C   UNL     1       1.783   4.731  20.654  0.00  0.00    +0.000 C 
ATOM      3  O   UNL     1       0.590   4.622  20.376  0.00  0.00    +0.000 OA
ATOM      4  H   UNL     1       3.574   5.771  20.542  0.00  0.00    +0.000 HD
ENDROOT
BRANCH   1  11
ATOM      5  C   UNL     1       2.386   7.543  18.698  0.00  0.00    +0.000 A 
ATOM      6  C   UNL     1       1.865   8.761  18.229  0.00  0.00    +0.000 A 
ATOM      7  C   UNL     1       1.113   9.584  19.067  0.00  0.00    +0.000 A 
ATOM      8  C   UNL     1       0.883   9.201  20.380  0.00  0.00    +0.000 A 
ATOM      9 CL   UNL     1      -0.005  10.232  21.429  0.00  0.00    +0.000 Cl
ATOM     10  C   UNL     1       1.370   7.983  20.851  0.00  0.00    +0.000 A 
ATOM     11  C   UNL     1       2.100   7.125  20.017  0.00  0.00    +0.000 A 
BRANCH   5  13
ATOM     12  C   UNL     1       4.223   7.323  17.193  0.00  0.00    +0.000 C 
ATOM     13  O   UNL     1       3.156   6.704  17.923  0.00  0.00    +0.000 OA
ENDBRANCH   5  13
ENDBRANCH   1  11
BRANCH   2  14
ATOM     14  C   UNL     1       2.497   3.551  21.279  0.00  0.00    +0.000 C 
BRANCH  14  15
ATOM     15  C   UNL     1       2.845   2.520  20.203  0.00  0.00    +0.000 C 
BRANCH  15  16
ATOM     16  C   UNL     1       4.129   2.842  19.438  0.00  0.00    +0.000 C 
BRANCH  16  17
ATOM     17  C   UNL     1       3.880   3.273  18.000  0.00  0.00    +0.000 C 
ATOM     18  O   UNL     1       2.779   3.157  17.465  0.00  0.00    +0.000 OA
BRANCH  17  19
ATOM     19  C   UNL     1       5.008   3.862  17.215  0.00  0.00    +0.000 A 
ATOM     20  C   UNL     1       4.969   3.984  15.821  0.00  0.00    +0.000 A 
ATOM     21  C   UNL     1       6.070   4.505  15.134  0.00  0.00    +0.000 A 
ATOM     22  C   UNL     1       7.207   4.909  15.833  0.00  0.00    +0.000 A 
ATOM     23  C   UNL     1       7.246   4.802  17.222  0.00  0.00    +0.000 A 
ATOM     24  C   UNL     1       6.153   4.280  17.909  0.00  0.00    +0.000 A 
ENDBRANCH  17  19
ENDBRANCH  16  17
ENDBRANCH  15  16
ENDBRANCH  14  15
ENDBRANCH   2  14
TORSDOF 7
ENDMDL
MODEL 6
REMARK VINA RESULT:      -6.6      3.204      6.780
REMARK  Name = 
REMARK  8 active torsions:
REMARK  status: ('A' for Active; 'I' for Inactive)
REMARK    1  A    between atoms: C_1  and  O_2
REMARK    2  A    between atoms: O_2  and  C_3
REMARK    3  A    between atoms: C_9  and  N_10
REMARK    4  A    between atoms: C_11  and  C_13
REMARK    5  A    between atoms: C_13  and  C_14
REMARK    6  A    between atoms: C_14  and  C_15
REMARK    7  A    between atoms: C_15  and  C_16
REMARK    8  A    between atoms: C_16  and  C_18
REMARK                            x       y       z     vdW  Elec       q    Type
REMARK                         _______ _______ _______ _____ _____    ______ ____
ROOT
ATOM      1  N   UNL     1       4.794   4.605  18.024  0.00  0.00    +0.000 N 
ATOM      2  C   UNL     1       6.143   4.752  18.314  0.00  0.00    +0.000 C 
ATOM      3  O   UNL     1       6.624   5.050  19.405  0.00  0.00    +0.000 OA
ATOM      4  H   UNL     1       4.530   4.152  17.156  0.00  0.00    +0.000 HD
ENDROOT
BRANCH   1  11
ATOM      5  C   UNL     1       3.119   3.771  19.614  0.00  0.00    +0.000 A 
ATOM      6  C   UNL     1       2.108   4.029  20.557  0.00  0.00    +0.000 A 
ATOM      7  C   UNL     1       1.663   5.330  20.785  0.00  0.00    +0.000 A 
ATOM      8  C   UNL     1       2.217   6.382  20.070  0.00  0.00    +0.000 A 
ATOM      9 CL   UNL     1       1.641   7.981  20.316  0.00  0.00    +0.000 Cl
ATOM     10  C   UNL     1       3.238   6.145  19.153  0.00  0.00    +0.000 A 
ATOM     11  C   UNL     1       3.724   4.848  18.931  0.00  0.00    +0.000 A 
BRANCH   5  13
ATOM     12  C   UNL     1       4.507   1.944  20.266  0.00  0.00    +0.000 C 
ATOM     13  O   UNL     1       3.578   2.503  19.330  0.00  0.00    +0.000 OA
ENDBRANCH   5  13
ENDBRANCH   1  11
BRANCH   2  14
ATOM     14  C   UNL     1       7.073   4.551  17.136  0.00  0.00    +0.000 C 
BRANCH  14  15
ATOM     15  C   UNL     1       6.278   4.089  15.913  0.00  0.00    +0.000 C 
BRANCH  15  16
ATOM     16  C   UNL     1       6.151   5.157  14.826  0.00  0.00    +0.000 C 
BRANCH  16  17
ATOM     17  C   UNL     1       6.997   4.866  13.596  0.00  0.00    +0.000 C 
ATOM     18  O   UNL     1       8.034   5.482  13.356  0.00  0.00    +0.000 OA
BRANCH  17  19
ATOM     19  C   UNL     1       6.557   3.793  12.652  0.00  0.00    +0.000 A 
ATOM     20  C   UNL     1       5.207   3.507  12.417  0.00  0.00    +0.000 A 
ATOM     21  C   UNL     1       4.854   2.464  11.555  0.00  0.00    +0.000 A 
ATOM     22  C   UNL     1       5.841   1.711  10.922  0.00  0.00    +0.000 A 
ATOM     23  C   UNL     1       7.186   2.001  11.141  0.00  0.00    +0.000 A 
ATOM     24  C   UNL     1       7.543   3.036  12.003  0.00  0.00    +0.000 A 
ENDBRANCH  17  19
ENDBRANCH  16  17
ENDBRANCH  15  16
ENDBRANCH  14  15
ENDBRANCH   2  14
TORSDOF 7
ENDMDL
MODEL 7
REMARK VINA RESULT:      -6.6      1.487      3.581
REMARK  Name = 
REMARK  8 active torsions:
REMARK  status: ('A' for Active; 'I' for Inactive)
REMARK    1  A    between atoms: C_1  and  O_2
REMARK    2  A    between atoms: O_2  and  C_3
REMARK    3  A    between atoms: C_9  and  N_10
REMARK    4  A    between atoms: C_11  and  C_13
REMARK    5  A    between atoms: C_13  and  C_14
REMARK    6  A    between atoms: C_14  and  C_15
REMARK    7  A    between atoms: C_15  and  C_16
REMARK    8  A    between atoms: C_16  and  C_18
REMARK                            x       y       z     vdW  Elec       q    Type
REMARK                         _______ _______ _______ _____ _____    ______ ____
ROOT
ATOM      1  N   UNL     1       3.495   3.592  17.094  0.00  0.00    +0.000 N 
ATOM      2  C   UNL     1       3.216   2.406  17.758  0.00  0.00    +0.000 C 
ATOM      3  O   UNL     1       4.013   1.502  17.999  0.00  0.00    +0.000 OA
ATOM      4  H   UNL     1       2.821   4.347  17.143  0.00  0.00    +0.000 HD
ENDROOT
BRANCH   1  11
ATOM      5  C   UNL     1       5.784   4.457  17.311  0.00  0.00    +0.000 A 
ATOM      6  C   UNL     1       7.036   4.728  16.734  0.00  0.00    +0.000 A 
ATOM      7  C   UNL     1       7.249   4.535  15.369  0.00  0.00    +0.000 A 
ATOM      8  C   UNL     1       6.212   4.077  14.570  0.00  0.00    +0.000 A 
ATOM      9 CL   UNL     1       6.457   3.880  12.882  0.00  0.00    +0.000 Cl
ATOM     10  C   UNL     1       4.973   3.778  15.132  0.00  0.00    +0.000 A 
ATOM     11  C   UNL     1       4.746   3.933  16.508  0.00  0.00    +0.000 A 
BRANCH   5  13
ATOM     12  C   UNL     1       6.489   5.392  19.388  0.00  0.00    +0.000 C 
ATOM     13  O   UNL     1       5.510   4.654  18.647  0.00  0.00    +0.000 OA
ENDBRANCH   5  13
ENDBRANCH   1  11
BRANCH   2  14
ATOM     14  C   UNL     1       1.771   2.237  18.180  0.00  0.00    +0.000 C 
BRANCH  14  15
ATOM     15  C   UNL     1       1.655   2.340  19.702  0.00  0.00    +0.000 C 
BRANCH  15  16
ATOM     16  C   UNL     1       0.894   3.579  20.177  0.00  0.00    +0.000 C 
BRANCH  16  17
ATOM     17  C   UNL     1       1.800   4.658  20.749  0.00  0.00    +0.000 C 
ATOM     18  O   UNL     1       2.480   4.474  21.757  0.00  0.00    +0.000 OA
BRANCH  17  19
ATOM     19  C   UNL     1       1.870   5.984  20.061  0.00  0.00    +0.000 A 
ATOM     20  C   UNL     1       2.386   6.133  18.768  0.00  0.00    +0.000 A 
ATOM     21  C   UNL     1       2.465   7.403  18.189  0.00  0.00    +0.000 A 
ATOM     22  C   UNL     1       2.027   8.524  18.892  0.00  0.00    +0.000 A 
ATOM     23  C   UNL     1       1.500   8.380  20.174  0.00  0.00    +0.000 A 
ATOM     24  C   UNL     1       1.424   7.116  20.756  0.00  0.00    +0.000 A 
ENDBRANCH  17  19
ENDBRANCH  16  17
ENDBRANCH  15  16
ENDBRANCH  14  15
ENDBRANCH   2  14
TORSDOF 7
ENDMDL
MODEL 8
REMARK VINA RESULT:      -6.6      4.787      8.419
REMARK  Name = 
REMARK  8 active torsions:
REMARK  status: ('A' for Active; 'I' for Inactive)
REMARK    1  A    between atoms: C_1  and  O_2
REMARK    2  A    between atoms: O_2  and  C_3
REMARK    3  A    between atoms: C_9  and  N_10
REMARK    4  A    between atoms: C_11  and  C_13
REMARK    5  A    between atoms: C_13  and  C_14
REMARK    6  A    between atoms: C_14  and  C_15
REMARK    7  A    between atoms: C_15  and  C_16
REMARK    8  A    between atoms: C_16  and  C_18
REMARK                            x       y       z     vdW  Elec       q    Type
REMARK                         _______ _______ _______ _____ _____    ______ ____
ROOT
ATOM      1  N   UNL     1       5.711   5.940  18.570  0.00  0.00    +0.000 N 
ATOM      2  C   UNL     1       6.497   6.501  17.573  0.00  0.00    +0.000 C 
ATOM      3  O   UNL     1       6.241   6.521  16.370  0.00  0.00    +0.000 OA
ATOM      4  H   UNL     1       5.915   6.171  19.536  0.00  0.00    +0.000 HD
ENDROOT
BRANCH   1  11
ATOM      5  C   UNL     1       3.302   5.922  18.094  0.00  0.00    +0.000 A 
ATOM      6  C   UNL     1       2.126   5.203  17.823  0.00  0.00    +0.000 A 
ATOM      7  C   UNL     1       2.118   3.809  17.865  0.00  0.00    +0.000 A 
ATOM      8  C   UNL     1       3.281   3.124  18.186  0.00  0.00    +0.000 A 
ATOM      9 CL   UNL     1       3.265   1.409  18.282  0.00  0.00    +0.000 Cl
ATOM     10  C   UNL     1       4.461   3.823  18.429  0.00  0.00    +0.000 A 
ATOM     11  C   UNL     1       4.500   5.223  18.360  0.00  0.00    +0.000 A 
BRANCH   5  13
ATOM     12  C   UNL     1       2.103   7.984  18.143  0.00  0.00    +0.000 C 
ATOM     13  O   UNL     1       3.360   7.299  18.092  0.00  0.00    +0.000 OA
ENDBRANCH   5  13
ENDBRANCH   1  11
BRANCH   2  14
ATOM     14  C   UNL     1       7.801   7.103  18.052  0.00  0.00    +0.000 C 
BRANCH  14  15
ATOM     15  C   UNL     1       7.869   8.581  17.663  0.00  0.00    +0.000 C 
BRANCH  15  16
ATOM     16  C   UNL     1       8.840   9.396  18.518  0.00  0.00    +0.000 C 
BRANCH  16  17
ATOM     17  C   UNL     1       8.903  10.863  18.122  0.00  0.00    +0.000 C 
ATOM     18  O   UNL     1       8.003  11.408  17.485  0.00  0.00    +0.000 OA
BRANCH  17  19
ATOM     19  C   UNL     1      10.095  11.671  18.526  0.00  0.00    +0.000 A 
ATOM     20  C   UNL     1      11.032  12.142  17.598  0.00  0.00    +0.000 A 
ATOM     21  C   UNL     1      12.150  12.859  18.036  0.00  0.00    +0.000 A 
ATOM     22  C   UNL     1      12.333  13.112  19.394  0.00  0.00    +0.000 A 
ATOM     23  C   UNL     1      11.397  12.658  20.321  0.00  0.00    +0.000 A 
ATOM     24  C   UNL     1      10.284  11.940  19.889  0.00  0.00    +0.000 A 
ENDBRANCH  17  19
ENDBRANCH  16  17
ENDBRANCH  15  16
ENDBRANCH  14  15
ENDBRANCH   2  14
TORSDOF 7
ENDMDL
MODEL 9
REMARK VINA RESULT:      -6.5      3.150      6.686
REMARK  Name = 
REMARK  8 active torsions:
REMARK  status: ('A' for Active; 'I' for Inactive)
REMARK    1  A    between atoms: C_1  and  O_2
REMARK    2  A    between atoms: O_2  and  C_3
REMARK    3  A    between atoms: C_9  and  N_10
REMARK    4  A    between atoms: C_11  and  C_13
REMARK    5  A    between atoms: C_13  and  C_14
REMARK    6  A    between atoms: C_14  and  C_15
REMARK    7  A    between atoms: C_15  and  C_16
REMARK    8  A    between atoms: C_16  and  C_18
REMARK                            x       y       z     vdW  Elec       q    Type
REMARK                         _______ _______ _______ _____ _____    ______ ____
ROOT
ATOM      1  N   UNL     1       5.115   4.609  18.289  0.00  0.00    +0.000 N 
ATOM      2  C   UNL     1       6.406   4.911  18.699  0.00  0.00    +0.000 C 
ATOM      3  O   UNL     1       6.748   5.259  19.828  0.00  0.00    +0.000 OA
ATOM      4  H   UNL     1       4.985   4.131  17.404  0.00  0.00    +0.000 HD
ENDROOT
BRANCH   1  11
ATOM      5  C   UNL     1       3.128   5.870  18.991  0.00  0.00    +0.000 A 
ATOM      6  C   UNL     1       1.942   5.943  19.741  0.00  0.00    +0.000 A 
ATOM      7  C   UNL     1       1.592   4.921  20.622  0.00  0.00    +0.000 A 
ATOM      8  C   UNL     1       2.427   3.822  20.766  0.00  0.00    +0.000 A 
ATOM      9 CL   UNL     1       2.022   2.581  21.883  0.00  0.00    +0.000 Cl
ATOM     10  C   UNL     1       3.592   3.723  20.009  0.00  0.00    +0.000 A 
ATOM     11  C   UNL     1       3.946   4.724  19.093  0.00  0.00    +0.000 A 
BRANCH   5  13
ATOM     12  C   UNL     1       2.725   8.045  18.096  0.00  0.00    +0.000 C 
ATOM     13  O   UNL     1       3.535   6.863  18.126  0.00  0.00    +0.000 OA
ENDBRANCH   5  13
ENDBRANCH   1  11
BRANCH   2  14
ATOM     14  C   UNL     1       7.457   4.822  17.613  0.00  0.00    +0.000 C 
BRANCH  14  15
ATOM     15  C   UNL     1       6.851   5.219  16.265  0.00  0.00    +0.000 C 
BRANCH  15  16
ATOM     16  C   UNL     1       6.726   4.053  15.282  0.00  0.00    +0.000 C 
BRANCH  16  17
ATOM     17  C   UNL     1       6.838   4.481  13.826  0.00  0.00    +0.000 C 
ATOM     18  O   UNL     1       7.515   5.448  13.479  0.00  0.00    +0.000 OA
BRANCH  17  19
ATOM     19  C   UNL     1       6.107   3.697  12.784  0.00  0.00    +0.000 A 
ATOM     20  C   UNL     1       4.794   3.996  12.403  0.00  0.00    +0.000 A 
ATOM     21  C   UNL     1       4.144   3.204  11.451  0.00  0.00    +0.000 A 
ATOM     22  C   UNL     1       4.802   2.118  10.874  0.00  0.00    +0.000 A 
ATOM     23  C   UNL     1       6.114   1.824  11.239  0.00  0.00    +0.000 A 
ATOM     24  C   UNL     1       6.763   2.609  12.191  0.00  0.00    +0.000 A 
ENDBRANCH  17  19
ENDBRANCH  16  17
ENDBRANCH  15  16
ENDBRANCH  14  15
ENDBRANCH   2  14
TORSDOF 7
ENDMDL
