MODEL 1
REMARK VINA RESULT:      -7.8      0.000      0.000
REMARK  Name = 
REMARK  11 active torsions:
REMARK  status: ('A' for Active; 'I' for Inactive)
REMARK    1  A    between atoms: C_1  and  O_2
REMARK    2  A    between atoms: O_2  and  C_3
REMARK    3  A    between atoms: C_6  and  S_7
REMARK    4  A    between atoms: S_7  and  N_10
REMARK    5  A    between atoms: N_10  and  C_11
REMARK    6  A    between atoms: N_10  and  C_16
REMARK    7  A    between atoms: C_11  and  C_12
REMARK    8  A    between atoms: N_14  and  O_15
REMARK    9  A    between atoms: C_16  and  C_17
REMARK   10  A    between atoms: C_20  and  C_21
REMARK   11  A    between atoms: C_21  and  O_23
REMARK                            x       y       z     vdW  Elec       q    Type
REMARK                         _______ _______ _______ _____ _____    ______ ____
ROOT
ATOM      1  N   UNL     1       3.050   4.671  18.494  0.00  0.00    +0.000 NA
ENDROOT
BRANCH   1   2
ATOM      2  S   UNL     1       4.548   3.834  18.324  0.00  0.00    +0.000 S 
ATOM      3  O   UNL     1       4.379   2.935  17.200  0.00  0.00    +0.000 OA
ATOM      4  O   UNL     1       4.944   3.341  19.623  0.00  0.00    +0.000 OA
BRANCH   2   8
ATOM      5  C   UNL     1       7.436   7.259  17.472  0.00  0.00    +0.000 A 
ATOM      6  C   UNL     1       6.363   7.014  16.606  0.00  0.00    +0.000 A 
ATOM      7  C   UNL     1       5.512   5.922  16.814  0.00  0.00    +0.000 A 
ATOM      8  C   UNL     1       5.759   5.057  17.881  0.00  0.00    +0.000 A 
ATOM      9  C   UNL     1       6.855   5.269  18.724  0.00  0.00    +0.000 A 
ATOM     10  C   UNL     1       7.692   6.371  18.517  0.00  0.00    +0.000 A 
BRANCH   5  12
ATOM     11  C   UNL     1       8.365   9.286  18.265  0.00  0.00    +0.000 C 
ATOM     12  O   UNL     1       8.180   8.371  17.187  0.00  0.00    +0.000 OA
ENDBRANCH   5  12
ENDBRANCH   2   8
ENDBRANCH   1   2
BRANCH   1  13
ATOM     13  C   UNL     1       1.876   3.766  18.700  0.00  0.00    +0.000 C 
BRANCH  13  14
ATOM     14  C   UNL     1       1.392   3.557  20.116  0.00  0.00    +0.000 C 
ATOM     15  O   UNL     1       0.518   4.244  20.643  0.00  0.00    +0.000 OA
ATOM     16  N   UNL     1       2.067   2.574  20.808  0.00  0.00    +0.000 N 
ATOM     17  H   UNL     1       2.370   1.729  20.325  0.00  0.00    +0.000 HD
BRANCH  16  18
ATOM     18  O   UNL     1       1.640   2.390  22.147  0.00  0.00    +0.000 OA
ATOM     19  H   UNL     1       1.567   3.312  22.480  0.00  0.00    +0.000 HD
ENDBRANCH  16  18
ENDBRANCH  13  14
ENDBRANCH   1  13
BRANCH   1  20
ATOM     20  C   UNL     1       3.151   5.691  19.591  0.00  0.00    +0.000 C 
BRANCH  20  21
ATOM     21  C   UNL     1       2.442   7.007  19.338  0.00  0.00    +0.000 A 
ATOM     22  C   UNL     1       1.777   7.662  20.385  0.00  0.00    +0.000 A 
ATOM     23  C   UNL     1       1.182   8.909  20.178  0.00  0.00    +0.000 A 
ATOM     24  C   UNL     1       1.240   9.523  18.922  0.00  0.00    +0.000 A 
ATOM     25  C   UNL     1       1.902   8.875  17.870  0.00  0.00    +0.000 A 
ATOM     26  C   UNL     1       2.492   7.621  18.078  0.00  0.00    +0.000 A 
BRANCH  24  27
ATOM     27  C   UNL     1       0.646  10.880  18.789  0.00  0.00    +0.000 C 
ATOM     28  O   UNL     1       1.037  11.835  19.441  0.00  0.00    +0.000 OA
BRANCH  27  29
ATOM     29  O   UNL     1      -0.380  10.962  17.918  0.00  0.00    +0.000 OA
ATOM     30  H   UNL     1      -0.935  11.756  17.994  0.00  0.00    +0.000 HD
ENDBRANCH  27  29
ENDBRANCH  24  27
ENDBRANCH  20  21
ENDBRANCH   1  20
TORSDOF 10
ENDMDL
MODEL 2
REMARK VINA RESULT:      -7.5      1.599      2.272
REMARK  Name = 
REMARK  11 active torsions:
REMARK  status: ('A' for Active; 'I' for Inactive)
REMARK    1  A    between atoms: C_1  and  O_2
REMARK    2  A    between atoms: O_2  and  C_3
REMARK    3  A    between atoms: C_6  and  S_7
REMARK    4  A    between atoms: S_7  and  N_10
REMARK    5  A    between atoms: N_10  and  C_11
REMARK    6  A    between atoms: N_10  and  C_16
REMARK    7  A    between atoms: C_11  and  C_12
REMARK    8  A    between atoms: N_14  and  O_15
REMARK    9  A    between atoms: C_16  and  C_17
REMARK   10  A    between atoms: C_20  and  C_21
REMARK   11  A    between atoms: C_21  and  O_23
REMARK                            x       y       z     vdW  Elec       q    Type
REMARK                         _______ _______ _______ _____ _____    ______ ____
ROOT
ATOM      1  N   UNL     1       3.056   4.580  18.323  0.00  0.00    +0.000 NA
ENDROOT
BRANCH   1   2
ATOM      2  S   UNL     1       4.275   3.360  18.296  0.00  0.00    +0.000 S 
ATOM      3  O   UNL     1       3.625   2.156  17.820  0.00  0.00    +0.000 OA
ATOM      4  O   UNL     1       4.970   3.385  19.563  0.00  0.00    +0.000 OA
BRANCH   2   8
ATOM      5  C   UNL     1       7.097   5.055  15.141  0.00  0.00    +0.000 A 
ATOM      6  C   UNL     1       6.061   4.193  14.765  0.00  0.00    +0.000 A 
ATOM      7  C   UNL     1       5.232   3.607  15.729  0.00  0.00    +0.000 A 
ATOM      8  C   UNL     1       5.466   3.868  17.080  0.00  0.00    +0.000 A 
ATOM      9  C   UNL     1       6.529   4.692  17.467  0.00  0.00    +0.000 A 
ATOM     10  C   UNL     1       7.342   5.284  16.495  0.00  0.00    +0.000 A 
BRANCH   5  12
ATOM     11  C   UNL     1       7.620   4.990  12.833  0.00  0.00    +0.000 C 
ATOM     12  O   UNL     1       7.821   5.591  14.111  0.00  0.00    +0.000 OA
ENDBRANCH   5  12
ENDBRANCH   2   8
ENDBRANCH   1   2
BRANCH   1  13
ATOM     13  C   UNL     1       1.681   4.051  18.590  0.00  0.00    +0.000 C 
BRANCH  13  14
ATOM     14  C   UNL     1       1.312   3.756  20.025  0.00  0.00    +0.000 C 
ATOM     15  O   UNL     1       0.548   4.457  20.688  0.00  0.00    +0.000 OA
ATOM     16  N   UNL     1       1.963   2.669  20.568  0.00  0.00    +0.000 N 
ATOM     17  H   UNL     1       2.151   1.849  19.992  0.00  0.00    +0.000 HD
BRANCH  16  18
ATOM     18  O   UNL     1       1.645   2.401  21.923  0.00  0.00    +0.000 OA
ATOM     19  H   UNL     1       1.550   3.301  22.306  0.00  0.00    +0.000 HD
ENDBRANCH  16  18
ENDBRANCH  13  14
ENDBRANCH   1  13
BRANCH   1  20
ATOM     20  C   UNL     1       3.425   5.657  19.300  0.00  0.00    +0.000 C 
BRANCH  20  21
ATOM     21  C   UNL     1       2.696   6.977  19.139  0.00  0.00    +0.000 A 
ATOM     22  C   UNL     1       2.650   7.608  17.887  0.00  0.00    +0.000 A 
ATOM     23  C   UNL     1       1.921   8.787  17.713  0.00  0.00    +0.000 A 
ATOM     24  C   UNL     1       1.228   9.357  18.786  0.00  0.00    +0.000 A 
ATOM     25  C   UNL     1       1.270   8.733  20.041  0.00  0.00    +0.000 A 
ATOM     26  C   UNL     1       2.007   7.555  20.215  0.00  0.00    +0.000 A 
BRANCH  24  27
ATOM     27  C   UNL     1       0.417  10.574  18.515  0.00  0.00    +0.000 C 
ATOM     28  O   UNL     1      -0.798  10.542  18.396  0.00  0.00    +0.000 OA
BRANCH  27  29
ATOM     29  O   UNL     1       1.134  11.708  18.379  0.00  0.00    +0.000 OA
ATOM     30  H   UNL     1       1.449  12.109  19.206  0.00  0.00    +0.000 HD
ENDBRANCH  27  29
ENDBRANCH  24  27
ENDBRANCH  20  21
ENDBRANCH   1  20
TORSDOF 10
ENDMDL
MODEL 3
REMARK VINA RESULT:      -7.3      2.358      5.547
REMARK  Name = 
REMARK  11 active torsions:
REMARK  status: ('A' for Active; 'I' for Inactive)
REMARK    1  A    between atoms: C_1  and  O_2
REMARK    2  A    between atoms: O_2  and  C_3
REMARK    3  A    between atoms: C_6  and  S_7
REMARK    4  A    between atoms: S_7  and  N_10
REMARK    5  A    between atoms: N_10  and  C_11
REMARK    6  A    between atoms: N_10  and  C_16
REMARK    7  A    between atoms: C_11  and  C_12
REMARK    8  A    between atoms: N_14  and  O_15
REMARK    9  A    between atoms: C_16  and  C_17
REMARK   10  A    between atoms: C_20  and  C_21
REMARK   11  A    between atoms: C_21  and  O_23
REMARK                            x       y       z     vdW  Elec       q    Type
REMARK                         _______ _______ _______ _____ _____    ______ ____
ROOT
ATOM      1  N   UNL     1       5.552   6.335  17.309  0.00  0.00    +0.000 NA
ENDROOT
BRANCH   1   2
ATOM      2  S   UNL     1       5.688   4.708  16.750  0.00  0.00    +0.000 S 
ATOM      3  O   UNL     1       7.043   4.293  17.053  0.00  0.00    +0.000 OA
ATOM      4  O   UNL     1       5.170   4.646  15.403  0.00  0.00    +0.000 OA
BRANCH   2   8
ATOM      5  C   UNL     1       2.633   2.624  19.417  0.00  0.00    +0.000 A 
ATOM      6  C   UNL     1       3.911   2.914  19.908  0.00  0.00    +0.000 A 
ATOM      7  C   UNL     1       4.883   3.486  19.080  0.00  0.00    +0.000 A 
ATOM      8  C   UNL     1       4.575   3.742  17.742  0.00  0.00    +0.000 A 
ATOM      9  C   UNL     1       3.315   3.413  17.231  0.00  0.00    +0.000 A 
ATOM     10  C   UNL     1       2.346   2.854  18.071  0.00  0.00    +0.000 A 
BRANCH   5  12
ATOM     11  C   UNL     1       1.161   3.025  21.227  0.00  0.00    +0.000 C 
ATOM     12  O   UNL     1       1.758   2.094  20.326  0.00  0.00    +0.000 OA
ENDBRANCH   5  12
ENDBRANCH   2   8
ENDBRANCH   1   2
BRANCH   1  13
ATOM     13  C   UNL     1       6.712   7.200  16.927  0.00  0.00    +0.000 C 
BRANCH  13  14
ATOM     14  C   UNL     1       7.707   7.555  18.007  0.00  0.00    +0.000 C 
ATOM     15  O   UNL     1       8.108   6.754  18.851  0.00  0.00    +0.000 OA
ATOM     16  N   UNL     1       8.079   8.883  18.025  0.00  0.00    +0.000 N 
ATOM     17  H   UNL     1       8.192   9.389  17.147  0.00  0.00    +0.000 HD
BRANCH  16  18
ATOM     18  O   UNL     1       8.989   9.232  19.052  0.00  0.00    +0.000 OA
ATOM     19  H   UNL     1       9.768   9.559  18.550  0.00  0.00    +0.000 HD
ENDBRANCH  16  18
ENDBRANCH  13  14
ENDBRANCH   1  13
BRANCH   1  20
ATOM     20  C   UNL     1       4.253   6.930  16.850  0.00  0.00    +0.000 C 
BRANCH  20  21
ATOM     21  C   UNL     1       3.294   7.350  17.947  0.00  0.00    +0.000 A 
ATOM     22  C   UNL     1       3.126   6.545  19.083  0.00  0.00    +0.000 A 
ATOM     23  C   UNL     1       2.299   6.959  20.131  0.00  0.00    +0.000 A 
ATOM     24  C   UNL     1       1.624   8.182  20.060  0.00  0.00    +0.000 A 
ATOM     25  C   UNL     1       1.786   8.993  18.928  0.00  0.00    +0.000 A 
ATOM     26  C   UNL     1       2.610   8.573  17.876  0.00  0.00    +0.000 A 
BRANCH  24  27
ATOM     27  C   UNL     1       0.814   8.592  21.239  0.00  0.00    +0.000 C 
ATOM     28  O   UNL     1      -0.312   8.167  21.443  0.00  0.00    +0.000 OA
BRANCH  27  29
ATOM     29  O   UNL     1       1.411   9.494  22.044  0.00  0.00    +0.000 OA
ATOM     30  H   UNL     1       0.825  10.167  22.431  0.00  0.00    +0.000 HD
ENDBRANCH  27  29
ENDBRANCH  24  27
ENDBRANCH  20  21
ENDBRANCH   1  20
TORSDOF 10
ENDMDL
MODEL 4
REMARK VINA RESULT:      -7.3      0.955      1.125
REMARK  Name = 
REMARK  11 active torsions:
REMARK  status: ('A' for Active; 'I' for Inactive)
REMARK    1  A    between atoms: C_1  and  O_2
REMARK    2  A    between atoms: O_2  and  C_3
REMARK    3  A    between atoms: C_6  and  S_7
REMARK    4  A    between atoms: S_7  and  N_10
REMARK    5  A    between atoms: N_10  and  C_11
REMARK    6  A    between atoms: N_10  and  C_16
REMARK    7  A    between atoms: C_11  and  C_12
REMARK    8  A    between atoms: N_14  and  O_15
REMARK    9  A    between atoms: C_16  and  C_17
REMARK   10  A    between atoms: C_20  and  C_21
REMARK   11  A    between atoms: C_21  and  O_23
REMARK                            x       y       z     vdW  Elec       q    Type
REMARK                         _______ _______ _______ _____ _____    ______ ____
ROOT
ATOM      1  N   UNL     1       3.026   4.882  19.179  0.00  0.00    +0.000 NA
ENDROOT
BRANCH   1   2
ATOM      2  S   UNL     1       4.328   3.935  18.559  0.00  0.00    +0.000 S 
ATOM      3  O   UNL     1       3.806   3.255  17.390  0.00  0.00    +0.000 OA
ATOM      4  O   UNL     1       4.917   3.198  19.653  0.00  0.00    +0.000 OA
BRANCH   2   8
ATOM      5  C   UNL     1       7.335   7.188  17.474  0.00  0.00    +0.000 A 
ATOM      6  C   UNL     1       6.206   6.980  16.673  0.00  0.00    +0.000 A 
ATOM      7  C   UNL     1       5.313   5.939  16.951  0.00  0.00    +0.000 A 
ATOM      8  C   UNL     1       5.573   5.084  18.024  0.00  0.00    +0.000 A 
ATOM      9  C   UNL     1       6.723   5.257  18.801  0.00  0.00    +0.000 A 
ATOM     10  C   UNL     1       7.602   6.309  18.524  0.00  0.00    +0.000 A 
BRANCH   5  12
ATOM     11  C   UNL     1       8.323   9.233  18.140  0.00  0.00    +0.000 C 
ATOM     12  O   UNL     1       8.118   8.254  17.124  0.00  0.00    +0.000 OA
ENDBRANCH   5  12
ENDBRANCH   2   8
ENDBRANCH   1   2
BRANCH   1  13
ATOM     13  C   UNL     1       2.317   4.245  20.333  0.00  0.00    +0.000 C 
BRANCH  13  14
ATOM     14  C   UNL     1       1.432   3.056  20.040  0.00  0.00    +0.000 C 
ATOM     15  O   UNL     1       1.120   2.217  20.884  0.00  0.00    +0.000 OA
ATOM     16  N   UNL     1       1.055   2.938  18.719  0.00  0.00    +0.000 N 
ATOM     17  H   UNL     1       0.852   3.774  18.173  0.00  0.00    +0.000 HD
BRANCH  16  18
ATOM     18  O   UNL     1       0.249   1.809  18.429  0.00  0.00    +0.000 OA
ATOM     19  H   UNL     1       0.707   1.409  17.657  0.00  0.00    +0.000 HD
ENDBRANCH  16  18
ENDBRANCH  13  14
ENDBRANCH   1  13
BRANCH   1  20
ATOM     20  C   UNL     1       3.512   6.258  19.531  0.00  0.00    +0.000 C 
BRANCH  20  21
ATOM     21  C   UNL     1       2.535   7.390  19.275  0.00  0.00    +0.000 A 
ATOM     22  C   UNL     1       1.782   7.923  20.331  0.00  0.00    +0.000 A 
ATOM     23  C   UNL     1       0.934   9.013  20.118  0.00  0.00    +0.000 A 
ATOM     24  C   UNL     1       0.821   9.586  18.846  0.00  0.00    +0.000 A 
ATOM     25  C   UNL     1       1.570   9.058  17.785  0.00  0.00    +0.000 A 
ATOM     26  C   UNL     1       2.415   7.961  18.000  0.00  0.00    +0.000 A 
BRANCH  24  27
ATOM     27  C   UNL     1      -0.048  10.785  18.705  0.00  0.00    +0.000 C 
ATOM     28  O   UNL     1      -0.067  11.684  19.531  0.00  0.00    +0.000 OA
BRANCH  27  29
ATOM     29  O   UNL     1      -0.834  10.783  17.610  0.00  0.00    +0.000 OA
ATOM     30  H   UNL     1      -1.522  10.096  17.587  0.00  0.00    +0.000 HD
ENDBRANCH  27  29
ENDBRANCH  24  27
ENDBRANCH  20  21
ENDBRANCH   1  20
TORSDOF 10
ENDMDL
MODEL 5
REMARK VINA RESULT:      -7.3      1.659      2.377
REMARK  Name = 
REMARK  11 active torsions:
REMARK  status: ('A' for Active; 'I' for Inactive)
REMARK    1  A    between atoms: C_1  and  O_2
REMARK    2  A    between atoms: O_2  and  C_3
REMARK    3  A    between atoms: C_6  and  S_7
REMARK    4  A    between atoms: S_7  and  N_10
REMARK    5  A    between atoms: N_10  and  C_11
REMARK    6  A    between atoms: N_10  and  C_16
REMARK    7  A    between atoms: C_11  and  C_12
REMARK    8  A    between atoms: N_14  and  O_15
REMARK    9  A    between atoms: C_16  and  C_17
REMARK   10  A    between atoms: C_20  and  C_21
REMARK   11  A    between atoms: C_21  and  O_23
REMARK                            x       y       z     vdW  Elec       q    Type
REMARK                         _______ _______ _______ _____ _____    ______ ____
ROOT
ATOM      1  N   UNL     1       2.811   4.886  18.414  0.00  0.00    +0.000 NA
ENDROOT
BRANCH   1   2
ATOM      2  S   UNL     1       4.068   3.731  18.162  0.00  0.00    +0.000 S 
ATOM      3  O   UNL     1       3.419   2.539  17.655  0.00  0.00    +0.000 OA
ATOM      4  O   UNL     1       4.891   3.688  19.349  0.00  0.00    +0.000 OA
BRANCH   2   8
ATOM      5  C   UNL     1       7.040   5.108  14.989  0.00  0.00    +0.000 A 
ATOM      6  C   UNL     1       6.968   5.772  16.219  0.00  0.00    +0.000 A 
ATOM      7  C   UNL     1       6.012   5.409  17.174  0.00  0.00    +0.000 A 
ATOM      8  C   UNL     1       5.104   4.390  16.878  0.00  0.00    +0.000 A 
ATOM      9  C   UNL     1       5.139   3.752  15.634  0.00  0.00    +0.000 A 
ATOM     10  C   UNL     1       6.108   4.113  14.691  0.00  0.00    +0.000 A 
BRANCH   5  12
ATOM     11  C   UNL     1       7.820   5.278  12.761  0.00  0.00    +0.000 C 
ATOM     12  O   UNL     1       8.033   5.529  14.148  0.00  0.00    +0.000 OA
ENDBRANCH   5  12
ENDBRANCH   2   8
ENDBRANCH   1   2
BRANCH   1  13
ATOM     13  C   UNL     1       1.553   4.294  18.969  0.00  0.00    +0.000 C 
BRANCH  13  14
ATOM     14  C   UNL     1       1.681   3.352  20.143  0.00  0.00    +0.000 C 
ATOM     15  O   UNL     1       1.328   2.174  20.110  0.00  0.00    +0.000 OA
ATOM     16  N   UNL     1       2.159   3.939  21.295  0.00  0.00    +0.000 N 
ATOM     17  H   UNL     1       2.879   4.659  21.236  0.00  0.00    +0.000 HD
BRANCH  16  18
ATOM     18  O   UNL     1       2.255   3.071  22.410  0.00  0.00    +0.000 OA
ATOM     19  H   UNL     1       1.360   2.668  22.449  0.00  0.00    +0.000 HD
ENDBRANCH  16  18
ENDBRANCH  13  14
ENDBRANCH   1  13
BRANCH   1  20
ATOM     20  C   UNL     1       3.309   6.010  19.274  0.00  0.00    +0.000 C 
BRANCH  20  21
ATOM     21  C   UNL     1       2.532   7.309  19.181  0.00  0.00    +0.000 A 
ATOM     22  C   UNL     1       2.461   8.003  17.964  0.00  0.00    +0.000 A 
ATOM     23  C   UNL     1       1.689   9.162  17.852  0.00  0.00    +0.000 A 
ATOM     24  C   UNL     1       0.977   9.649  18.953  0.00  0.00    +0.000 A 
ATOM     25  C   UNL     1       1.043   8.962  20.173  0.00  0.00    +0.000 A 
ATOM     26  C   UNL     1       1.823   7.804  20.285  0.00  0.00    +0.000 A 
BRANCH  24  27
ATOM     27  C   UNL     1       0.121  10.848  18.745  0.00  0.00    +0.000 C 
ATOM     28  O   UNL     1       0.139  11.807  19.500  0.00  0.00    +0.000 OA
BRANCH  27  29
ATOM     29  O   UNL     1      -0.697  10.776  17.677  0.00  0.00    +0.000 OA
ATOM     30  H   UNL     1      -0.258  10.679  16.815  0.00  0.00    +0.000 HD
ENDBRANCH  27  29
ENDBRANCH  24  27
ENDBRANCH  20  21
ENDBRANCH   1  20
TORSDOF 10
ENDMDL
MODEL 6
REMARK VINA RESULT:      -7.2      1.818      2.474
REMARK  Name = 
REMARK  11 active torsions:
REMARK  status: ('A' for Active; 'I' for Inactive)
REMARK    1  A    between atoms: C_1  and  O_2
REMARK    2  A    between atoms: O_2  and  C_3
REMARK    3  A    between atoms: C_6  and  S_7
REMARK    4  A    between atoms: S_7  and  N_10
REMARK    5  A    between atoms: N_10  and  C_11
REMARK    6  A    between atoms: N_10  and  C_16
REMARK    7  A    between atoms: C_11  and  C_12
REMARK    8  A    between atoms: N_14  and  O_15
REMARK    9  A    between atoms: C_16  and  C_17
REMARK   10  A    between atoms: C_20  and  C_21
REMARK   11  A    between atoms: C_21  and  O_23
REMARK                            x       y       z     vdW  Elec       q    Type
REMARK                         _______ _______ _______ _____ _____    ______ ____
ROOT
ATOM      1  N   UNL     1       3.310   4.919  18.793  0.00  0.00    +0.000 NA
ENDROOT
BRANCH   1   2
ATOM      2  S   UNL     1       4.988   4.520  18.813  0.00  0.00    +0.000 S 
ATOM      3  O   UNL     1       5.060   3.112  19.154  0.00  0.00    +0.000 OA
ATOM      4  O   UNL     1       5.684   5.515  19.596  0.00  0.00    +0.000 OA
BRANCH   2   8
ATOM      5  C   UNL     1       6.814   4.729  14.640  0.00  0.00    +0.000 A 
ATOM      6  C   UNL     1       7.153   5.686  15.603  0.00  0.00    +0.000 A 
ATOM      7  C   UNL     1       6.545   5.679  16.864  0.00  0.00    +0.000 A 
ATOM      8  C   UNL     1       5.572   4.719  17.147  0.00  0.00    +0.000 A 
ATOM      9  C   UNL     1       5.194   3.787  16.175  0.00  0.00    +0.000 A 
ATOM     10  C   UNL     1       5.817   3.794  14.922  0.00  0.00    +0.000 A 
BRANCH   5  12
ATOM     11  C   UNL     1       6.953   4.064  12.373  0.00  0.00    +0.000 C 
ATOM     12  O   UNL     1       7.494   4.817  13.456  0.00  0.00    +0.000 OA
ENDBRANCH   5  12
ENDBRANCH   2   8
ENDBRANCH   1   2
BRANCH   1  13
ATOM     13  C   UNL     1       2.408   3.725  18.784  0.00  0.00    +0.000 C 
BRANCH  13  14
ATOM     14  C   UNL     1       1.677   3.389  20.063  0.00  0.00    +0.000 C 
ATOM     15  O   UNL     1       0.544   3.790  20.323  0.00  0.00    +0.000 OA
ATOM     16  N   UNL     1       2.416   2.651  20.964  0.00  0.00    +0.000 N 
ATOM     17  H   UNL     1       3.054   1.931  20.627  0.00  0.00    +0.000 HD
BRANCH  16  18
ATOM     18  O   UNL     1       1.750   2.356  22.179  0.00  0.00    +0.000 OA
ATOM     19  H   UNL     1       1.038   3.032  22.206  0.00  0.00    +0.000 HD
ENDBRANCH  16  18
ENDBRANCH  13  14
ENDBRANCH   1  13
BRANCH   1  20
ATOM     20  C   UNL     1       2.986   5.838  19.934  0.00  0.00    +0.000 C 
BRANCH  20  21
ATOM     21  C   UNL     1       2.306   7.142  19.562  0.00  0.00    +0.000 A 
ATOM     22  C   UNL     1       1.592   7.865  20.527  0.00  0.00    +0.000 A 
ATOM     23  C   UNL     1       1.024   9.102  20.211  0.00  0.00    +0.000 A 
ATOM     24  C   UNL     1       1.157   9.635  18.925  0.00  0.00    +0.000 A 
ATOM     25  C   UNL     1       1.869   8.918  17.953  0.00  0.00    +0.000 A 
ATOM     26  C   UNL     1       2.432   7.675  18.271  0.00  0.00    +0.000 A 
BRANCH  24  27
ATOM     27  C   UNL     1       0.586  10.986  18.676  0.00  0.00    +0.000 C 
ATOM     28  O   UNL     1      -0.588  11.251  18.879  0.00  0.00    +0.000 OA
BRANCH  27  29
ATOM     29  O   UNL     1       1.461  11.883  18.177  0.00  0.00    +0.000 OA
ATOM     30  H   UNL     1       2.152  11.520  17.597  0.00  0.00    +0.000 HD
ENDBRANCH  27  29
ENDBRANCH  24  27
ENDBRANCH  20  21
ENDBRANCH   1  20
TORSDOF 10
ENDMDL
MODEL 7
REMARK VINA RESULT:      -7.2      2.205      5.483
REMARK  Name = 
REMARK  11 active torsions:
REMARK  status: ('A' for Active; 'I' for Inactive)
REMARK    1  A    between atoms: C_1  and  O_2
REMARK    2  A    between atoms: O_2  and  C_3
REMARK    3  A    between atoms: C_6  and  S_7
REMARK    4  A    between atoms: S_7  and  N_10
REMARK    5  A    between atoms: N_10  and  C_11
REMARK    6  A    between atoms: N_10  and  C_16
REMARK    7  A    between atoms: C_11  and  C_12
REMARK    8  A    between atoms: N_14  and  O_15
REMARK    9  A    between atoms: C_16  and  C_17
REMARK   10  A    between atoms: C_20  and  C_21
REMARK   11  A    between atoms: C_21  and  O_23
REMARK                            x       y       z     vdW  Elec       q    Type
REMARK                         _______ _______ _______ _____ _____    ______ ____
ROOT
ATOM      1  N   UNL     1       5.148   6.147  17.255  0.00  0.00    +0.000 NA
ENDROOT
BRANCH   1   2
ATOM      2  S   UNL     1       5.318   4.481  16.842  0.00  0.00    +0.000 S 
ATOM      3  O   UNL     1       6.662   4.107  17.236  0.00  0.00    +0.000 OA
ATOM      4  O   UNL     1       4.859   4.300  15.484  0.00  0.00    +0.000 OA
BRANCH   2   8
ATOM      5  C   UNL     1       2.188   2.602  19.573  0.00  0.00    +0.000 A 
ATOM      6  C   UNL     1       3.477   2.858  20.055  0.00  0.00    +0.000 A 
ATOM      7  C   UNL     1       4.469   3.366  19.209  0.00  0.00    +0.000 A 
ATOM      8  C   UNL     1       4.170   3.590  17.864  0.00  0.00    +0.000 A 
ATOM      9  C   UNL     1       2.898   3.294  17.363  0.00  0.00    +0.000 A 
ATOM     10  C   UNL     1       1.909   2.800  18.221  0.00  0.00    +0.000 A 
BRANCH   5  12
ATOM     11  C   UNL     1       1.528   2.541  21.845  0.00  0.00    +0.000 C 
ATOM     12  O   UNL     1       1.294   2.136  20.499  0.00  0.00    +0.000 OA
ENDBRANCH   5  12
ENDBRANCH   2   8
ENDBRANCH   1   2
BRANCH   1  13
ATOM     13  C   UNL     1       6.155   7.036  16.595  0.00  0.00    +0.000 C 
BRANCH  13  14
ATOM     14  C   UNL     1       7.232   7.641  17.465  0.00  0.00    +0.000 C 
ATOM     15  O   UNL     1       7.667   8.782  17.313  0.00  0.00    +0.000 OA
ATOM     16  N   UNL     1       7.753   6.780  18.407  0.00  0.00    +0.000 N 
ATOM     17  H   UNL     1       7.143   6.110  18.875  0.00  0.00    +0.000 HD
BRANCH  16  18
ATOM     18  O   UNL     1       8.785   7.329  19.209  0.00  0.00    +0.000 OA
ATOM     19  H   UNL     1       8.335   8.080  19.656  0.00  0.00    +0.000 HD
ENDBRANCH  16  18
ENDBRANCH  13  14
ENDBRANCH   1  13
BRANCH   1  20
ATOM     20  C   UNL     1       3.748   6.607  16.974  0.00  0.00    +0.000 C 
BRANCH  20  21
ATOM     21  C   UNL     1       2.998   7.204  18.150  0.00  0.00    +0.000 A 
ATOM     22  C   UNL     1       2.442   8.488  18.052  0.00  0.00    +0.000 A 
ATOM     23  C   UNL     1       1.689   9.017  19.104  0.00  0.00    +0.000 A 
ATOM     24  C   UNL     1       1.482   8.274  20.271  0.00  0.00    +0.000 A 
ATOM     25  C   UNL     1       2.035   6.990  20.377  0.00  0.00    +0.000 A 
ATOM     26  C   UNL     1       2.795   6.465  19.324  0.00  0.00    +0.000 A 
BRANCH  24  27
ATOM     27  C   UNL     1       0.614   8.870  21.323  0.00  0.00    +0.000 C 
ATOM     28  O   UNL     1      -0.507   8.452  21.564  0.00  0.00    +0.000 OA
BRANCH  27  29
ATOM     29  O   UNL     1       1.154   9.927  21.963  0.00  0.00    +0.000 OA
ATOM     30  H   UNL     1       0.531  10.473  22.472  0.00  0.00    +0.000 HD
ENDBRANCH  27  29
ENDBRANCH  24  27
ENDBRANCH  20  21
ENDBRANCH   1  20
TORSDOF 10
ENDMDL
MODEL 8
REMARK VINA RESULT:      -7.2      1.707      2.324
REMARK  Name = 
REMARK  11 active torsions:
REMARK  status: ('A' for Active; 'I' for Inactive)
REMARK    1  A    between atoms: C_1  and  O_2
REMARK    2  A    between atoms: O_2  and  C_3
REMARK    3  A    between atoms: C_6  and  S_7
REMARK    4  A    between atoms: S_7  and  N_10
REMARK    5  A    between atoms: N_10  and  C_11
REMARK    6  A    between atoms: N_10  and  C_16
REMARK    7  A    between atoms: C_11  and  C_12
REMARK    8  A    between atoms: N_14  and  O_15
REMARK    9  A    between atoms: C_16  and  C_17
REMARK   10  A    between atoms: C_20  and  C_21
REMARK   11  A    between atoms: C_21  and  O_23
REMARK                            x       y       z     vdW  Elec       q    Type
REMARK                         _______ _______ _______ _____ _____    ______ ____
ROOT
ATOM      1  N   UNL     1       2.856   4.643  18.442  0.00  0.00    +0.000 NA
ENDROOT
BRANCH   1   2
ATOM      2  S   UNL     1       4.160   3.539  18.201  0.00  0.00    +0.000 S 
ATOM      3  O   UNL     1       3.576   2.357  17.599  0.00  0.00    +0.000 OA
ATOM      4  O   UNL     1       4.919   3.457  19.428  0.00  0.00    +0.000 OA
BRANCH   2   8
ATOM      5  C   UNL     1       7.059   5.049  15.021  0.00  0.00    +0.000 A 
ATOM      6  C   UNL     1       7.468   4.957  16.357  0.00  0.00    +0.000 A 
ATOM      7  C   UNL     1       6.568   4.566  17.355  0.00  0.00    +0.000 A 
ATOM      8  C   UNL     1       5.243   4.293  17.011  0.00  0.00    +0.000 A 
ATOM      9  C   UNL     1       4.815   4.426  15.686  0.00  0.00    +0.000 A 
ATOM     10  C   UNL     1       5.725   4.804  14.693  0.00  0.00    +0.000 A 
BRANCH   5  12
ATOM     11  C   UNL     1       7.753   5.134  12.760  0.00  0.00    +0.000 C 
ATOM     12  O   UNL     1       8.032   5.411  14.131  0.00  0.00    +0.000 OA
ENDBRANCH   5  12
ENDBRANCH   2   8
ENDBRANCH   1   2
BRANCH   1  13
ATOM     13  C   UNL     1       1.572   3.981  18.832  0.00  0.00    +0.000 C 
BRANCH  13  14
ATOM     14  C   UNL     1       1.606   3.021  19.998  0.00  0.00    +0.000 C 
ATOM     15  O   UNL     1       1.565   1.798  19.871  0.00  0.00    +0.000 OA
ATOM     16  N   UNL     1       1.609   3.627  21.236  0.00  0.00    +0.000 N 
ATOM     17  H   UNL     1       2.126   4.495  21.374  0.00  0.00    +0.000 HD
BRANCH  16  18
ATOM     18  O   UNL     1       1.611   2.735  22.336  0.00  0.00    +0.000 OA
ATOM     19  H   UNL     1       1.768   1.864  21.909  0.00  0.00    +0.000 HD
ENDBRANCH  16  18
ENDBRANCH  13  14
ENDBRANCH   1  13
BRANCH   1  20
ATOM     20  C   UNL     1       3.251   5.697  19.435  0.00  0.00    +0.000 C 
BRANCH  20  21
ATOM     21  C   UNL     1       2.457   6.988  19.381  0.00  0.00    +0.000 A 
ATOM     22  C   UNL     1       1.821   7.473  20.532  0.00  0.00    +0.000 A 
ATOM     23  C   UNL     1       1.148   8.698  20.509  0.00  0.00    +0.000 A 
ATOM     24  C   UNL     1       1.097   9.456  19.335  0.00  0.00    +0.000 A 
ATOM     25  C   UNL     1       1.729   8.978  18.179  0.00  0.00    +0.000 A 
ATOM     26  C   UNL     1       2.397   7.747  18.203  0.00  0.00    +0.000 A 
BRANCH  24  27
ATOM     27  C   UNL     1       0.422  10.781  19.399  0.00  0.00    +0.000 C 
ATOM     28  O   UNL     1      -0.211  11.242  18.462  0.00  0.00    +0.000 OA
BRANCH  27  29
ATOM     29  O   UNL     1       0.594  11.444  20.560  0.00  0.00    +0.000 OA
ATOM     30  H   UNL     1       0.170  12.317  20.614  0.00  0.00    +0.000 HD
ENDBRANCH  27  29
ENDBRANCH  24  27
ENDBRANCH  20  21
ENDBRANCH   1  20
TORSDOF 10
ENDMDL
MODEL 9
REMARK VINA RESULT:      -7.2      1.154      1.518
REMARK  Name = 
REMARK  11 active torsions:
REMARK  status: ('A' for Active; 'I' for Inactive)
REMARK    1  A    between atoms: C_1  and  O_2
REMARK    2  A    between atoms: O_2  and  C_3
REMARK    3  A    between atoms: C_6  and  S_7
REMARK    4  A    between atoms: S_7  and  N_10
REMARK    5  A    between atoms: N_10  and  C_11
REMARK    6  A    between atoms: N_10  and  C_16
REMARK    7  A    between atoms: C_11  and  C_12
REMARK    8  A    between atoms: N_14  and  O_15
REMARK    9  A    between atoms: C_16  and  C_17
REMARK   10  A    between atoms: C_20  and  C_21
REMARK   11  A    between atoms: C_21  and  O_23
REMARK                            x       y       z     vdW  Elec       q    Type
REMARK                         _______ _______ _______ _____ _____    ______ ____
ROOT
ATOM      1  N   UNL     1       3.312   5.173  17.891  0.00  0.00    +0.000 NA
ENDROOT
BRANCH   1   2
ATOM      2  S   UNL     1       4.773   4.257  17.845  0.00  0.00    +0.000 S 
ATOM      3  O   UNL     1       4.800   3.613  16.547  0.00  0.00    +0.000 OA
ATOM      4  O   UNL     1       4.866   3.487  19.064  0.00  0.00    +0.000 OA
BRANCH   2   8
ATOM      5  C   UNL     1       7.964   7.473  18.363  0.00  0.00    +0.000 A 
ATOM      6  C   UNL     1       6.965   7.625  17.395  0.00  0.00    +0.000 A 
ATOM      7  C   UNL     1       6.023   6.614  17.174  0.00  0.00    +0.000 A 
ATOM      8  C   UNL     1       6.104   5.432  17.912  0.00  0.00    +0.000 A 
ATOM      9  C   UNL     1       7.126   5.253  18.849  0.00  0.00    +0.000 A 
ATOM     10  C   UNL     1       8.055   6.275  19.073  0.00  0.00    +0.000 A 
BRANCH   5  12
ATOM     11  C   UNL     1       8.335   9.782  18.000  0.00  0.00    +0.000 C 
ATOM     12  O   UNL     1       8.810   8.538  18.511  0.00  0.00    +0.000 OA
ENDBRANCH   5  12
ENDBRANCH   2   8
ENDBRANCH   1   2
BRANCH   1  13
ATOM     13  C   UNL     1       2.109   4.409  17.433  0.00  0.00    +0.000 C 
BRANCH  13  14
ATOM     14  C   UNL     1       1.555   3.353  18.359  0.00  0.00    +0.000 C 
ATOM     15  O   UNL     1       0.708   3.581  19.221  0.00  0.00    +0.000 OA
ATOM     16  N   UNL     1       2.135   2.110  18.216  0.00  0.00    +0.000 N 
ATOM     17  H   UNL     1       2.401   1.778  17.289  0.00  0.00    +0.000 HD
BRANCH  16  18
ATOM     18  O   UNL     1       1.643   1.118  19.101  0.00  0.00    +0.000 OA
ATOM     19  H   UNL     1       1.441   0.370  18.496  0.00  0.00    +0.000 HD
ENDBRANCH  16  18
ENDBRANCH  13  14
ENDBRANCH   1  13
BRANCH   1  20
ATOM     20  C   UNL     1       3.105   5.744  19.263  0.00  0.00    +0.000 C 
BRANCH  20  21
ATOM     21  C   UNL     1       2.441   7.107  19.321  0.00  0.00    +0.000 A 
ATOM     22  C   UNL     1       2.400   7.919  18.179  0.00  0.00    +0.000 A 
ATOM     23  C   UNL     1       1.729   9.144  18.203  0.00  0.00    +0.000 A 
ATOM     24  C   UNL     1       1.089   9.579  19.368  0.00  0.00    +0.000 A 
ATOM     25  C   UNL     1       1.125   8.773  20.514  0.00  0.00    +0.000 A 
ATOM     26  C   UNL     1       1.805   7.548  20.490  0.00  0.00    +0.000 A 
BRANCH  24  27
ATOM     27  C   UNL     1       0.336  10.861  19.304  0.00  0.00    +0.000 C 
ATOM     28  O   UNL     1      -0.236  11.336  20.273  0.00  0.00    +0.000 OA
BRANCH  27  29
ATOM     29  O   UNL     1       0.308  11.436  18.085  0.00  0.00    +0.000 OA
ATOM     30  H   UNL     1      -0.576  11.652  17.741  0.00  0.00    +0.000 HD
ENDBRANCH  27  29
ENDBRANCH  24  27
ENDBRANCH  20  21
ENDBRANCH   1  20
TORSDOF 10
ENDMDL
