MODEL 1
REMARK VINA RESULT:      -7.2      0.000      0.000
REMARK  Name = 
REMARK  8 active torsions:
REMARK  status: ('A' for Active; 'I' for Inactive)
REMARK    1  A    between atoms: C_1  and  C_2
REMARK    2  A    between atoms: C_2  and  C_3
REMARK    3  A    between atoms: C_2  and  C_4
REMARK    4  A    between atoms: N_8  and  C_9
REMARK    5  A    between atoms: C_14  and  C_16
REMARK    6  A    between atoms: C_16  and  C_17
REMARK    7  A    between atoms: C_17  and  C_18
REMARK    8  A    between atoms: N_21  and  C_22
REMARK                            x       y       z     vdW  Elec       q    Type
REMARK                         _______ _______ _______ _____ _____    ______ ____
ROOT
ATOM      1  C   UNL     1       4.568   4.798  19.032  0.00  0.00    +0.000 C 
ATOM      2  C   UNL     1       3.749   6.085  18.836  0.00  0.00    +0.000 C 
ATOM      3  C   UNL     1       3.635   6.540  17.386  0.00  0.00    +0.000 C 
ATOM      4  C   UNL     1       4.919   6.459  16.573  0.00  0.00    +0.000 C 
ATOM      5  N   UNL     1       5.757   5.306  16.830  0.00  0.00    +0.000 N 
ATOM      6  C   UNL     1       6.780   4.888  15.966  0.00  0.00    +0.000 C 
ATOM      7  O   UNL     1       7.593   4.013  16.293  0.00  0.00    +0.000 OA
ATOM      8  C   UNL     1       5.899   4.919  18.255  0.00  0.00    +0.000 C 
ENDROOT
BRANCH   1  13
ATOM      9  C   UNL     1       2.928   2.937  19.709  0.00  0.00    +0.000 A 
ATOM     10  N   UNL     1       2.527   1.778  19.214  0.00  0.00    +0.000 NA
ATOM     11  C   UNL     1       2.984   1.741  17.928  0.00  0.00    +0.000 A 
ATOM     12  C   UNL     1       3.764   2.835  17.658  0.00  0.00    +0.000 A 
ATOM     13  N   UNL     1       3.806   3.564  18.819  0.00  0.00    +0.000 N 
BRANCH   9  15
ATOM     14  C   UNL     1       0.992   4.323  20.273  0.00  0.00    +0.000 C 
ATOM     15  C   UNL     1       2.230   3.626  20.858  0.00  0.00    +0.000 C 
ATOM     16  C   UNL     1       1.775   2.728  22.015  0.00  0.00    +0.000 C 
ENDBRANCH   9  15
ENDBRANCH   1  13
BRANCH   6  17
ATOM     17  C   UNL     1       6.856   5.460  14.545  0.00  0.00    +0.000 C 
BRANCH  17  18
ATOM     18  C   UNL     1       7.419   4.543  13.460  0.00  0.00    +0.000 C 
BRANCH  18  19
ATOM     19  C   UNL     1       6.417   3.757  12.688  0.00  0.00    +0.000 A 
ATOM     20  C   UNL     1       6.624   2.529  12.012  0.00  0.00    +0.000 A 
ATOM     21  N   UNL     1       5.540   2.108  11.359  0.00  0.00    +0.000 NA
ATOM     22  N   UNL     1       4.633   3.072  11.602  0.00  0.00    +0.000 N 
ATOM     23  C   UNL     1       3.337   3.034  10.971  0.00  0.00    +0.000 C 
ATOM     24  C   UNL     1       5.098   4.056  12.424  0.00  0.00    +0.000 A 
ENDBRANCH  18  19
ENDBRANCH  17  18
ENDBRANCH   6  17
TORSDOF 5
ENDMDL
MODEL 2
REMARK VINA RESULT:      -6.9      0.604      1.047
REMARK  Name = 
REMARK  8 active torsions:
REMARK  status: ('A' for Active; 'I' for Inactive)
REMARK    1  A    between atoms: C_1  and  C_2
REMARK    2  A    between atoms: C_2  and  C_3
REMARK    3  A    between atoms: C_2  and  C_4
REMARK    4  A    between atoms: N_8  and  C_9
REMARK    5  A    between atoms: C_14  and  C_16
REMARK    6  A    between atoms: C_16  and  C_17
REMARK    7  A    between atoms: C_17  and  C_18
REMARK    8  A    between atoms: N_21  and  C_22
REMARK                            x       y       z     vdW  Elec       q    Type
REMARK                         _______ _______ _______ _____ _____    ______ ____
ROOT
ATOM      1  C   UNL     1       4.563   4.712  19.094  0.00  0.00    +0.000 C 
ATOM      2  C   UNL     1       3.861   6.080  19.089  0.00  0.00    +0.000 C 
ATOM      3  C   UNL     1       3.709   6.701  17.706  0.00  0.00    +0.000 C 
ATOM      4  C   UNL     1       4.933   6.598  16.806  0.00  0.00    +0.000 C 
ATOM      5  N   UNL     1       5.670   5.353  16.885  0.00  0.00    +0.000 N 
ATOM      6  C   UNL     1       6.599   4.945  15.916  0.00  0.00    +0.000 C 
ATOM      7  O   UNL     1       7.342   3.970  16.096  0.00  0.00    +0.000 OA
ATOM      8  C   UNL     1       5.854   4.800  18.249  0.00  0.00    +0.000 C 
ENDROOT
BRANCH   1  13
ATOM      9  C   UNL     1       2.786   2.947  19.677  0.00  0.00    +0.000 A 
ATOM     10  N   UNL     1       2.252   1.888  19.092  0.00  0.00    +0.000 NA
ATOM     11  C   UNL     1       2.641   1.945  17.784  0.00  0.00    +0.000 A 
ATOM     12  C   UNL     1       3.509   2.985  17.581  0.00  0.00    +0.000 A 
ATOM     13  N   UNL     1       3.676   3.581  18.804  0.00  0.00    +0.000 N 
BRANCH   9  15
ATOM     14  C   UNL     1       1.045   4.466  20.482  0.00  0.00    +0.000 C 
ATOM     15  C   UNL     1       2.213   3.573  20.926  0.00  0.00    +0.000 C 
ATOM     16  C   UNL     1       1.698   2.604  21.998  0.00  0.00    +0.000 C 
ENDBRANCH   9  15
ENDBRANCH   1  13
BRANCH   6  17
ATOM     17  C   UNL     1       6.649   5.661  14.561  0.00  0.00    +0.000 C 
BRANCH  17  18
ATOM     18  C   UNL     1       7.396   4.952  13.432  0.00  0.00    +0.000 C 
BRANCH  18  19
ATOM     19  C   UNL     1       6.618   3.931  12.677  0.00  0.00    +0.000 A 
ATOM     20  C   UNL     1       5.209   3.844  12.551  0.00  0.00    +0.000 A 
ATOM     21  N   UNL     1       4.817   2.774  11.857  0.00  0.00    +0.000 NA
ATOM     22  N   UNL     1       5.973   2.161  11.545  0.00  0.00    +0.000 N 
ATOM     23  C   UNL     1       5.967   0.886  10.872  0.00  0.00    +0.000 C 
ATOM     24  C   UNL     1       7.077   2.836  11.977  0.00  0.00    +0.000 A 
ENDBRANCH  18  19
ENDBRANCH  17  18
ENDBRANCH   6  17
TORSDOF 5
ENDMDL
MODEL 3
REMARK VINA RESULT:      -6.5      4.050      7.988
REMARK  Name = 
REMARK  8 active torsions:
REMARK  status: ('A' for Active; 'I' for Inactive)
REMARK    1  A    between atoms: C_1  and  C_2
REMARK    2  A    between atoms: C_2  and  C_3
REMARK    3  A    between atoms: C_2  and  C_4
REMARK    4  A    between atoms: N_8  and  C_9
REMARK    5  A    between atoms: C_14  and  C_16
REMARK    6  A    between atoms: C_16  and  C_17
REMARK    7  A    between atoms: C_17  and  C_18
REMARK    8  A    between atoms: N_21  and  C_22
REMARK                            x       y       z     vdW  Elec       q    Type
REMARK                         _______ _______ _______ _____ _____    ______ ____
ROOT
ATOM      1  C   UNL     1       4.796   4.348  18.268  0.00  0.00    +0.000 C 
ATOM      2  C   UNL     1       3.748   3.250  18.024  0.00  0.00    +0.000 C 
ATOM      3  C   UNL     1       2.489   3.733  17.314  0.00  0.00    +0.000 C 
ATOM      4  C   UNL     1       1.932   5.062  17.805  0.00  0.00    +0.000 C 
ATOM      5  N   UNL     1       2.915   6.070  18.147  0.00  0.00    +0.000 N 
ATOM      6  C   UNL     1       2.606   7.431  18.287  0.00  0.00    +0.000 C 
ATOM      7  O   UNL     1       3.421   8.240  18.753  0.00  0.00    +0.000 OA
ATOM      8  C   UNL     1       4.104   5.584  18.888  0.00  0.00    +0.000 C 
ENDROOT
BRANCH   1  13
ATOM      9  C   UNL     1       6.520   5.702  16.923  0.00  0.00    +0.000 A 
ATOM     10  N   UNL     1       7.057   5.650  15.716  0.00  0.00    +0.000 NA
ATOM     11  C   UNL     1       6.718   4.429  15.206  0.00  0.00    +0.000 A 
ATOM     12  C   UNL     1       5.875   3.764  16.059  0.00  0.00    +0.000 A 
ATOM     13  N   UNL     1       5.673   4.607  17.122  0.00  0.00    +0.000 N 
BRANCH   9  15
ATOM     14  C   UNL     1       8.004   5.719  18.869  0.00  0.00    +0.000 C 
ATOM     15  C   UNL     1       7.057   6.585  18.024  0.00  0.00    +0.000 C 
ATOM     16  C   UNL     1       7.819   7.840  17.580  0.00  0.00    +0.000 C 
ENDBRANCH   9  15
ENDBRANCH   1  13
BRANCH   6  17
ATOM     17  C   UNL     1       1.261   7.963  17.780  0.00  0.00    +0.000 C 
BRANCH  17  18
ATOM     18  C   UNL     1       1.006   9.461  17.934  0.00  0.00    +0.000 C 
BRANCH  18  19
ATOM     19  C   UNL     1       0.339   9.883  19.197  0.00  0.00    +0.000 A 
ATOM     20  C   UNL     1      -0.573  10.952  19.372  0.00  0.00    +0.000 A 
ATOM     21  N   UNL     1      -0.947  11.111  20.642  0.00  0.00    +0.000 NA
ATOM     22  N   UNL     1      -0.266  10.151  21.293  0.00  0.00    +0.000 N 
ATOM     23  C   UNL     1      -0.321  10.060  22.731  0.00  0.00    +0.000 C 
ATOM     24  C   UNL     1       0.484   9.366  20.467  0.00  0.00    +0.000 A 
ENDBRANCH  18  19
ENDBRANCH  17  18
ENDBRANCH   6  17
TORSDOF 5
ENDMDL
MODEL 4
REMARK VINA RESULT:      -6.3      4.190      7.720
REMARK  Name = 
REMARK  8 active torsions:
REMARK  status: ('A' for Active; 'I' for Inactive)
REMARK    1  A    between atoms: C_1  and  C_2
REMARK    2  A    between atoms: C_2  and  C_3
REMARK    3  A    between atoms: C_2  and  C_4
REMARK    4  A    between atoms: N_8  and  C_9
REMARK    5  A    between atoms: C_14  and  C_16
REMARK    6  A    between atoms: C_16  and  C_17
REMARK    7  A    between atoms: C_17  and  C_18
REMARK    8  A    between atoms: N_21  and  C_22
REMARK                            x       y       z     vdW  Elec       q    Type
REMARK                         _______ _______ _______ _____ _____    ______ ____
ROOT
ATOM      1  C   UNL     1       4.966   3.996  18.020  0.00  0.00    +0.000 C 
ATOM      2  C   UNL     1       3.929   2.923  17.652  0.00  0.00    +0.000 C 
ATOM      3  C   UNL     1       2.650   3.475  17.035  0.00  0.00    +0.000 C 
ATOM      4  C   UNL     1       2.084   4.718  17.706  0.00  0.00    +0.000 C 
ATOM      5  N   UNL     1       3.059   5.688  18.160  0.00  0.00    +0.000 N 
ATOM      6  C   UNL     1       2.735   7.014  18.483  0.00  0.00    +0.000 C 
ATOM      7  O   UNL     1       3.548   7.768  19.037  0.00  0.00    +0.000 OA
ATOM      8  C   UNL     1       4.269   5.128  18.810  0.00  0.00    +0.000 C 
ENDROOT
BRANCH   1  13
ATOM      9  C   UNL     1       6.568   5.592  16.795  0.00  0.00    +0.000 A 
ATOM     10  N   UNL     1       7.106   5.681  15.591  0.00  0.00    +0.000 NA
ATOM     11  C   UNL     1       6.871   4.480  14.985  0.00  0.00    +0.000 A 
ATOM     12  C   UNL     1       6.088   3.681  15.778  0.00  0.00    +0.000 A 
ATOM     13  N   UNL     1       5.817   4.417  16.903  0.00  0.00    +0.000 N 
BRANCH   9  15
ATOM     14  C   UNL     1       7.989   5.553  18.787  0.00  0.00    +0.000 C 
ATOM     15  C   UNL     1       7.030   6.428  17.966  0.00  0.00    +0.000 C 
ATOM     16  C   UNL     1       7.748   7.740  17.625  0.00  0.00    +0.000 C 
ENDBRANCH   9  15
ENDBRANCH   1  13
BRANCH   6  17
ATOM     17  C   UNL     1       1.372   7.586  18.074  0.00  0.00    +0.000 C 
BRANCH  17  18
ATOM     18  C   UNL     1       1.338   9.051  17.643  0.00  0.00    +0.000 C 
BRANCH  18  19
ATOM     19  C   UNL     1       0.354   9.916  18.352  0.00  0.00    +0.000 A 
ATOM     20  C   UNL     1       0.438  10.402  19.680  0.00  0.00    +0.000 A 
ATOM     21  N   UNL     1      -0.636  11.105  20.043  0.00  0.00    +0.000 NA
ATOM     22  N   UNL     1      -1.422  11.062  18.952  0.00  0.00    +0.000 N 
ATOM     23  C   UNL     1      -2.748  11.629  18.982  0.00  0.00    +0.000 C 
ATOM     24  C   UNL     1      -0.856  10.399  17.904  0.00  0.00    +0.000 A 
ENDBRANCH  18  19
ENDBRANCH  17  18
ENDBRANCH   6  17
TORSDOF 5
ENDMDL
MODEL 5
REMARK VINA RESULT:      -6.2      5.040      7.349
REMARK  Name = 
REMARK  8 active torsions:
REMARK  status: ('A' for Active; 'I' for Inactive)
REMARK    1  A    between atoms: C_1  and  C_2
REMARK    2  A    between atoms: C_2  and  C_3
REMARK    3  A    between atoms: C_2  and  C_4
REMARK    4  A    between atoms: N_8  and  C_9
REMARK    5  A    between atoms: C_14  and  C_16
REMARK    6  A    between atoms: C_16  and  C_17
REMARK    7  A    between atoms: C_17  and  C_18
REMARK    8  A    between atoms: N_21  and  C_22
REMARK                            x       y       z     vdW  Elec       q    Type
REMARK                         _______ _______ _______ _____ _____    ______ ____
ROOT
ATOM      1  C   UNL     1       5.622   5.608  17.087  0.00  0.00    +0.000 C 
ATOM      2  C   UNL     1       6.196   4.505  17.991  0.00  0.00    +0.000 C 
ATOM      3  C   UNL     1       6.964   5.024  19.201  0.00  0.00    +0.000 C 
ATOM      4  C   UNL     1       7.902   6.190  18.928  0.00  0.00    +0.000 C 
ATOM      5  N   UNL     1       7.419   7.182  17.990  0.00  0.00    +0.000 N 
ATOM      6  C   UNL     1       7.973   8.465  17.871  0.00  0.00    +0.000 C 
ATOM      7  O   UNL     1       7.662   9.226  16.944  0.00  0.00    +0.000 OA
ATOM      8  C   UNL     1       6.727   6.649  16.791  0.00  0.00    +0.000 C 
ENDROOT
BRANCH   1  13
ATOM      9  C   UNL     1       3.202   5.426  17.937  0.00  0.00    +0.000 A 
ATOM     10  N   UNL     1       2.192   6.252  18.153  0.00  0.00    +0.000 NA
ATOM     11  C   UNL     1       2.715   7.511  18.086  0.00  0.00    +0.000 A 
ATOM     12  C   UNL     1       4.035   7.470  17.720  0.00  0.00    +0.000 A 
ATOM     13  N   UNL     1       4.334   6.144  17.538  0.00  0.00    +0.000 N 
BRANCH   9  15
ATOM     14  C   UNL     1       2.461   3.984  19.769  0.00  0.00    +0.000 C 
ATOM     15  C   UNL     1       3.218   4.000  18.432  0.00  0.00    +0.000 C 
ATOM     16  C   UNL     1       2.588   2.950  17.509  0.00  0.00    +0.000 C 
ENDBRANCH   9  15
ENDBRANCH   1  13
BRANCH   6  17
ATOM     17  C   UNL     1       8.926   8.986  18.953  0.00  0.00    +0.000 C 
BRANCH  17  18
ATOM     18  C   UNL     1       8.862  10.479  19.271  0.00  0.00    +0.000 C 
BRANCH  18  19
ATOM     19  C   UNL     1       9.951  11.315  18.695  0.00  0.00    +0.000 A 
ATOM     20  C   UNL     1      11.307  11.360  19.102  0.00  0.00    +0.000 A 
ATOM     21  N   UNL     1      12.021  12.260  18.423  0.00  0.00    +0.000 NA
ATOM     22  N   UNL     1      11.123  12.807  17.585  0.00  0.00    +0.000 N 
ATOM     23  C   UNL     1      11.490  13.917  16.740  0.00  0.00    +0.000 C 
ATOM     24  C   UNL     1       9.883  12.247  17.681  0.00  0.00    +0.000 A 
ENDBRANCH  18  19
ENDBRANCH  17  18
ENDBRANCH   6  17
TORSDOF 5
ENDMDL
MODEL 6
REMARK VINA RESULT:      -6.1      4.057      8.034
REMARK  Name = 
REMARK  8 active torsions:
REMARK  status: ('A' for Active; 'I' for Inactive)
REMARK    1  A    between atoms: C_1  and  C_2
REMARK    2  A    between atoms: C_2  and  C_3
REMARK    3  A    between atoms: C_2  and  C_4
REMARK    4  A    between atoms: N_8  and  C_9
REMARK    5  A    between atoms: C_14  and  C_16
REMARK    6  A    between atoms: C_16  and  C_17
REMARK    7  A    between atoms: C_17  and  C_18
REMARK    8  A    between atoms: N_21  and  C_22
REMARK                            x       y       z     vdW  Elec       q    Type
REMARK                         _______ _______ _______ _____ _____    ______ ____
ROOT
ATOM      1  C   UNL     1       4.766   4.995  18.217  0.00  0.00    +0.000 C 
ATOM      2  C   UNL     1       3.755   3.858  18.436  0.00  0.00    +0.000 C 
ATOM      3  C   UNL     1       2.353   4.160  17.921  0.00  0.00    +0.000 C 
ATOM      4  C   UNL     1       1.832   5.557  18.225  0.00  0.00    +0.000 C 
ATOM      5  N   UNL     1       2.805   6.626  18.133  0.00  0.00    +0.000 N 
ATOM      6  C   UNL     1       2.454   7.982  18.044  0.00  0.00    +0.000 C 
ATOM      7  O   UNL     1       3.299   8.882  18.147  0.00  0.00    +0.000 OA
ATOM      8  C   UNL     1       4.145   6.328  18.694  0.00  0.00    +0.000 C 
ENDROOT
BRANCH   1  13
ATOM      9  C   UNL     1       6.504   5.723  16.467  0.00  0.00    +0.000 A 
ATOM     10  N   UNL     1       6.678   5.579  15.165  0.00  0.00    +0.000 NA
ATOM     11  C   UNL     1       5.790   4.620  14.770  0.00  0.00    +0.000 A 
ATOM     12  C   UNL     1       4.986   4.244  15.815  0.00  0.00    +0.000 A 
ATOM     13  N   UNL     1       5.378   5.007  16.885  0.00  0.00    +0.000 N 
BRANCH   9  15
ATOM     14  C   UNL     1       7.311   7.747  17.583  0.00  0.00    +0.000 C 
ATOM     15  C   UNL     1       7.581   6.247  17.388  0.00  0.00    +0.000 C 
ATOM     16  C   UNL     1       7.673   5.590  18.771  0.00  0.00    +0.000 C 
ENDBRANCH   9  15
ENDBRANCH   1  13
BRANCH   6  17
ATOM     17  C   UNL     1       1.005   8.374  17.730  0.00  0.00    +0.000 C 
BRANCH  17  18
ATOM     18  C   UNL     1       0.586   9.803  18.071  0.00  0.00    +0.000 C 
BRANCH  18  19
ATOM     19  C   UNL     1       0.483  10.123  19.522  0.00  0.00    +0.000 A 
ATOM     20  C   UNL     1       1.019  11.248  20.195  0.00  0.00    +0.000 A 
ATOM     21  N   UNL     1       0.806  11.215  21.511  0.00  0.00    +0.000 NA
ATOM     22  N   UNL     1       0.142  10.060  21.692  0.00  0.00    +0.000 N 
ATOM     23  C   UNL     1      -0.184   9.603  23.021  0.00  0.00    +0.000 C 
ATOM     24  C   UNL     1      -0.111   9.393  20.530  0.00  0.00    +0.000 A 
ENDBRANCH  18  19
ENDBRANCH  17  18
ENDBRANCH   6  17
TORSDOF 5
ENDMDL
MODEL 7
REMARK VINA RESULT:      -6.1      6.687      8.883
REMARK  Name = 
REMARK  8 active torsions:
REMARK  status: ('A' for Active; 'I' for Inactive)
REMARK    1  A    between atoms: C_1  and  C_2
REMARK    2  A    between atoms: C_2  and  C_3
REMARK    3  A    between atoms: C_2  and  C_4
REMARK    4  A    between atoms: N_8  and  C_9
REMARK    5  A    between atoms: C_14  and  C_16
REMARK    6  A    between atoms: C_16  and  C_17
REMARK    7  A    between atoms: C_17  and  C_18
REMARK    8  A    between atoms: N_21  and  C_22
REMARK                            x       y       z     vdW  Elec       q    Type
REMARK                         _______ _______ _______ _____ _____    ______ ____
ROOT
ATOM      1  C   UNL     1      -0.670  10.940  21.293  0.00  0.00    +0.000 C 
ATOM      2  C   UNL     1      -0.489  10.064  22.543  0.00  0.00    +0.000 C 
ATOM      3  C   UNL     1       0.784   9.228  22.542  0.00  0.00    +0.000 C 
ATOM      4  C   UNL     1       1.118   8.548  21.222  0.00  0.00    +0.000 C 
ATOM      5  N   UNL     1       0.845   9.322  20.028  0.00  0.00    +0.000 N 
ATOM      6  C   UNL     1       1.386   9.014  18.770  0.00  0.00    +0.000 C 
ATOM      7  O   UNL     1       0.997   9.579  17.738  0.00  0.00    +0.000 OA
ATOM      8  C   UNL     1      -0.428  10.081  20.030  0.00  0.00    +0.000 C 
ENDROOT
BRANCH   1  13
ATOM      9  C   UNL     1      -0.339  13.381  22.031  0.00  0.00    +0.000 A 
ATOM     10  N   UNL     1       0.489  14.371  21.744  0.00  0.00    +0.000 NA
ATOM     11  C   UNL     1       1.513  13.810  21.035  0.00  0.00    +0.000 A 
ATOM     12  C   UNL     1       1.265  12.485  20.789  0.00  0.00    +0.000 A 
ATOM     13  N   UNL     1       0.041  12.221  21.348  0.00  0.00    +0.000 N 
BRANCH   9  15
ATOM     14  C   UNL     1      -1.061  14.760  23.920  0.00  0.00    +0.000 C 
ATOM     15  C   UNL     1      -1.284  13.416  23.209  0.00  0.00    +0.000 C 
ATOM     16  C   UNL     1      -2.777  13.282  22.888  0.00  0.00    +0.000 C 
ENDBRANCH   9  15
ENDBRANCH   1  13
BRANCH   6  17
ATOM     17  C   UNL     1       2.543   8.015  18.663  0.00  0.00    +0.000 C 
BRANCH  17  18
ATOM     18  C   UNL     1       2.276   6.727  17.885  0.00  0.00    +0.000 C 
BRANCH  18  19
ATOM     19  C   UNL     1       3.175   5.581  18.195  0.00  0.00    +0.000 A 
ATOM     20  C   UNL     1       4.261   5.106  17.418  0.00  0.00    +0.000 A 
ATOM     21  N   UNL     1       4.833   4.019  17.939  0.00  0.00    +0.000 NA
ATOM     22  N   UNL     1       4.109   3.783  19.047  0.00  0.00    +0.000 N 
ATOM     23  C   UNL     1       4.355   2.608  19.846  0.00  0.00    +0.000 C 
ATOM     24  C   UNL     1       3.135   4.713  19.264  0.00  0.00    +0.000 A 
ENDBRANCH  18  19
ENDBRANCH  17  18
ENDBRANCH   6  17
TORSDOF 5
ENDMDL
MODEL 8
REMARK VINA RESULT:      -6.0      6.884      9.681
REMARK  Name = 
REMARK  8 active torsions:
REMARK  status: ('A' for Active; 'I' for Inactive)
REMARK    1  A    between atoms: C_1  and  C_2
REMARK    2  A    between atoms: C_2  and  C_3
REMARK    3  A    between atoms: C_2  and  C_4
REMARK    4  A    between atoms: N_8  and  C_9
REMARK    5  A    between atoms: C_14  and  C_16
REMARK    6  A    between atoms: C_16  and  C_17
REMARK    7  A    between atoms: C_17  and  C_18
REMARK    8  A    between atoms: N_21  and  C_22
REMARK                            x       y       z     vdW  Elec       q    Type
REMARK                         _______ _______ _______ _____ _____    ______ ____
ROOT
ATOM      1  C   UNL     1      -0.266  12.427  19.319  0.00  0.00    +0.000 C 
ATOM      2  C   UNL     1      -0.927  12.087  20.665  0.00  0.00    +0.000 C 
ATOM      3  C   UNL     1      -0.206  11.006  21.460  0.00  0.00    +0.000 C 
ATOM      4  C   UNL     1       0.269   9.807  20.651  0.00  0.00    +0.000 C 
ATOM      5  N   UNL     1       0.791  10.104  19.333  0.00  0.00    +0.000 N 
ATOM      6  C   UNL     1       1.570   9.202  18.591  0.00  0.00    +0.000 C 
ATOM      7  O   UNL     1       1.850   9.408  17.402  0.00  0.00    +0.000 OA
ATOM      8  C   UNL     1       0.037  11.118  18.555  0.00  0.00    +0.000 C 
ENDROOT
BRANCH   1  13
ATOM      9  C   UNL     1       0.822  14.745  19.076  0.00  0.00    +0.000 A 
ATOM     10  N   UNL     1       2.037  15.255  19.183  0.00  0.00    +0.000 NA
ATOM     11  C   UNL     1       2.799  14.290  19.776  0.00  0.00    +0.000 A 
ATOM     12  C   UNL     1       2.079  13.135  19.939  0.00  0.00    +0.000 A 
ATOM     13  N   UNL     1       0.837  13.388  19.416  0.00  0.00    +0.000 N 
BRANCH   9  15
ATOM     14  C   UNL     1      -0.835  15.929  20.433  0.00  0.00    +0.000 C 
ATOM     15  C   UNL     1      -0.423  15.597  18.991  0.00  0.00    +0.000 C 
ATOM     16  C   UNL     1      -0.296  16.911  18.210  0.00  0.00    +0.000 C 
ENDBRANCH   9  15
ENDBRANCH   1  13
BRANCH   6  17
ATOM     17  C   UNL     1       2.165   7.968  19.278  0.00  0.00    +0.000 C 
BRANCH  17  18
ATOM     18  C   UNL     1       2.637   6.832  18.372  0.00  0.00    +0.000 C 
BRANCH  18  19
ATOM     19  C   UNL     1       2.217   5.461  18.773  0.00  0.00    +0.000 A 
ATOM     20  C   UNL     1       1.689   4.445  17.939  0.00  0.00    +0.000 A 
ATOM     21  N   UNL     1       1.352   3.344  18.614  0.00  0.00    +0.000 NA
ATOM     22  N   UNL     1       1.650   3.654  19.888  0.00  0.00    +0.000 N 
ATOM     23  C   UNL     1       1.325   2.743  20.958  0.00  0.00    +0.000 C 
ATOM     24  C   UNL     1       2.207   4.891  20.028  0.00  0.00    +0.000 A 
ENDBRANCH  18  19
ENDBRANCH  17  18
ENDBRANCH   6  17
TORSDOF 5
ENDMDL
MODEL 9
REMARK VINA RESULT:      -6.0      6.640      9.147
REMARK  Name = 
REMARK  8 active torsions:
REMARK  status: ('A' for Active; 'I' for Inactive)
REMARK    1  A    between atoms: C_1  and  C_2
REMARK    2  A    between atoms: C_2  and  C_3
REMARK    3  A    between atoms: C_2  and  C_4
REMARK    4  A    between atoms: N_8  and  C_9
REMARK    5  A    between atoms: C_14  and  C_16
REMARK    6  A    between atoms: C_16  and  C_17
REMARK    7  A    between atoms: C_17  and  C_18
REMARK    8  A    between atoms: N_21  and  C_22
REMARK                            x       y       z     vdW  Elec       q    Type
REMARK                         _______ _______ _______ _____ _____    ______ ____
ROOT
ATOM      1  C   UNL     1      -0.231  12.100  19.450  0.00  0.00    +0.000 C 
ATOM      2  C   UNL     1      -0.934  11.589  20.718  0.00  0.00    +0.000 C 
ATOM      3  C   UNL     1      -0.217  10.435  21.409  0.00  0.00    +0.000 C 
ATOM      4  C   UNL     1       0.317   9.351  20.484  0.00  0.00    +0.000 C 
ATOM      5  N   UNL     1       0.881   9.812  19.232  0.00  0.00    +0.000 N 
ATOM      6  C   UNL     1       1.709   9.021  18.421  0.00  0.00    +0.000 C 
ATOM      7  O   UNL     1       2.029   9.373  17.277  0.00  0.00    +0.000 OA
ATOM      8  C   UNL     1       0.133  10.897  18.550  0.00  0.00    +0.000 C 
ENDROOT
BRANCH   1  13
ATOM      9  C   UNL     1       0.841  14.437  19.439  0.00  0.00    +0.000 A 
ATOM     10  N   UNL     1       2.033  14.951  19.689  0.00  0.00    +0.000 NA
ATOM     11  C   UNL     1       2.749  13.962  20.300  0.00  0.00    +0.000 A 
ATOM     12  C   UNL     1       2.033  12.793  20.331  0.00  0.00    +0.000 A 
ATOM     13  N   UNL     1       0.843  13.064  19.705  0.00  0.00    +0.000 N 
BRANCH   9  15
ATOM     14  C   UNL     1      -0.878  15.643  20.696  0.00  0.00    +0.000 C 
ATOM     15  C   UNL     1      -0.401  15.281  19.281  0.00  0.00    +0.000 C 
ATOM     16  C   UNL     1      -0.246  16.578  18.478  0.00  0.00    +0.000 C 
ENDBRANCH   9  15
ENDBRANCH   1  13
BRANCH   6  17
ATOM     17  C   UNL     1       2.308   7.726  18.981  0.00  0.00    +0.000 C 
BRANCH  17  18
ATOM     18  C   UNL     1       3.327   7.000  18.104  0.00  0.00    +0.000 C 
BRANCH  18  19
ATOM     19  C   UNL     1       3.522   5.552  18.394  0.00  0.00    +0.000 A 
ATOM     20  C   UNL     1       4.483   4.970  19.257  0.00  0.00    +0.000 A 
ATOM     21  N   UNL     1       4.440   3.637  19.254  0.00  0.00    +0.000 NA
ATOM     22  N   UNL     1       3.459   3.355  18.378  0.00  0.00    +0.000 N 
ATOM     23  C   UNL     1       3.172   1.990  18.013  0.00  0.00    +0.000 C 
ATOM     24  C   UNL     1       2.853   4.466  17.870  0.00  0.00    +0.000 A 
ENDBRANCH  18  19
ENDBRANCH  17  18
ENDBRANCH   6  17
TORSDOF 5
ENDMDL
