MODEL 1
REMARK VINA RESULT:      -8.9      0.000      0.000
REMARK  Name = 
REMARK  13 active torsions:
REMARK  status: ('A' for Active; 'I' for Inactive)
REMARK    1  A    between atoms: C_1  and  O_2
REMARK    2  A    between atoms: O_2  and  C_3
REMARK    3  A    between atoms: C_3  and  C_5
REMARK    4  A    between atoms: C_5  and  N_6
REMARK    5  A    between atoms: N_6  and  S_7
REMARK    6  A    between atoms: S_7  and  C_10
REMARK    7  A    between atoms: C_14  and  C_15
REMARK    8  A    between atoms: C_15  and  C_16
REMARK    9  A    between atoms: C_15  and  N_17
REMARK   10  A    between atoms: C_20  and  C_21
REMARK   11  A    between atoms: C_25  and  O_26
REMARK   12  A    between atoms: O_26  and  C_27
REMARK   13  A    between atoms: C_30  and  C_31
REMARK                            x       y       z     vdW  Elec       q    Type
REMARK                         _______ _______ _______ _____ _____    ______ ____
ROOT
ATOM      1  C   UNL     1       3.122   6.325  19.456  0.00  0.00    +0.000 C 
ATOM      2  C   UNL     1       2.503   5.110  20.164  0.00  0.00    +0.000 C 
ENDROOT
BRANCH   1   3
ATOM      3  N   UNL     1       3.304   6.002  18.034  0.00  0.00    +0.000 N 
ATOM      4  C   UNL     1       4.616   5.703  17.625  0.00  0.00    +0.000 A 
ATOM      5  C   UNL     1       4.821   5.336  16.307  0.00  0.00    +0.000 A 
ATOM      6  C   UNL     1       6.117   5.057  15.908  0.00  0.00    +0.000 A 
ATOM      7  N   UNL     1       7.148   5.131  16.773  0.00  0.00    +0.000 NA
ATOM      8  C   UNL     1       6.864   5.491  18.033  0.00  0.00    +0.000 A 
ATOM      9  C   UNL     1       8.005   5.660  18.986  0.00  0.00    +0.000 C 
ATOM     10  N   UNL     1       5.633   5.770  18.493  0.00  0.00    +0.000 NA
ATOM     11  H   UNL     1       2.933   6.733  17.430  0.00  0.00    +0.000 HD
BRANCH   6  12
ATOM     12  C   UNL     1       6.479   4.702  14.518  0.00  0.00    +0.000 A 
ATOM     13  C   UNL     1       7.565   5.321  13.872  0.00  0.00    +0.000 A 
ATOM     14  C   UNL     1       7.890   5.020  12.548  0.00  0.00    +0.000 A 
ATOM     15  C   UNL     1       7.127   4.096  11.840  0.00  0.00    +0.000 A 
ATOM     16  C   UNL     1       6.042   3.466  12.447  0.00  0.00    +0.000 A 
ATOM     17  C   UNL     1       5.727   3.768  13.776  0.00  0.00    +0.000 A 
BRANCH  16  18
ATOM     18  O   UNL     1       5.363   2.591  11.643  0.00  0.00    +0.000 OA
ATOM     19  C   UNL     1       4.084   3.002  11.178  0.00  0.00    +0.000 C 
ENDBRANCH  16  18
ENDBRANCH   6  12
ENDBRANCH   1   3
BRANCH   1  24
ATOM     20  C   UNL     1       0.772   9.067  20.792  0.00  0.00    +0.000 A 
ATOM     21  C   UNL     1       0.637   9.896  19.678  0.00  0.00    +0.000 A 
ATOM     22  C   UNL     1       1.309   9.567  18.499  0.00  0.00    +0.000 A 
ATOM     23  C   UNL     1       2.097   8.413  18.432  0.00  0.00    +0.000 A 
ATOM     24  C   UNL     1       2.260   7.583  19.555  0.00  0.00    +0.000 A 
ATOM     25  C   UNL     1       1.596   7.939  20.734  0.00  0.00    +0.000 A 
BRANCH  20  26
ATOM     26  S   UNL     1      -0.054   9.454  22.316  0.00  0.00    +0.000 S 
ATOM     27  O   UNL     1       0.958   9.725  23.314  0.00  0.00    +0.000 OA
ATOM     28  O   UNL     1      -1.094   8.474  22.524  0.00  0.00    +0.000 OA
BRANCH  26  29
ATOM     29  N   UNL     1      -0.778  10.939  22.002  0.00  0.00    +0.000 NA
ATOM     30  H   UNL     1      -0.154  11.582  21.505  0.00  0.00    +0.000 HD
BRANCH  29  31
ATOM     31  C   UNL     1      -1.608  11.539  23.061  0.00  0.00    +0.000 C 
BRANCH  31  32
ATOM     32  C   UNL     1      -2.690  12.429  22.494  0.00  0.00    +0.000 C 
ATOM     33  O   UNL     1      -2.502  13.324  21.679  0.00  0.00    +0.000 OA
BRANCH  32  35
ATOM     34  C   UNL     1      -4.041  12.506  24.417  0.00  0.00    +0.000 C 
ATOM     35  O   UNL     1      -3.892  12.110  23.053  0.00  0.00    +0.000 OA
ENDBRANCH  32  35
ENDBRANCH  31  32
ENDBRANCH  29  31
ENDBRANCH  26  29
ENDBRANCH  20  26
ENDBRANCH   1  24
TORSDOF 9
ENDMDL
MODEL 2
REMARK VINA RESULT:      -8.8      1.075      1.420
REMARK  Name = 
REMARK  13 active torsions:
REMARK  status: ('A' for Active; 'I' for Inactive)
REMARK    1  A    between atoms: C_1  and  O_2
REMARK    2  A    between atoms: O_2  and  C_3
REMARK    3  A    between atoms: C_3  and  C_5
REMARK    4  A    between atoms: C_5  and  N_6
REMARK    5  A    between atoms: N_6  and  S_7
REMARK    6  A    between atoms: S_7  and  C_10
REMARK    7  A    between atoms: C_14  and  C_15
REMARK    8  A    between atoms: C_15  and  C_16
REMARK    9  A    between atoms: C_15  and  N_17
REMARK   10  A    between atoms: C_20  and  C_21
REMARK   11  A    between atoms: C_25  and  O_26
REMARK   12  A    between atoms: O_26  and  C_27
REMARK   13  A    between atoms: C_30  and  C_31
REMARK                            x       y       z     vdW  Elec       q    Type
REMARK                         _______ _______ _______ _____ _____    ______ ____
ROOT
ATOM      1  C   UNL     1       3.037   6.134  19.333  0.00  0.00    +0.000 C 
ATOM      2  C   UNL     1       2.339   4.961  20.039  0.00  0.00    +0.000 C 
ENDROOT
BRANCH   1   3
ATOM      3  N   UNL     1       3.233   5.787  17.918  0.00  0.00    +0.000 N 
ATOM      4  C   UNL     1       4.563   5.593  17.503  0.00  0.00    +0.000 A 
ATOM      5  C   UNL     1       4.787   5.207  16.194  0.00  0.00    +0.000 A 
ATOM      6  C   UNL     1       6.100   5.032  15.787  0.00  0.00    +0.000 A 
ATOM      7  N   UNL     1       7.128   5.223  16.637  0.00  0.00    +0.000 NA
ATOM      8  C   UNL     1       6.824   5.594  17.890  0.00  0.00    +0.000 A 
ATOM      9  C   UNL     1       7.955   5.893  18.824  0.00  0.00    +0.000 C 
ATOM     10  N   UNL     1       5.578   5.776  18.356  0.00  0.00    +0.000 NA
ATOM     11  H   UNL     1       2.793   6.464  17.299  0.00  0.00    +0.000 HD
BRANCH   6  12
ATOM     12  C   UNL     1       6.479   4.670  14.404  0.00  0.00    +0.000 A 
ATOM     13  C   UNL     1       7.536   5.327  13.748  0.00  0.00    +0.000 A 
ATOM     14  C   UNL     1       7.876   5.018  12.429  0.00  0.00    +0.000 A 
ATOM     15  C   UNL     1       7.157   4.048  11.737  0.00  0.00    +0.000 A 
ATOM     16  C   UNL     1       6.102   3.379  12.355  0.00  0.00    +0.000 A 
ATOM     17  C   UNL     1       5.771   3.690  13.679  0.00  0.00    +0.000 A 
BRANCH  16  18
ATOM     18  O   UNL     1       5.465   2.459  11.566  0.00  0.00    +0.000 OA
ATOM     19  C   UNL     1       6.157   1.246  11.304  0.00  0.00    +0.000 C 
ENDBRANCH  16  18
ENDBRANCH   6  12
ENDBRANCH   1   3
BRANCH   1  24
ATOM     20  C   UNL     1       0.817   9.017  20.592  0.00  0.00    +0.000 A 
ATOM     21  C   UNL     1       0.737   9.831  19.463  0.00  0.00    +0.000 A 
ATOM     22  C   UNL     1       1.403   9.447  18.297  0.00  0.00    +0.000 A 
ATOM     23  C   UNL     1       2.131   8.252  18.260  0.00  0.00    +0.000 A 
ATOM     24  C   UNL     1       2.240   7.437  19.399  0.00  0.00    +0.000 A 
ATOM     25  C   UNL     1       1.582   7.848  20.564  0.00  0.00    +0.000 A 
BRANCH  20  26
ATOM     26  S   UNL     1      -0.004   9.474  22.100  0.00  0.00    +0.000 S 
ATOM     27  O   UNL     1       1.004   9.916  23.039  0.00  0.00    +0.000 OA
ATOM     28  O   UNL     1      -0.954   8.436  22.425  0.00  0.00    +0.000 OA
BRANCH  26  29
ATOM     29  N   UNL     1      -0.856  10.861  21.676  0.00  0.00    +0.000 NA
ATOM     30  H   UNL     1      -0.413  11.373  20.907  0.00  0.00    +0.000 HD
BRANCH  29  31
ATOM     31  C   UNL     1      -1.411  11.687  22.763  0.00  0.00    +0.000 C 
BRANCH  31  32
ATOM     32  C   UNL     1      -0.751  13.046  22.831  0.00  0.00    +0.000 C 
ATOM     33  O   UNL     1      -0.834  13.815  23.780  0.00  0.00    +0.000 OA
BRANCH  32  35
ATOM     34  C   UNL     1      -0.472  14.503  21.007  0.00  0.00    +0.000 C 
ATOM     35  O   UNL     1      -0.088  13.297  21.667  0.00  0.00    +0.000 OA
ENDBRANCH  32  35
ENDBRANCH  31  32
ENDBRANCH  29  31
ENDBRANCH  26  29
ENDBRANCH  20  26
ENDBRANCH   1  24
TORSDOF 9
ENDMDL
MODEL 3
REMARK VINA RESULT:      -8.7      1.044      1.157
REMARK  Name = 
REMARK  13 active torsions:
REMARK  status: ('A' for Active; 'I' for Inactive)
REMARK    1  A    between atoms: C_1  and  O_2
REMARK    2  A    between atoms: O_2  and  C_3
REMARK    3  A    between atoms: C_3  and  C_5
REMARK    4  A    between atoms: C_5  and  N_6
REMARK    5  A    between atoms: N_6  and  S_7
REMARK    6  A    between atoms: S_7  and  C_10
REMARK    7  A    between atoms: C_14  and  C_15
REMARK    8  A    between atoms: C_15  and  C_16
REMARK    9  A    between atoms: C_15  and  N_17
REMARK   10  A    between atoms: C_20  and  C_21
REMARK   11  A    between atoms: C_25  and  O_26
REMARK   12  A    between atoms: O_26  and  C_27
REMARK   13  A    between atoms: C_30  and  C_31
REMARK                            x       y       z     vdW  Elec       q    Type
REMARK                         _______ _______ _______ _____ _____    ______ ____
ROOT
ATOM      1  C   UNL     1       2.967   5.855  19.406  0.00  0.00    +0.000 C 
ATOM      2  C   UNL     1       2.156   4.741  20.086  0.00  0.00    +0.000 C 
ENDROOT
BRANCH   1   3
ATOM      3  N   UNL     1       3.169   5.499  17.994  0.00  0.00    +0.000 N 
ATOM      4  C   UNL     1       4.504   5.427  17.555  0.00  0.00    +0.000 A 
ATOM      5  C   UNL     1       4.740   5.037  16.249  0.00  0.00    +0.000 A 
ATOM      6  C   UNL     1       6.056   4.983  15.819  0.00  0.00    +0.000 A 
ATOM      7  N   UNL     1       7.076   5.291  16.644  0.00  0.00    +0.000 NA
ATOM      8  C   UNL     1       6.761   5.656  17.895  0.00  0.00    +0.000 A 
ATOM      9  C   UNL     1       7.875   6.083  18.800  0.00  0.00    +0.000 C 
ATOM     10  N   UNL     1       5.511   5.726  18.384  0.00  0.00    +0.000 NA
ATOM     11  H   UNL     1       2.654   6.117  17.371  0.00  0.00    +0.000 HD
BRANCH   6  12
ATOM     12  C   UNL     1       6.442   4.630  14.436  0.00  0.00    +0.000 A 
ATOM     13  C   UNL     1       7.469   5.326  13.771  0.00  0.00    +0.000 A 
ATOM     14  C   UNL     1       7.815   5.025  12.452  0.00  0.00    +0.000 A 
ATOM     15  C   UNL     1       7.132   4.024  11.768  0.00  0.00    +0.000 A 
ATOM     16  C   UNL     1       6.108   3.316  12.394  0.00  0.00    +0.000 A 
ATOM     17  C   UNL     1       5.771   3.619  13.718  0.00  0.00    +0.000 A 
BRANCH  16  18
ATOM     18  O   UNL     1       5.504   2.368  11.612  0.00  0.00    +0.000 OA
ATOM     19  C   UNL     1       6.314   1.285  11.172  0.00  0.00    +0.000 C 
ENDBRANCH  16  18
ENDBRANCH   6  12
ENDBRANCH   1   3
BRANCH   1  24
ATOM     20  C   UNL     1       1.100   8.975  20.674  0.00  0.00    +0.000 A 
ATOM     21  C   UNL     1       0.971   9.727  19.506  0.00  0.00    +0.000 A 
ATOM     22  C   UNL     1       1.491   9.223  18.312  0.00  0.00    +0.000 A 
ATOM     23  C   UNL     1       2.122   7.974  18.286  0.00  0.00    +0.000 A 
ATOM     24  C   UNL     1       2.279   7.220  19.460  0.00  0.00    +0.000 A 
ATOM     25  C   UNL     1       1.770   7.748  20.652  0.00  0.00    +0.000 A 
BRANCH  20  26
ATOM     26  S   UNL     1       0.466   9.582  22.219  0.00  0.00    +0.000 S 
ATOM     27  O   UNL     1       1.545   9.565  23.181  0.00  0.00    +0.000 OA
ATOM     28  O   UNL     1      -0.799   8.931  22.471  0.00  0.00    +0.000 OA
BRANCH  26  29
ATOM     29  N   UNL     1       0.173  11.209  21.907  0.00  0.00    +0.000 NA
ATOM     30  H   UNL     1       0.872  11.822  22.336  0.00  0.00    +0.000 HD
BRANCH  29  31
ATOM     31  C   UNL     1      -1.221  11.682  21.969  0.00  0.00    +0.000 C 
BRANCH  31  32
ATOM     32  C   UNL     1      -1.657  12.324  20.671  0.00  0.00    +0.000 C 
ATOM     33  O   UNL     1      -0.896  12.688  19.783  0.00  0.00    +0.000 OA
BRANCH  32  35
ATOM     34  C   UNL     1      -3.481  13.743  21.101  0.00  0.00    +0.000 C 
ATOM     35  O   UNL     1      -3.012  12.470  20.660  0.00  0.00    +0.000 OA
ENDBRANCH  32  35
ENDBRANCH  31  32
ENDBRANCH  29  31
ENDBRANCH  26  29
ENDBRANCH  20  26
ENDBRANCH   1  24
TORSDOF 9
ENDMDL
MODEL 4
REMARK VINA RESULT:      -8.5      3.830     11.580
REMARK  Name = 
REMARK  13 active torsions:
REMARK  status: ('A' for Active; 'I' for Inactive)
REMARK    1  A    between atoms: C_1  and  O_2
REMARK    2  A    between atoms: O_2  and  C_3
REMARK    3  A    between atoms: C_3  and  C_5
REMARK    4  A    between atoms: C_5  and  N_6
REMARK    5  A    between atoms: N_6  and  S_7
REMARK    6  A    between atoms: S_7  and  C_10
REMARK    7  A    between atoms: C_14  and  C_15
REMARK    8  A    between atoms: C_15  and  C_16
REMARK    9  A    between atoms: C_15  and  N_17
REMARK   10  A    between atoms: C_20  and  C_21
REMARK   11  A    between atoms: C_25  and  O_26
REMARK   12  A    between atoms: O_26  and  C_27
REMARK   13  A    between atoms: C_30  and  C_31
REMARK                            x       y       z     vdW  Elec       q    Type
REMARK                         _______ _______ _______ _____ _____    ______ ____
ROOT
ATOM      1  C   UNL     1       1.638   8.994  19.258  0.00  0.00    +0.000 C 
ATOM      2  C   UNL     1       1.191   9.303  17.821  0.00  0.00    +0.000 C 
ENDROOT
BRANCH   1   3
ATOM      3  N   UNL     1       0.546   9.341  20.179  0.00  0.00    +0.000 N 
ATOM      4  C   UNL     1       0.535  10.661  20.665  0.00  0.00    +0.000 A 
ATOM      5  C   UNL     1      -0.509  11.045  21.487  0.00  0.00    +0.000 A 
ATOM      6  C   UNL     1      -0.505  12.341  21.973  0.00  0.00    +0.000 A 
ATOM      7  N   UNL     1       0.476  13.207  21.653  0.00  0.00    +0.000 NA
ATOM      8  C   UNL     1       1.450  12.757  20.848  0.00  0.00    +0.000 A 
ATOM      9  C   UNL     1       2.592  13.677  20.550  0.00  0.00    +0.000 C 
ATOM     10  N   UNL     1       1.509  11.517  20.334  0.00  0.00    +0.000 NA
ATOM     11  H   UNL     1       0.502   8.702  20.970  0.00  0.00    +0.000 HD
BRANCH   6  12
ATOM     12  C   UNL     1      -1.534  12.862  22.899  0.00  0.00    +0.000 A 
ATOM     13  C   UNL     1      -1.353  14.087  23.568  0.00  0.00    +0.000 A 
ATOM     14  C   UNL     1      -2.301  14.568  24.474  0.00  0.00    +0.000 A 
ATOM     15  C   UNL     1      -3.450  13.826  24.732  0.00  0.00    +0.000 A 
ATOM     16  C   UNL     1      -3.662  12.608  24.090  0.00  0.00    +0.000 A 
ATOM     17  C   UNL     1      -2.710  12.136  23.180  0.00  0.00    +0.000 A 
BRANCH  16  18
ATOM     18  O   UNL     1      -4.820  11.968  24.440  0.00  0.00    +0.000 OA
ATOM     19  C   UNL     1      -6.040  12.632  24.135  0.00  0.00    +0.000 C 
ENDBRANCH  16  18
ENDBRANCH   6  12
ENDBRANCH   1   3
BRANCH   1  24
ATOM     20  C   UNL     1       3.058   5.451  18.750  0.00  0.00    +0.000 A 
ATOM     21  C   UNL     1       2.596   4.791  19.889  0.00  0.00    +0.000 A 
ATOM     22  C   UNL     1       1.828   5.495  20.819  0.00  0.00    +0.000 A 
ATOM     23  C   UNL     1       1.516   6.842  20.605  0.00  0.00    +0.000 A 
ATOM     24  C   UNL     1       1.996   7.523  19.474  0.00  0.00    +0.000 A 
ATOM     25  C   UNL     1       2.781   6.808  18.562  0.00  0.00    +0.000 A 
BRANCH  20  26
ATOM     26  S   UNL     1       4.049   4.599  17.547  0.00  0.00    +0.000 S 
ATOM     27  O   UNL     1       4.552   5.579  16.610  0.00  0.00    +0.000 OA
ATOM     28  O   UNL     1       3.323   3.427  17.118  0.00  0.00    +0.000 OA
BRANCH  26  29
ATOM     29  N   UNL     1       5.391   4.099  18.431  0.00  0.00    +0.000 NA
ATOM     30  H   UNL     1       5.198   3.270  19.000  0.00  0.00    +0.000 HD
BRANCH  29  31
ATOM     31  C   UNL     1       6.221   5.137  19.067  0.00  0.00    +0.000 C 
BRANCH  31  32
ATOM     32  C   UNL     1       7.575   5.258  18.405  0.00  0.00    +0.000 C 
ATOM     33  O   UNL     1       8.197   4.326  17.910  0.00  0.00    +0.000 OA
BRANCH  32  35
ATOM     34  C   UNL     1       7.428   7.431  17.520  0.00  0.00    +0.000 C 
ATOM     35  O   UNL     1       8.011   6.548  18.477  0.00  0.00    +0.000 OA
ENDBRANCH  32  35
ENDBRANCH  31  32
ENDBRANCH  29  31
ENDBRANCH  26  29
ENDBRANCH  20  26
ENDBRANCH   1  24
TORSDOF 9
ENDMDL
MODEL 5
REMARK VINA RESULT:      -8.1      2.770      3.478
REMARK  Name = 
REMARK  13 active torsions:
REMARK  status: ('A' for Active; 'I' for Inactive)
REMARK    1  A    between atoms: C_1  and  O_2
REMARK    2  A    between atoms: O_2  and  C_3
REMARK    3  A    between atoms: C_3  and  C_5
REMARK    4  A    between atoms: C_5  and  N_6
REMARK    5  A    between atoms: N_6  and  S_7
REMARK    6  A    between atoms: S_7  and  C_10
REMARK    7  A    between atoms: C_14  and  C_15
REMARK    8  A    between atoms: C_15  and  C_16
REMARK    9  A    between atoms: C_15  and  N_17
REMARK   10  A    between atoms: C_20  and  C_21
REMARK   11  A    between atoms: C_25  and  O_26
REMARK   12  A    between atoms: O_26  and  C_27
REMARK   13  A    between atoms: C_30  and  C_31
REMARK                            x       y       z     vdW  Elec       q    Type
REMARK                         _______ _______ _______ _____ _____    ______ ____
ROOT
ATOM      1  C   UNL     1       3.287   5.630  19.893  0.00  0.00    +0.000 C 
ATOM      2  C   UNL     1       2.847   4.317  20.558  0.00  0.00    +0.000 C 
ENDROOT
BRANCH   1   3
ATOM      3  N   UNL     1       3.416   5.410  18.446  0.00  0.00    +0.000 N 
ATOM      4  C   UNL     1       4.725   5.265  17.952  0.00  0.00    +0.000 A 
ATOM      5  C   UNL     1       4.887   4.996  16.605  0.00  0.00    +0.000 A 
ATOM      6  C   UNL     1       6.180   4.870  16.123  0.00  0.00    +0.000 A 
ATOM      7  N   UNL     1       7.247   4.996  16.936  0.00  0.00    +0.000 NA
ATOM      8  C   UNL     1       7.002   5.253  18.229  0.00  0.00    +0.000 A 
ATOM      9  C   UNL     1       8.176   5.480  19.130  0.00  0.00    +0.000 C 
ATOM     10  N   UNL     1       5.779   5.382  18.769  0.00  0.00    +0.000 NA
ATOM     11  H   UNL     1       2.943   6.134  17.910  0.00  0.00    +0.000 HD
BRANCH   6  12
ATOM     12  C   UNL     1       6.493   4.633  14.697  0.00  0.00    +0.000 A 
ATOM     13  C   UNL     1       7.498   5.370  14.044  0.00  0.00    +0.000 A 
ATOM     14  C   UNL     1       7.775   5.180  12.688  0.00  0.00    +0.000 A 
ATOM     15  C   UNL     1       7.042   4.250  11.956  0.00  0.00    +0.000 A 
ATOM     16  C   UNL     1       6.037   3.504  12.569  0.00  0.00    +0.000 A 
ATOM     17  C   UNL     1       5.770   3.696  13.929  0.00  0.00    +0.000 A 
BRANCH  16  18
ATOM     18  O   UNL     1       5.380   2.635  11.740  0.00  0.00    +0.000 OA
ATOM     19  C   UNL     1       4.125   3.060  11.226  0.00  0.00    +0.000 C 
ENDBRANCH  16  18
ENDBRANCH   6  12
ENDBRANCH   1   3
BRANCH   1  24
ATOM     20  C   UNL     1       1.305   8.903  19.454  0.00  0.00    +0.000 A 
ATOM     21  C   UNL     1       0.496   8.902  20.590  0.00  0.00    +0.000 A 
ATOM     22  C   UNL     1       0.592   7.843  21.495  0.00  0.00    +0.000 A 
ATOM     23  C   UNL     1       1.498   6.800  21.269  0.00  0.00    +0.000 A 
ATOM     24  C   UNL     1       2.300   6.778  20.116  0.00  0.00    +0.000 A 
ATOM     25  C   UNL     1       2.176   7.838  19.210  0.00  0.00    +0.000 A 
BRANCH  20  26
ATOM     26  S   UNL     1       1.207  10.224  18.271  0.00  0.00    +0.000 S 
ATOM     27  O   UNL     1       2.255  10.026  17.294  0.00  0.00    +0.000 OA
ATOM     28  O   UNL     1       1.056  11.464  18.995  0.00  0.00    +0.000 OA
BRANCH  26  29
ATOM     29  N   UNL     1      -0.229   9.909  17.453  0.00  0.00    +0.000 NA
ATOM     30  H   UNL     1      -0.077   9.411  16.571  0.00  0.00    +0.000 HD
BRANCH  29  31
ATOM     31  C   UNL     1      -1.252  10.970  17.424  0.00  0.00    +0.000 C 
BRANCH  31  32
ATOM     32  C   UNL     1      -2.536  10.496  16.781  0.00  0.00    +0.000 C 
ATOM     33  O   UNL     1      -3.346   9.746  17.310  0.00  0.00    +0.000 OA
BRANCH  32  35
ATOM     34  C   UNL     1      -3.617  10.370  14.697  0.00  0.00    +0.000 C 
ATOM     35  O   UNL     1      -2.633  10.999  15.518  0.00  0.00    +0.000 OA
ENDBRANCH  32  35
ENDBRANCH  31  32
ENDBRANCH  29  31
ENDBRANCH  26  29
ENDBRANCH  20  26
ENDBRANCH   1  24
TORSDOF 9
ENDMDL
MODEL 6
REMARK VINA RESULT:      -7.9      3.164     11.901
REMARK  Name = 
REMARK  13 active torsions:
REMARK  status: ('A' for Active; 'I' for Inactive)
REMARK    1  A    between atoms: C_1  and  O_2
REMARK    2  A    between atoms: O_2  and  C_3
REMARK    3  A    between atoms: C_3  and  C_5
REMARK    4  A    between atoms: C_5  and  N_6
REMARK    5  A    between atoms: N_6  and  S_7
REMARK    6  A    between atoms: S_7  and  C_10
REMARK    7  A    between atoms: C_14  and  C_15
REMARK    8  A    between atoms: C_15  and  C_16
REMARK    9  A    between atoms: C_15  and  N_17
REMARK   10  A    between atoms: C_20  and  C_21
REMARK   11  A    between atoms: C_25  and  O_26
REMARK   12  A    between atoms: O_26  and  C_27
REMARK   13  A    between atoms: C_30  and  C_31
REMARK                            x       y       z     vdW  Elec       q    Type
REMARK                         _______ _______ _______ _____ _____    ______ ____
ROOT
ATOM      1  C   UNL     1       1.744   8.761  19.493  0.00  0.00    +0.000 C 
ATOM      2  C   UNL     1       1.286   9.030  18.051  0.00  0.00    +0.000 C 
ENDROOT
BRANCH   1   3
ATOM      3  N   UNL     1       0.657   9.127  20.411  0.00  0.00    +0.000 N 
ATOM      4  C   UNL     1       0.602  10.476  20.805  0.00  0.00    +0.000 A 
ATOM      5  C   UNL     1      -0.441  10.875  21.622  0.00  0.00    +0.000 A 
ATOM      6  C   UNL     1      -0.481  12.202  22.017  0.00  0.00    +0.000 A 
ATOM      7  N   UNL     1       0.458  13.081  21.616  0.00  0.00    +0.000 NA
ATOM      8  C   UNL     1       1.433  12.615  20.823  0.00  0.00    +0.000 A 
ATOM      9  C   UNL     1       2.530  13.557  20.437  0.00  0.00    +0.000 C 
ATOM     10  N   UNL     1       1.533  11.345  20.395  0.00  0.00    +0.000 NA
ATOM     11  H   UNL     1       0.655   8.544  21.245  0.00  0.00    +0.000 HD
BRANCH   6  12
ATOM     12  C   UNL     1      -1.512  12.744  22.929  0.00  0.00    +0.000 A 
ATOM     13  C   UNL     1      -2.736  12.076  23.117  0.00  0.00    +0.000 A 
ATOM     14  C   UNL     1      -3.730  12.601  23.946  0.00  0.00    +0.000 A 
ATOM     15  C   UNL     1      -3.519  13.812  24.599  0.00  0.00    +0.000 A 
ATOM     16  C   UNL     1      -2.320  14.503  24.434  0.00  0.00    +0.000 A 
ATOM     17  C   UNL     1      -1.327  13.967  23.606  0.00  0.00    +0.000 A 
BRANCH  16  18
ATOM     18  O   UNL     1      -2.241  15.686  25.116  0.00  0.00    +0.000 OA
ATOM     19  C   UNL     1      -1.154  15.838  26.020  0.00  0.00    +0.000 C 
ENDBRANCH  16  18
ENDBRANCH   6  12
ENDBRANCH   1   3
BRANCH   1  24
ATOM     20  C   UNL     1       3.442   5.312  19.266  0.00  0.00    +0.000 A 
ATOM     21  C   UNL     1       2.725   4.577  20.209  0.00  0.00    +0.000 A 
ATOM     22  C   UNL     1       1.695   5.199  20.917  0.00  0.00    +0.000 A 
ATOM     23  C   UNL     1       1.379   6.541  20.674  0.00  0.00    +0.000 A 
ATOM     24  C   UNL     1       2.111   7.298  19.745  0.00  0.00    +0.000 A 
ATOM     25  C   UNL     1       3.153   6.664  19.059  0.00  0.00    +0.000 A 
BRANCH  20  26
ATOM     26  S   UNL     1       4.770   4.565  18.351  0.00  0.00    +0.000 S 
ATOM     27  O   UNL     1       4.249   4.155  17.066  0.00  0.00    +0.000 OA
ATOM     28  O   UNL     1       5.458   3.648  19.230  0.00  0.00    +0.000 OA
BRANCH  26  29
ATOM     29  N   UNL     1       5.795   5.858  18.024  0.00  0.00    +0.000 NA
ATOM     30  H   UNL     1       5.672   6.632  18.683  0.00  0.00    +0.000 HD
BRANCH  29  31
ATOM     31  C   UNL     1       5.993   6.239  16.615  0.00  0.00    +0.000 C 
BRANCH  31  32
ATOM     32  C   UNL     1       6.950   5.305  15.908  0.00  0.00    +0.000 C 
ATOM     33  O   UNL     1       7.826   4.653  16.462  0.00  0.00    +0.000 OA
BRANCH  32  35
ATOM     34  C   UNL     1       6.559   4.048  13.960  0.00  0.00    +0.000 C 
ATOM     35  O   UNL     1       6.715   5.332  14.566  0.00  0.00    +0.000 OA
ENDBRANCH  32  35
ENDBRANCH  31  32
ENDBRANCH  29  31
ENDBRANCH  26  29
ENDBRANCH  20  26
ENDBRANCH   1  24
TORSDOF 9
ENDMDL
MODEL 7
REMARK VINA RESULT:      -7.7      2.338      2.902
REMARK  Name = 
REMARK  13 active torsions:
REMARK  status: ('A' for Active; 'I' for Inactive)
REMARK    1  A    between atoms: C_1  and  O_2
REMARK    2  A    between atoms: O_2  and  C_3
REMARK    3  A    between atoms: C_3  and  C_5
REMARK    4  A    between atoms: C_5  and  N_6
REMARK    5  A    between atoms: N_6  and  S_7
REMARK    6  A    between atoms: S_7  and  C_10
REMARK    7  A    between atoms: C_14  and  C_15
REMARK    8  A    between atoms: C_15  and  C_16
REMARK    9  A    between atoms: C_15  and  N_17
REMARK   10  A    between atoms: C_20  and  C_21
REMARK   11  A    between atoms: C_25  and  O_26
REMARK   12  A    between atoms: O_26  and  C_27
REMARK   13  A    between atoms: C_30  and  C_31
REMARK                            x       y       z     vdW  Elec       q    Type
REMARK                         _______ _______ _______ _____ _____    ______ ____
ROOT
ATOM      1  C   UNL     1       3.226   5.411  19.828  0.00  0.00    +0.000 C 
ATOM      2  C   UNL     1       2.704   4.118  20.473  0.00  0.00    +0.000 C 
ENDROOT
BRANCH   1   3
ATOM      3  N   UNL     1       3.370   5.194  18.381  0.00  0.00    +0.000 N 
ATOM      4  C   UNL     1       4.686   5.130  17.888  0.00  0.00    +0.000 A 
ATOM      5  C   UNL     1       4.866   4.868  16.542  0.00  0.00    +0.000 A 
ATOM      6  C   UNL     1       6.164   4.820  16.061  0.00  0.00    +0.000 A 
ATOM      7  N   UNL     1       7.221   5.015  16.875  0.00  0.00    +0.000 NA
ATOM      8  C   UNL     1       6.960   5.261  18.167  0.00  0.00    +0.000 A 
ATOM      9  C   UNL     1       8.116   5.563  19.068  0.00  0.00    +0.000 C 
ATOM     10  N   UNL     1       5.730   5.315  18.705  0.00  0.00    +0.000 NA
ATOM     11  H   UNL     1       2.854   5.886  17.842  0.00  0.00    +0.000 HD
BRANCH   6  12
ATOM     12  C   UNL     1       6.492   4.599  14.636  0.00  0.00    +0.000 A 
ATOM     13  C   UNL     1       7.502   5.346  14.001  0.00  0.00    +0.000 A 
ATOM     14  C   UNL     1       7.793   5.171  12.646  0.00  0.00    +0.000 A 
ATOM     15  C   UNL     1       7.071   4.246  11.897  0.00  0.00    +0.000 A 
ATOM     16  C   UNL     1       6.063   3.490  12.492  0.00  0.00    +0.000 A 
ATOM     17  C   UNL     1       5.782   3.667  13.852  0.00  0.00    +0.000 A 
BRANCH  16  18
ATOM     18  O   UNL     1       5.418   2.627  11.648  0.00  0.00    +0.000 OA
ATOM     19  C   UNL     1       6.063   1.389  11.376  0.00  0.00    +0.000 C 
ENDBRANCH  16  18
ENDBRANCH   6  12
ENDBRANCH   1   3
BRANCH   1  24
ATOM     20  C   UNL     1       1.392   8.763  19.351  0.00  0.00    +0.000 A 
ATOM     21  C   UNL     1       0.605   8.825  20.500  0.00  0.00    +0.000 A 
ATOM     22  C   UNL     1       0.668   7.782  21.426  0.00  0.00    +0.000 A 
ATOM     23  C   UNL     1       1.520   6.693  21.208  0.00  0.00    +0.000 A 
ATOM     24  C   UNL     1       2.299   6.608  20.041  0.00  0.00    +0.000 A 
ATOM     25  C   UNL     1       2.208   7.653  19.115  0.00  0.00    +0.000 A 
BRANCH  20  26
ATOM     26  S   UNL     1       1.333  10.062  18.140  0.00  0.00    +0.000 S 
ATOM     27  O   UNL     1      -0.051  10.266  17.773  0.00  0.00    +0.000 OA
ATOM     28  O   UNL     1       2.358   9.804  17.156  0.00  0.00    +0.000 OA
BRANCH  26  29
ATOM     29  N   UNL     1       1.768  11.431  19.015  0.00  0.00    +0.000 NA
ATOM     30  H   UNL     1       2.572  11.266  19.627  0.00  0.00    +0.000 HD
BRANCH  29  31
ATOM     31  C   UNL     1       0.688  12.259  19.580  0.00  0.00    +0.000 C 
BRANCH  31  32
ATOM     32  C   UNL     1       0.868  12.483  21.064  0.00  0.00    +0.000 C 
ATOM     33  O   UNL     1       0.132  12.032  21.932  0.00  0.00    +0.000 OA
BRANCH  32  35
ATOM     34  C   UNL     1       1.631  14.669  21.472  0.00  0.00    +0.000 C 
ATOM     35  O   UNL     1       1.945  13.289  21.283  0.00  0.00    +0.000 OA
ENDBRANCH  32  35
ENDBRANCH  31  32
ENDBRANCH  29  31
ENDBRANCH  26  29
ENDBRANCH  20  26
ENDBRANCH   1  24
TORSDOF 9
ENDMDL
MODEL 8
REMARK VINA RESULT:      -7.7      3.627     11.302
REMARK  Name = 
REMARK  13 active torsions:
REMARK  status: ('A' for Active; 'I' for Inactive)
REMARK    1  A    between atoms: C_1  and  O_2
REMARK    2  A    between atoms: O_2  and  C_3
REMARK    3  A    between atoms: C_3  and  C_5
REMARK    4  A    between atoms: C_5  and  N_6
REMARK    5  A    between atoms: N_6  and  S_7
REMARK    6  A    between atoms: S_7  and  C_10
REMARK    7  A    between atoms: C_14  and  C_15
REMARK    8  A    between atoms: C_15  and  C_16
REMARK    9  A    between atoms: C_15  and  N_17
REMARK   10  A    between atoms: C_20  and  C_21
REMARK   11  A    between atoms: C_25  and  O_26
REMARK   12  A    between atoms: O_26  and  C_27
REMARK   13  A    between atoms: C_30  and  C_31
REMARK                            x       y       z     vdW  Elec       q    Type
REMARK                         _______ _______ _______ _____ _____    ______ ____
ROOT
ATOM      1  C   UNL     1       1.992   8.342  19.285  0.00  0.00    +0.000 C 
ATOM      2  C   UNL     1       1.776   8.664  17.798  0.00  0.00    +0.000 C 
ENDROOT
BRANCH   1   3
ATOM      3  N   UNL     1       0.765   8.670  20.024  0.00  0.00    +0.000 N 
ATOM      4  C   UNL     1       0.501  10.038  20.218  0.00  0.00    +0.000 A 
ATOM      5  C   UNL     1      -0.675  10.391  20.856  0.00  0.00    +0.000 A 
ATOM      6  C   UNL     1      -0.921  11.739  21.057  0.00  0.00    +0.000 A 
ATOM      7  N   UNL     1      -0.052  12.680  20.638  0.00  0.00    +0.000 NA
ATOM      8  C   UNL     1       1.062  12.254  20.025  0.00  0.00    +0.000 A 
ATOM      9  C   UNL     1       2.078  13.280  19.629  0.00  0.00    +0.000 C 
ATOM     10  N   UNL     1       1.365  10.966  19.791  0.00  0.00    +0.000 NA
ATOM     11  H   UNL     1       0.730   8.200  20.926  0.00  0.00    +0.000 HD
BRANCH   6  12
ATOM     12  C   UNL     1      -2.113  12.248  21.769  0.00  0.00    +0.000 A 
ATOM     13  C   UNL     1      -2.142  12.317  23.175  0.00  0.00    +0.000 A 
ATOM     14  C   UNL     1      -3.277  12.760  23.857  0.00  0.00    +0.000 A 
ATOM     15  C   UNL     1      -4.411  13.137  23.144  0.00  0.00    +0.000 A 
ATOM     16  C   UNL     1      -4.419  13.079  21.751  0.00  0.00    +0.000 A 
ATOM     17  C   UNL     1      -3.276  12.640  21.075  0.00  0.00    +0.000 A 
BRANCH  16  18
ATOM     18  O   UNL     1      -5.597  13.462  21.168  0.00  0.00    +0.000 OA
ATOM     19  C   UNL     1      -5.584  13.660  19.760  0.00  0.00    +0.000 C 
ENDBRANCH  16  18
ENDBRANCH   6  12
ENDBRANCH   1   3
BRANCH   1  24
ATOM     20  C   UNL     1       3.359   4.765  18.878  0.00  0.00    +0.000 A 
ATOM     21  C   UNL     1       2.877   4.141  20.029  0.00  0.00    +0.000 A 
ATOM     22  C   UNL     1       2.112   4.880  20.934  0.00  0.00    +0.000 A 
ATOM     23  C   UNL     1       1.824   6.226  20.683  0.00  0.00    +0.000 A 
ATOM     24  C   UNL     1       2.325   6.871  19.540  0.00  0.00    +0.000 A 
ATOM     25  C   UNL     1       3.106   6.121  18.654  0.00  0.00    +0.000 A 
BRANCH  20  26
ATOM     26  S   UNL     1       4.347   3.867  17.706  0.00  0.00    +0.000 S 
ATOM     27  O   UNL     1       4.406   4.643  16.486  0.00  0.00    +0.000 OA
ATOM     28  O   UNL     1       3.917   2.489  17.720  0.00  0.00    +0.000 OA
BRANCH  26  29
ATOM     29  N   UNL     1       5.896   3.947  18.358  0.00  0.00    +0.000 NA
ATOM     30  H   UNL     1       5.962   3.482  19.268  0.00  0.00    +0.000 HD
BRANCH  29  31
ATOM     31  C   UNL     1       6.632   5.217  18.230  0.00  0.00    +0.000 C 
BRANCH  31  32
ATOM     32  C   UNL     1       7.441   5.273  16.955  0.00  0.00    +0.000 C 
ATOM     33  O   UNL     1       7.889   4.296  16.368  0.00  0.00    +0.000 OA
BRANCH  32  35
ATOM     34  C   UNL     1       7.562   7.516  17.650  0.00  0.00    +0.000 C 
ATOM     35  O   UNL     1       7.628   6.571  16.582  0.00  0.00    +0.000 OA
ENDBRANCH  32  35
ENDBRANCH  31  32
ENDBRANCH  29  31
ENDBRANCH  26  29
ENDBRANCH  20  26
ENDBRANCH   1  24
TORSDOF 9
ENDMDL
MODEL 9
REMARK VINA RESULT:      -7.7      2.639      3.050
REMARK  Name = 
REMARK  13 active torsions:
REMARK  status: ('A' for Active; 'I' for Inactive)
REMARK    1  A    between atoms: C_1  and  O_2
REMARK    2  A    between atoms: O_2  and  C_3
REMARK    3  A    between atoms: C_3  and  C_5
REMARK    4  A    between atoms: C_5  and  N_6
REMARK    5  A    between atoms: N_6  and  S_7
REMARK    6  A    between atoms: S_7  and  C_10
REMARK    7  A    between atoms: C_14  and  C_15
REMARK    8  A    between atoms: C_15  and  C_16
REMARK    9  A    between atoms: C_15  and  N_17
REMARK   10  A    between atoms: C_20  and  C_21
REMARK   11  A    between atoms: C_25  and  O_26
REMARK   12  A    between atoms: O_26  and  C_27
REMARK   13  A    between atoms: C_30  and  C_31
REMARK                            x       y       z     vdW  Elec       q    Type
REMARK                         _______ _______ _______ _____ _____    ______ ____
ROOT
ATOM      1  C   UNL     1       3.175   5.239  19.861  0.00  0.00    +0.000 C 
ATOM      2  C   UNL     1       2.594   3.968  20.501  0.00  0.00    +0.000 C 
ENDROOT
BRANCH   1   3
ATOM      3  N   UNL     1       3.323   5.016  18.415  0.00  0.00    +0.000 N 
ATOM      4  C   UNL     1       4.638   5.018  17.916  0.00  0.00    +0.000 A 
ATOM      5  C   UNL     1       4.825   4.752  16.572  0.00  0.00    +0.000 A 
ATOM      6  C   UNL     1       6.121   4.770  16.084  0.00  0.00    +0.000 A 
ATOM      7  N   UNL     1       7.170   5.028  16.890  0.00  0.00    +0.000 NA
ATOM      8  C   UNL     1       6.903   5.272  18.181  0.00  0.00    +0.000 A 
ATOM      9  C   UNL     1       8.046   5.643  19.073  0.00  0.00    +0.000 C 
ATOM     10  N   UNL     1       5.674   5.265  18.726  0.00  0.00    +0.000 NA
ATOM     11  H   UNL     1       2.768   5.674  17.873  0.00  0.00    +0.000 HD
BRANCH   6  12
ATOM     12  C   UNL     1       6.454   4.553  14.659  0.00  0.00    +0.000 A 
ATOM     13  C   UNL     1       7.490   5.276  14.039  0.00  0.00    +0.000 A 
ATOM     14  C   UNL     1       7.786   5.105  12.685  0.00  0.00    +0.000 A 
ATOM     15  C   UNL     1       7.043   4.209  11.922  0.00  0.00    +0.000 A 
ATOM     16  C   UNL     1       6.009   3.478  12.502  0.00  0.00    +0.000 A 
ATOM     17  C   UNL     1       5.722   3.650  13.860  0.00  0.00    +0.000 A 
BRANCH  16  18
ATOM     18  O   UNL     1       5.345   2.643  11.644  0.00  0.00    +0.000 OA
ATOM     19  C   UNL     1       4.085   3.086  11.159  0.00  0.00    +0.000 C 
ENDBRANCH  16  18
ENDBRANCH   6  12
ENDBRANCH   1   3
BRANCH   1  24
ATOM     20  C   UNL     1       1.441   8.637  19.339  0.00  0.00    +0.000 A 
ATOM     21  C   UNL     1       0.692   8.760  20.510  0.00  0.00    +0.000 A 
ATOM     22  C   UNL     1       0.749   7.742  21.464  0.00  0.00    +0.000 A 
ATOM     23  C   UNL     1       1.556   6.618  21.253  0.00  0.00    +0.000 A 
ATOM     24  C   UNL     1       2.295   6.473  20.067  0.00  0.00    +0.000 A 
ATOM     25  C   UNL     1       2.211   7.493  19.113  0.00  0.00    +0.000 A 
BRANCH  20  26
ATOM     26  S   UNL     1       1.389   9.902  18.092  0.00  0.00    +0.000 S 
ATOM     27  O   UNL     1       0.017  10.041  17.657  0.00  0.00    +0.000 OA
ATOM     28  O   UNL     1       2.469   9.661  17.165  0.00  0.00    +0.000 OA
BRANCH  26  29
ATOM     29  N   UNL     1       1.728  11.309  18.950  0.00  0.00    +0.000 NA
ATOM     30  H   UNL     1       2.342  11.141  19.752  0.00  0.00    +0.000 HD
BRANCH  29  31
ATOM     31  C   UNL     1       0.627  12.263  19.171  0.00  0.00    +0.000 C 
BRANCH  31  32
ATOM     32  C   UNL     1       0.953  13.636  18.626  0.00  0.00    +0.000 C 
ATOM     33  O   UNL     1       2.069  14.002  18.280  0.00  0.00    +0.000 OA
BRANCH  32  35
ATOM     34  C   UNL     1      -0.895  14.424  19.848  0.00  0.00    +0.000 C 
ATOM     35  O   UNL     1      -0.170  14.408  18.618  0.00  0.00    +0.000 OA
ENDBRANCH  32  35
ENDBRANCH  31  32
ENDBRANCH  29  31
ENDBRANCH  26  29
ENDBRANCH  20  26
ENDBRANCH   1  24
TORSDOF 9
ENDMDL
