MODEL 1
REMARK VINA RESULT:      -8.5      0.000      0.000
REMARK  Name = 
REMARK  1 active torsions:
REMARK  status: ('A' for Active; 'I' for Inactive)
REMARK    1  A    between atoms: C_2  and  C_13
REMARK                            x       y       z     vdW  Elec       q    Type
REMARK                         _______ _______ _______ _____ _____    ______ ____
ROOT
ATOM      1  O   UNL     1       1.825   6.441  20.753  0.00  0.00    +0.000 OA
ATOM      2  C   UNL     1       1.736   7.507  20.158  0.00  0.00    +0.000 C 
ATOM      3  N   UNL     1       2.326   7.825  18.954  0.00  0.00    +0.000 N 
ATOM      4  C   UNL     1       3.079   6.935  18.215  0.00  0.00    +0.000 A 
ATOM      5  N   UNL     1       3.938   7.323  17.303  0.00  0.00    +0.000 NA
ATOM      6  C   UNL     1       4.591   6.210  16.784  0.00  0.00    +0.000 A 
ATOM      7  C   UNL     1       5.659   6.219  15.862  0.00  0.00    +0.000 A 
ATOM      8  C   UNL     1       6.210   5.011  15.417  0.00  0.00    +0.000 A 
ATOM      9  C   UNL     1       5.703   3.795  15.865  0.00  0.00    +0.000 A 
ATOM     10  C   UNL     1       4.653   3.757  16.787  0.00  0.00    +0.000 A 
ATOM     11  C   UNL     1       4.129   4.976  17.244  0.00  0.00    +0.000 A 
ATOM     12  S   UNL     1       2.894   5.248  18.395  0.00  0.00    +0.000 S 
ATOM     13  H   UNL     1       2.453   8.795  18.698  0.00  0.00    +0.000 HD
ENDROOT
BRANCH   2  14
ATOM     14  C   UNL     1       1.040   8.662  20.819  0.00  0.00    +0.000 A 
ATOM     15  C   UNL     1       0.369   9.555  20.069  0.00  0.00    +0.000 A 
ATOM     16  C   UNL     1      -0.427  10.567  20.752  0.00  0.00    +0.000 A 
ATOM     17  C   UNL     1      -1.198  11.489  20.032  0.00  0.00    +0.000 A 
ATOM     18  C   UNL     1      -1.985  12.429  20.706  0.00  0.00    +0.000 A 
ATOM     19  C   UNL     1      -2.009  12.455  22.098  0.00  0.00    +0.000 A 
ATOM     20  C   UNL     1      -1.250  11.537  22.823  0.00  0.00    +0.000 A 
ATOM     21  C   UNL     1      -0.464  10.595  22.148  0.00  0.00    +0.000 A 
ATOM     22  C   UNL     1       0.325   9.614  22.935  0.00  0.00    +0.000 A 
ATOM     23  O   UNL     1       0.326   9.627  24.150  0.00  0.00    +0.000 OA
ATOM     24  O   UNL     1       1.042   8.693  22.227  0.00  0.00    +0.000 OA
ENDBRANCH   2  14
TORSDOF 1
ENDMDL
MODEL 2
REMARK VINA RESULT:      -8.5      1.863      8.481
REMARK  Name = 
REMARK  1 active torsions:
REMARK  status: ('A' for Active; 'I' for Inactive)
REMARK    1  A    between atoms: C_2  and  C_13
REMARK                            x       y       z     vdW  Elec       q    Type
REMARK                         _______ _______ _______ _____ _____    ______ ____
ROOT
ATOM      1  O   UNL     1       1.727   6.230  20.838  0.00  0.00    +0.000 OA
ATOM      2  C   UNL     1       2.124   6.780  19.820  0.00  0.00    +0.000 C 
ATOM      3  N   UNL     1       1.844   8.070  19.424  0.00  0.00    +0.000 N 
ATOM      4  C   UNL     1       1.096   8.953  20.175  0.00  0.00    +0.000 A 
ATOM      5  N   UNL     1       0.513  10.007  19.654  0.00  0.00    +0.000 NA
ATOM      6  C   UNL     1      -0.222  10.659  20.638  0.00  0.00    +0.000 A 
ATOM      7  C   UNL     1      -1.074  11.769  20.452  0.00  0.00    +0.000 A 
ATOM      8  C   UNL     1      -1.743  12.330  21.547  0.00  0.00    +0.000 A 
ATOM      9  C   UNL     1      -1.563  11.811  22.826  0.00  0.00    +0.000 A 
ATOM     10  C   UNL     1      -0.735  10.706  23.037  0.00  0.00    +0.000 A 
ATOM     11  C   UNL     1      -0.092  10.138  21.927  0.00  0.00    +0.000 A 
ATOM     12  S   UNL     1       0.928   8.767  21.862  0.00  0.00    +0.000 S 
ATOM     13  H   UNL     1       1.949   8.330  18.452  0.00  0.00    +0.000 HD
ENDROOT
BRANCH   2  14
ATOM     14  C   UNL     1       2.881   5.980  18.799  0.00  0.00    +0.000 A 
ATOM     15  C   UNL     1       3.550   6.612  17.817  0.00  0.00    +0.000 A 
ATOM     16  C   UNL     1       4.404   5.817  16.944  0.00  0.00    +0.000 A 
ATOM     17  C   UNL     1       5.175   6.419  15.941  0.00  0.00    +0.000 A 
ATOM     18  C   UNL     1       6.017   5.643  15.137  0.00  0.00    +0.000 A 
ATOM     19  C   UNL     1       6.096   4.266  15.329  0.00  0.00    +0.000 A 
ATOM     20  C   UNL     1       5.338   3.659  16.328  0.00  0.00    +0.000 A 
ATOM     21  C   UNL     1       4.496   4.436  17.134  0.00  0.00    +0.000 A 
ATOM     22  C   UNL     1       3.708   3.776  18.205  0.00  0.00    +0.000 A 
ATOM     23  O   UNL     1       3.755   2.574  18.381  0.00  0.00    +0.000 OA
ATOM     24  O   UNL     1       2.935   4.586  18.986  0.00  0.00    +0.000 OA
ENDBRANCH   2  14
TORSDOF 1
ENDMDL
MODEL 3
REMARK VINA RESULT:      -8.1      1.787      2.427
REMARK  Name = 
REMARK  1 active torsions:
REMARK  status: ('A' for Active; 'I' for Inactive)
REMARK    1  A    between atoms: C_2  and  C_13
REMARK                            x       y       z     vdW  Elec       q    Type
REMARK                         _______ _______ _______ _____ _____    ______ ____
ROOT
ATOM      1  O   UNL     1       2.026   8.478  18.782  0.00  0.00    +0.000 OA
ATOM      2  C   UNL     1       1.651   8.181  19.909  0.00  0.00    +0.000 C 
ATOM      3  N   UNL     1       1.721   6.936  20.494  0.00  0.00    +0.000 N 
ATOM      4  C   UNL     1       2.288   5.836  19.883  0.00  0.00    +0.000 A 
ATOM      5  N   UNL     1       2.019   4.606  20.251  0.00  0.00    +0.000 NA
ATOM      6  C   UNL     1       2.680   3.720  19.408  0.00  0.00    +0.000 A 
ATOM      7  C   UNL     1       2.560   2.313  19.409  0.00  0.00    +0.000 A 
ATOM      8  C   UNL     1       3.304   1.546  18.504  0.00  0.00    +0.000 A 
ATOM      9  C   UNL     1       4.176   2.158  17.609  0.00  0.00    +0.000 A 
ATOM     10  C   UNL     1       4.306   3.549  17.578  0.00  0.00    +0.000 A 
ATOM     11  C   UNL     1       3.534   4.307  18.473  0.00  0.00    +0.000 A 
ATOM     12  S   UNL     1       3.439   6.006  18.635  0.00  0.00    +0.000 S 
ATOM     13  H   UNL     1       1.124   6.718  21.281  0.00  0.00    +0.000 HD
ENDROOT
BRANCH   2  14
ATOM     14  C   UNL     1       0.914   9.200  20.729  0.00  0.00    +0.000 A 
ATOM     15  C   UNL     1       0.189  10.154  20.115  0.00  0.00    +0.000 A 
ATOM     16  C   UNL     1      -0.641  11.024  20.938  0.00  0.00    +0.000 A 
ATOM     17  C   UNL     1      -1.466  11.997  20.360  0.00  0.00    +0.000 A 
ATOM     18  C   UNL     1      -2.284  12.797  21.165  0.00  0.00    +0.000 A 
ATOM     19  C   UNL     1      -2.285  12.633  22.548  0.00  0.00    +0.000 A 
ATOM     20  C   UNL     1      -1.472  11.663  23.131  0.00  0.00    +0.000 A 
ATOM     21  C   UNL     1      -0.655  10.860  22.326  0.00  0.00    +0.000 A 
ATOM     22  C   UNL     1       0.193   9.821  22.963  0.00  0.00    +0.000 A 
ATOM     23  O   UNL     1       0.214   9.669  24.168  0.00  0.00    +0.000 OA
ATOM     24  O   UNL     1       0.939   9.041  22.128  0.00  0.00    +0.000 OA
ENDBRANCH   2  14
TORSDOF 1
ENDMDL
MODEL 4
REMARK VINA RESULT:      -8.0      1.997      8.402
REMARK  Name = 
REMARK  1 active torsions:
REMARK  status: ('A' for Active; 'I' for Inactive)
REMARK    1  A    between atoms: C_2  and  C_13
REMARK                            x       y       z     vdW  Elec       q    Type
REMARK                         _______ _______ _______ _____ _____    ______ ____
ROOT
ATOM      1  O   UNL     1       1.838   6.858  20.502  0.00  0.00    +0.000 OA
ATOM      2  C   UNL     1       2.338   7.260  19.460  0.00  0.00    +0.000 C 
ATOM      3  N   UNL     1       2.031   8.430  18.801  0.00  0.00    +0.000 N 
ATOM      4  C   UNL     1       1.124   9.356  19.274  0.00  0.00    +0.000 A 
ATOM      5  N   UNL     1       0.552  10.246  18.498  0.00  0.00    +0.000 NA
ATOM      6  C   UNL     1      -0.361  10.986  19.242  0.00  0.00    +0.000 A 
ATOM      7  C   UNL     1      -1.251  11.963  18.747  0.00  0.00    +0.000 A 
ATOM      8  C   UNL     1      -2.107  12.639  19.624  0.00  0.00    +0.000 A 
ATOM      9  C   UNL     1      -2.079  12.368  20.988  0.00  0.00    +0.000 A 
ATOM     10  C   UNL     1      -1.216  11.398  21.505  0.00  0.00    +0.000 A 
ATOM     11  C   UNL     1      -0.382  10.709  20.610  0.00  0.00    +0.000 A 
ATOM     12  S   UNL     1       0.728   9.449  20.931  0.00  0.00    +0.000 S 
ATOM     13  H   UNL     1       2.257   8.528  17.820  0.00  0.00    +0.000 HD
ENDROOT
BRANCH   2  14
ATOM     14  C   UNL     1       3.288   6.370  18.711  0.00  0.00    +0.000 A 
ATOM     15  C   UNL     1       3.671   6.702  17.464  0.00  0.00    +0.000 A 
ATOM     16  C   UNL     1       4.715   5.906  16.830  0.00  0.00    +0.000 A 
ATOM     17  C   UNL     1       5.203   6.233  15.558  0.00  0.00    +0.000 A 
ATOM     18  C   UNL     1       6.231   5.478  14.982  0.00  0.00    +0.000 A 
ATOM     19  C   UNL     1       6.778   4.397  15.669  0.00  0.00    +0.000 A 
ATOM     20  C   UNL     1       6.302   4.068  16.937  0.00  0.00    +0.000 A 
ATOM     21  C   UNL     1       5.274   4.824  17.515  0.00  0.00    +0.000 A 
ATOM     22  C   UNL     1       4.790   4.470  18.873  0.00  0.00    +0.000 A 
ATOM     23  O   UNL     1       5.247   3.524  19.484  0.00  0.00    +0.000 OA
ATOM     24  O   UNL     1       3.816   5.264  19.404  0.00  0.00    +0.000 OA
ENDBRANCH   2  14
TORSDOF 1
ENDMDL
MODEL 5
REMARK VINA RESULT:      -7.9      1.432      1.952
REMARK  Name = 
REMARK  1 active torsions:
REMARK  status: ('A' for Active; 'I' for Inactive)
REMARK    1  A    between atoms: C_2  and  C_13
REMARK                            x       y       z     vdW  Elec       q    Type
REMARK                         _______ _______ _______ _____ _____    ______ ____
ROOT
ATOM      1  O   UNL     1       1.609   9.521  18.237  0.00  0.00    +0.000 OA
ATOM      2  C   UNL     1       1.460   9.109  19.380  0.00  0.00    +0.000 C 
ATOM      3  N   UNL     1       1.874   7.891  19.872  0.00  0.00    +0.000 N 
ATOM      4  C   UNL     1       2.579   6.967  19.128  0.00  0.00    +0.000 A 
ATOM      5  N   UNL     1       2.633   5.696  19.446  0.00  0.00    +0.000 NA
ATOM      6  C   UNL     1       3.352   5.008  18.474  0.00  0.00    +0.000 A 
ATOM      7  C   UNL     1       3.540   3.612  18.400  0.00  0.00    +0.000 A 
ATOM      8  C   UNL     1       4.305   3.062  17.364  0.00  0.00    +0.000 A 
ATOM      9  C   UNL     1       4.898   3.884  16.411  0.00  0.00    +0.000 A 
ATOM     10  C   UNL     1       4.719   5.269  16.453  0.00  0.00    +0.000 A 
ATOM     11  C   UNL     1       3.928   5.804  17.482  0.00  0.00    +0.000 A 
ATOM     12  S   UNL     1       3.490   7.432  17.762  0.00  0.00    +0.000 S 
ATOM     13  H   UNL     1       1.448   7.517  20.709  0.00  0.00    +0.000 HD
ENDROOT
BRANCH   2  14
ATOM     14  C   UNL     1       0.635   9.909  20.347  0.00  0.00    +0.000 A 
ATOM     15  C   UNL     1      -0.238  10.823  19.884  0.00  0.00    +0.000 A 
ATOM     16  C   UNL     1      -1.134  11.463  20.838  0.00  0.00    +0.000 A 
ATOM     17  C   UNL     1      -2.107  12.378  20.415  0.00  0.00    +0.000 A 
ATOM     18  C   UNL     1      -2.983  12.954  21.341  0.00  0.00    +0.000 A 
ATOM     19  C   UNL     1      -2.896  12.621  22.691  0.00  0.00    +0.000 A 
ATOM     20  C   UNL     1      -1.935  11.707  23.120  0.00  0.00    +0.000 A 
ATOM     21  C   UNL     1      -1.059  11.129  22.192  0.00  0.00    +0.000 A 
ATOM     22  C   UNL     1      -0.052  10.146  22.664  0.00  0.00    +0.000 A 
ATOM     23  O   UNL     1       0.048   9.850  23.838  0.00  0.00    +0.000 OA
ATOM     24  O   UNL     1       0.749   9.583  21.712  0.00  0.00    +0.000 OA
ENDBRANCH   2  14
TORSDOF 1
ENDMDL
MODEL 6
REMARK VINA RESULT:      -7.9      2.445      8.614
REMARK  Name = 
REMARK  1 active torsions:
REMARK  status: ('A' for Active; 'I' for Inactive)
REMARK    1  A    between atoms: C_2  and  C_13
REMARK                            x       y       z     vdW  Elec       q    Type
REMARK                         _______ _______ _______ _____ _____    ______ ____
ROOT
ATOM      1  O   UNL     1       2.327   9.233  17.594  0.00  0.00    +0.000 OA
ATOM      2  C   UNL     1       2.417   8.265  18.339  0.00  0.00    +0.000 C 
ATOM      3  N   UNL     1       1.792   8.109  19.557  0.00  0.00    +0.000 N 
ATOM      4  C   UNL     1       0.916   9.032  20.089  0.00  0.00    +0.000 A 
ATOM      5  N   UNL     1       0.632   9.082  21.369  0.00  0.00    +0.000 NA
ATOM      6  C   UNL     1      -0.218  10.156  21.610  0.00  0.00    +0.000 A 
ATOM      7  C   UNL     1      -0.663  10.607  22.871  0.00  0.00    +0.000 A 
ATOM      8  C   UNL     1      -1.533  11.700  22.957  0.00  0.00    +0.000 A 
ATOM      9  C   UNL     1      -1.979  12.341  21.805  0.00  0.00    +0.000 A 
ATOM     10  C   UNL     1      -1.546  11.922  20.544  0.00  0.00    +0.000 A 
ATOM     11  C   UNL     1      -0.652  10.842  20.475  0.00  0.00    +0.000 A 
ATOM     12  S   UNL     1       0.085  10.145  19.098  0.00  0.00    +0.000 S 
ATOM     13  H   UNL     1       2.155   7.442  20.225  0.00  0.00    +0.000 HD
ENDROOT
BRANCH   2  14
ATOM     14  C   UNL     1       3.391   7.171  18.009  0.00  0.00    +0.000 A 
ATOM     15  C   UNL     1       3.844   7.039  16.748  0.00  0.00    +0.000 A 
ATOM     16  C   UNL     1       4.907   6.074  16.497  0.00  0.00    +0.000 A 
ATOM     17  C   UNL     1       5.466   5.929  15.220  0.00  0.00    +0.000 A 
ATOM     18  C   UNL     1       6.511   5.024  15.007  0.00  0.00    +0.000 A 
ATOM     19  C   UNL     1       7.005   4.261  16.063  0.00  0.00    +0.000 A 
ATOM     20  C   UNL     1       6.459   4.403  17.337  0.00  0.00    +0.000 A 
ATOM     21  C   UNL     1       5.414   5.311  17.551  0.00  0.00    +0.000 A 
ATOM     22  C   UNL     1       4.855   5.461  18.918  0.00  0.00    +0.000 A 
ATOM     23  O   UNL     1       5.265   4.797  19.850  0.00  0.00    +0.000 OA
ATOM     24  O   UNL     1       3.866   6.388  19.078  0.00  0.00    +0.000 OA
ENDBRANCH   2  14
TORSDOF 1
ENDMDL
MODEL 7
REMARK VINA RESULT:      -7.8      2.748      8.684
REMARK  Name = 
REMARK  1 active torsions:
REMARK  status: ('A' for Active; 'I' for Inactive)
REMARK    1  A    between atoms: C_2  and  C_13
REMARK                            x       y       z     vdW  Elec       q    Type
REMARK                         _______ _______ _______ _____ _____    ______ ____
ROOT
ATOM      1  O   UNL     1       1.964   9.770  17.539  0.00  0.00    +0.000 OA
ATOM      2  C   UNL     1       1.913   8.826  18.317  0.00  0.00    +0.000 C 
ATOM      3  N   UNL     1       1.262   8.801  19.531  0.00  0.00    +0.000 N 
ATOM      4  C   UNL     1       0.516   9.854  20.019  0.00  0.00    +0.000 A 
ATOM      5  N   UNL     1       0.230   9.988  21.293  0.00  0.00    +0.000 NA
ATOM      6  C   UNL     1      -0.466  11.176  21.485  0.00  0.00    +0.000 A 
ATOM      7  C   UNL     1      -0.856  11.729  22.724  0.00  0.00    +0.000 A 
ATOM      8  C   UNL     1      -1.569  12.933  22.760  0.00  0.00    +0.000 A 
ATOM      9  C   UNL     1      -1.911  13.587  21.580  0.00  0.00    +0.000 A 
ATOM     10  C   UNL     1      -1.529  13.068  20.341  0.00  0.00    +0.000 A 
ATOM     11  C   UNL     1      -0.792  11.874  20.321  0.00  0.00    +0.000 A 
ATOM     12  S   UNL     1      -0.145  11.034  18.980  0.00  0.00    +0.000 S 
ATOM     13  H   UNL     1       1.523   8.114  20.226  0.00  0.00    +0.000 HD
ENDROOT
BRANCH   2  14
ATOM     14  C   UNL     1       2.731   7.598  18.038  0.00  0.00    +0.000 A 
ATOM     15  C   UNL     1       2.238   6.384  18.345  0.00  0.00    +0.000 A 
ATOM     16  C   UNL     1       2.985   5.209  17.914  0.00  0.00    +0.000 A 
ATOM     17  C   UNL     1       2.499   3.916  18.148  0.00  0.00    +0.000 A 
ATOM     18  C   UNL     1       3.213   2.802  17.693  0.00  0.00    +0.000 A 
ATOM     19  C   UNL     1       4.411   2.969  17.004  0.00  0.00    +0.000 A 
ATOM     20  C   UNL     1       4.899   4.252  16.762  0.00  0.00    +0.000 A 
ATOM     21  C   UNL     1       4.184   5.368  17.215  0.00  0.00    +0.000 A 
ATOM     22  C   UNL     1       4.710   6.727  16.934  0.00  0.00    +0.000 A 
ATOM     23  O   UNL     1       5.759   6.894  16.344  0.00  0.00    +0.000 OA
ATOM     24  O   UNL     1       3.953   7.779  17.363  0.00  0.00    +0.000 OA
ENDBRANCH   2  14
TORSDOF 1
ENDMDL
MODEL 8
REMARK VINA RESULT:      -7.8      2.495      8.540
REMARK  Name = 
REMARK  1 active torsions:
REMARK  status: ('A' for Active; 'I' for Inactive)
REMARK    1  A    between atoms: C_2  and  C_13
REMARK                            x       y       z     vdW  Elec       q    Type
REMARK                         _______ _______ _______ _____ _____    ______ ____
ROOT
ATOM      1  O   UNL     1       1.726   9.400  17.622  0.00  0.00    +0.000 OA
ATOM      2  C   UNL     1       1.870   8.583  18.523  0.00  0.00    +0.000 C 
ATOM      3  N   UNL     1       1.314   8.645  19.782  0.00  0.00    +0.000 N 
ATOM      4  C   UNL     1       0.455   9.646  20.188  0.00  0.00    +0.000 A 
ATOM      5  N   UNL     1       0.241   9.924  21.452  0.00  0.00    +0.000 NA
ATOM      6  C   UNL     1      -0.610  11.020  21.543  0.00  0.00    +0.000 A 
ATOM      7  C   UNL     1      -0.993  11.689  22.726  0.00  0.00    +0.000 A 
ATOM      8  C   UNL     1      -1.873  12.776  22.662  0.00  0.00    +0.000 A 
ATOM      9  C   UNL     1      -2.390  13.196  21.441  0.00  0.00    +0.000 A 
ATOM     10  C   UNL     1      -2.020  12.559  20.253  0.00  0.00    +0.000 A 
ATOM     11  C   UNL     1      -1.116  11.488  20.329  0.00  0.00    +0.000 A 
ATOM     12  S   UNL     1      -0.445  10.559  19.061  0.00  0.00    +0.000 S 
ATOM     13  H   UNL     1       1.723   8.111  20.537  0.00  0.00    +0.000 HD
ENDROOT
BRANCH   2  14
ATOM     14  C   UNL     1       2.841   7.452  18.340  0.00  0.00    +0.000 A 
ATOM     15  C   UNL     1       3.800   7.540  17.399  0.00  0.00    +0.000 A 
ATOM     16  C   UNL     1       4.820   6.501  17.358  0.00  0.00    +0.000 A 
ATOM     17  C   UNL     1       5.880   6.563  16.444  0.00  0.00    +0.000 A 
ATOM     18  C   UNL     1       6.871   5.575  16.445  0.00  0.00    +0.000 A 
ATOM     19  C   UNL     1       6.812   4.522  17.355  0.00  0.00    +0.000 A 
ATOM     20  C   UNL     1       5.763   4.455  18.271  0.00  0.00    +0.000 A 
ATOM     21  C   UNL     1       4.773   5.445  18.272  0.00  0.00    +0.000 A 
ATOM     22  C   UNL     1       3.672   5.367  19.265  0.00  0.00    +0.000 A 
ATOM     23  O   UNL     1       3.597   4.451  20.060  0.00  0.00    +0.000 OA
ATOM     24  O   UNL     1       2.757   6.379  19.248  0.00  0.00    +0.000 OA
ENDBRANCH   2  14
TORSDOF 1
ENDMDL
MODEL 9
REMARK VINA RESULT:      -7.7      3.009      4.956
REMARK  Name = 
REMARK  1 active torsions:
REMARK  status: ('A' for Active; 'I' for Inactive)
REMARK    1  A    between atoms: C_2  and  C_13
REMARK                            x       y       z     vdW  Elec       q    Type
REMARK                         _______ _______ _______ _____ _____    ______ ____
ROOT
ATOM      1  O   UNL     1      -0.111  10.141  23.506  0.00  0.00    +0.000 OA
ATOM      2  C   UNL     1      -0.740  10.819  22.703  0.00  0.00    +0.000 C 
ATOM      3  N   UNL     1      -0.638  10.767  21.331  0.00  0.00    +0.000 N 
ATOM      4  C   UNL     1       0.179   9.880  20.659  0.00  0.00    +0.000 A 
ATOM      5  N   UNL     1       0.569  10.076  19.422  0.00  0.00    +0.000 NA
ATOM      6  C   UNL     1       1.436   9.056  19.046  0.00  0.00    +0.000 A 
ATOM      7  C   UNL     1       2.152   8.967  17.833  0.00  0.00    +0.000 A 
ATOM      8  C   UNL     1       2.982   7.866  17.589  0.00  0.00    +0.000 A 
ATOM      9  C   UNL     1       3.096   6.846  18.528  0.00  0.00    +0.000 A 
ATOM     10  C   UNL     1       2.408   6.913  19.742  0.00  0.00    +0.000 A 
ATOM     11  C   UNL     1       1.601   8.035  19.984  0.00  0.00    +0.000 A 
ATOM     12  S   UNL     1       0.690   8.421  21.379  0.00  0.00    +0.000 S 
ATOM     13  H   UNL     1      -0.952  11.551  20.775  0.00  0.00    +0.000 HD
ENDROOT
BRANCH   2  14
ATOM     14  C   UNL     1      -1.625  11.922  23.208  0.00  0.00    +0.000 A 
ATOM     15  C   UNL     1      -1.219  13.202  23.108  0.00  0.00    +0.000 A 
ATOM     16  C   UNL     1      -2.166  14.253  23.458  0.00  0.00    +0.000 A 
ATOM     17  C   UNL     1      -1.830  15.606  23.320  0.00  0.00    +0.000 A 
ATOM     18  C   UNL     1      -2.766  16.599  23.624  0.00  0.00    +0.000 A 
ATOM     19  C   UNL     1      -4.040  16.252  24.067  0.00  0.00    +0.000 A 
ATOM     20  C   UNL     1      -4.385  14.908  24.202  0.00  0.00    +0.000 A 
ATOM     21  C   UNL     1      -3.449  13.913  23.895  0.00  0.00    +0.000 A 
ATOM     22  C   UNL     1      -3.839  12.487  24.029  0.00  0.00    +0.000 A 
ATOM     23  O   UNL     1      -4.942  12.163  24.423  0.00  0.00    +0.000 OA
ATOM     24  O   UNL     1      -2.901  11.559  23.678  0.00  0.00    +0.000 OA
ENDBRANCH   2  14
TORSDOF 1
ENDMDL
