MODEL 1
REMARK VINA RESULT:      -8.3      0.000      0.000
REMARK  Name = 
REMARK  5 active torsions:
REMARK  status: ('A' for Active; 'I' for Inactive)
REMARK    1  A    between atoms: C_2  and  O_3
REMARK    2  A    between atoms: C_2  and  C_4
REMARK    3  A    between atoms: C_9  and  N_10
REMARK    4  A    between atoms: N_13  and  C_14
REMARK    5  A    between atoms: C_14  and  C_15
REMARK                            x       y       z     vdW  Elec       q    Type
REMARK                         _______ _______ _______ _____ _____    ______ ____
ROOT
ATOM      1  C   UNL     1       5.452   4.860  16.630  0.00  0.00    +0.000 A 
ATOM      2  C   UNL     1       4.983   4.194  17.694  0.00  0.00    +0.000 A 
ATOM      3  N   UNL     1       4.048   4.648  18.620  0.00  0.00    +0.000 N 
ATOM      4  C   UNL     1       3.489   5.940  18.464  0.00  0.00    +0.000 A 
ATOM      5  C   UNL     1       2.466   6.489  19.289  0.00  0.00    +0.000 A 
ATOM      6  C   UNL     1       2.088   7.876  19.229  0.00  0.00    +0.000 A 
ATOM      7  C   UNL     1       2.671   8.623  18.179  0.00  0.00    +0.000 A 
ATOM      8  F   UNL     1       2.426   9.935  18.039  0.00  0.00    +0.000 F 
ATOM      9  C   UNL     1       3.546   8.072  17.258  0.00  0.00    +0.000 A 
ATOM     10  C   UNL     1       3.964   6.755  17.414  0.00  0.00    +0.000 A 
ATOM     11  C   UNL     1       4.932   6.221  16.428  0.00  0.00    +0.000 A 
ATOM     12  O   UNL     1       5.302   6.882  15.459  0.00  0.00    +0.000 OA
ATOM     13  S   UNL     1       1.463   5.310  20.236  0.00  0.00    +0.000 S 
ATOM     14  C   UNL     1       2.821   4.313  20.853  0.00  0.00    +0.000 C 
ATOM     15  C   UNL     1       3.671   3.746  19.732  0.00  0.00    +0.000 C 
ENDROOT
BRANCH   6  16
ATOM     16  N   UNL     1       1.216   8.481  20.139  0.00  0.00    +0.000 N 
ATOM     17  C   UNL     1       1.216   8.100  21.566  0.00  0.00    +0.000 C 
ATOM     18  C   UNL     1       1.462   9.312  22.503  0.00  0.00    +0.000 C 
ATOM     19  N   UNL     1       0.668  10.529  22.222  0.00  0.00    +0.000 NA
ATOM     20  C   UNL     1       0.834  10.855  20.784  0.00  0.00    +0.000 C 
ATOM     21  C   UNL     1       0.457   9.704  19.823  0.00  0.00    +0.000 C 
BRANCH  19  22
ATOM     22  C   UNL     1      -0.756  10.346  22.619  0.00  0.00    +0.000 C 
BRANCH  22  23
ATOM     23  C   UNL     1      -1.664  11.589  22.787  0.00  0.00    +0.000 C 
ATOM     24  F   UNL     1      -2.229  12.002  21.633  0.00  0.00    +0.000 F 
ATOM     25  F   UNL     1      -2.669  11.322  23.656  0.00  0.00    +0.000 F 
ATOM     26  F   UNL     1      -0.963  12.632  23.290  0.00  0.00    +0.000 F 
ENDBRANCH  22  23
ENDBRANCH  19  22
ENDBRANCH   6  16
BRANCH   1  28
ATOM     27  O   UNL     1       6.125   3.588  14.733  0.00  0.00    +0.000 OA
ATOM     28  C   UNL     1       6.434   4.209  15.738  0.00  0.00    +0.000 C 
BRANCH  28  29
ATOM     29  O   UNL     1       7.722   4.347  16.131  0.00  0.00    +0.000 OA
ATOM     30  H   UNL     1       7.874   4.154  17.088  0.00  0.00    +0.000 HD
ENDBRANCH  28  29
ENDBRANCH   1  28
TORSDOF 5
ENDMDL
MODEL 2
REMARK VINA RESULT:      -7.9      4.823      8.931
REMARK  Name = 
REMARK  5 active torsions:
REMARK  status: ('A' for Active; 'I' for Inactive)
REMARK    1  A    between atoms: C_2  and  O_3
REMARK    2  A    between atoms: C_2  and  C_4
REMARK    3  A    between atoms: C_9  and  N_10
REMARK    4  A    between atoms: N_13  and  C_14
REMARK    5  A    between atoms: C_14  and  C_15
REMARK                            x       y       z     vdW  Elec       q    Type
REMARK                         _______ _______ _______ _____ _____    ______ ____
ROOT
ATOM      1  C   UNL     1      -0.414  11.092  22.064  0.00  0.00    +0.000 A 
ATOM      2  C   UNL     1       0.130  11.591  20.945  0.00  0.00    +0.000 A 
ATOM      3  N   UNL     1       0.852  10.893  19.982  0.00  0.00    +0.000 N 
ATOM      4  C   UNL     1       1.056   9.501  20.141  0.00  0.00    +0.000 A 
ATOM      5  C   UNL     1       1.701   8.659  19.191  0.00  0.00    +0.000 A 
ATOM      6  C   UNL     1       2.077   7.303  19.492  0.00  0.00    +0.000 A 
ATOM      7  C   UNL     1       1.610   6.800  20.728  0.00  0.00    +0.000 A 
ATOM      8  F   UNL     1       1.926   5.562  21.139  0.00  0.00    +0.000 F 
ATOM      9  C   UNL     1       0.838   7.547  21.602  0.00  0.00    +0.000 A 
ATOM     10  C   UNL     1       0.585   8.884  21.320  0.00  0.00    +0.000 A 
ATOM     11  C   UNL     1      -0.212   9.654  22.303  0.00  0.00    +0.000 A 
ATOM     12  O   UNL     1      -0.701   9.122  23.298  0.00  0.00    +0.000 OA
ATOM     13  S   UNL     1       1.792   9.275  17.486  0.00  0.00    +0.000 S 
ATOM     14  C   UNL     1       2.333  10.938  17.882  0.00  0.00    +0.000 C 
ATOM     15  C   UNL     1       1.372  11.647  18.817  0.00  0.00    +0.000 C 
ENDROOT
BRANCH   6  16
ATOM     16  N   UNL     1       2.863   6.513  18.647  0.00  0.00    +0.000 N 
ATOM     17  C   UNL     1       4.320   6.726  18.536  0.00  0.00    +0.000 C 
ATOM     18  C   UNL     1       5.133   5.446  18.866  0.00  0.00    +0.000 C 
ATOM     19  N   UNL     1       4.673   4.195  18.224  0.00  0.00    +0.000 NA
ATOM     20  C   UNL     1       3.221   4.054  18.494  0.00  0.00    +0.000 C 
ATOM     21  C   UNL     1       2.370   5.262  18.042  0.00  0.00    +0.000 C 
BRANCH  19  22
ATOM     22  C   UNL     1       5.000   4.184  16.770  0.00  0.00    +0.000 C 
BRANCH  22  23
ATOM     23  C   UNL     1       6.453   4.466  16.316  0.00  0.00    +0.000 C 
ATOM     24  F   UNL     1       7.382   4.090  17.219  0.00  0.00    +0.000 F 
ATOM     25  F   UNL     1       6.721   3.806  15.162  0.00  0.00    +0.000 F 
ATOM     26  F   UNL     1       6.634   5.786  16.075  0.00  0.00    +0.000 F 
ENDBRANCH  22  23
ENDBRANCH  19  22
ENDBRANCH   6  16
BRANCH   1  28
ATOM     27  O   UNL     1      -0.779  13.088  23.309  0.00  0.00    +0.000 OA
ATOM     28  C   UNL     1      -1.169  11.982  22.969  0.00  0.00    +0.000 C 
BRANCH  28  29
ATOM     29  O   UNL     1      -2.342  11.467  23.407  0.00  0.00    +0.000 OA
ATOM     30  H   UNL     1      -2.309  11.119  24.331  0.00  0.00    +0.000 HD
ENDBRANCH  28  29
ENDBRANCH   1  28
TORSDOF 5
ENDMDL
MODEL 3
REMARK VINA RESULT:      -7.7      0.830      1.181
REMARK  Name = 
REMARK  5 active torsions:
REMARK  status: ('A' for Active; 'I' for Inactive)
REMARK    1  A    between atoms: C_2  and  O_3
REMARK    2  A    between atoms: C_2  and  C_4
REMARK    3  A    between atoms: C_9  and  N_10
REMARK    4  A    between atoms: N_13  and  C_14
REMARK    5  A    between atoms: C_14  and  C_15
REMARK                            x       y       z     vdW  Elec       q    Type
REMARK                         _______ _______ _______ _____ _____    ______ ____
ROOT
ATOM      1  C   UNL     1       5.504   4.913  17.057  0.00  0.00    +0.000 A 
ATOM      2  C   UNL     1       4.931   4.381  18.145  0.00  0.00    +0.000 A 
ATOM      3  N   UNL     1       3.909   4.936  18.910  0.00  0.00    +0.000 N 
ATOM      4  C   UNL     1       3.369   6.191  18.539  0.00  0.00    +0.000 A 
ATOM      5  C   UNL     1       2.270   6.827  19.184  0.00  0.00    +0.000 A 
ATOM      6  C   UNL     1       1.901   8.191  18.914  0.00  0.00    +0.000 A 
ATOM      7  C   UNL     1       2.585   8.808  17.841  0.00  0.00    +0.000 A 
ATOM      8  F   UNL     1       2.357  10.089  17.514  0.00  0.00    +0.000 F 
ATOM      9  C   UNL     1       3.547   8.156  17.087  0.00  0.00    +0.000 A 
ATOM     10  C   UNL     1       3.947   6.874  17.447  0.00  0.00    +0.000 A 
ATOM     11  C   UNL     1       5.007   6.233  16.636  0.00  0.00    +0.000 A 
ATOM     12  O   UNL     1       5.471   6.772  15.633  0.00  0.00    +0.000 OA
ATOM     13  S   UNL     1       1.178   5.763  20.169  0.00  0.00    +0.000 S 
ATOM     14  C   UNL     1       2.467   4.867  21.035  0.00  0.00    +0.000 C 
ATOM     15  C   UNL     1       3.423   4.175  20.084  0.00  0.00    +0.000 C 
ENDROOT
BRANCH   6  16
ATOM     16  N   UNL     1       0.943   8.894  19.651  0.00  0.00    +0.000 N 
ATOM     17  C   UNL     1       1.171   9.237  21.070  0.00  0.00    +0.000 C 
ATOM     18  C   UNL     1       1.063  10.762  21.336  0.00  0.00    +0.000 C 
ATOM     19  N   UNL     1      -0.109  11.448  20.748  0.00  0.00    +0.000 NA
ATOM     20  C   UNL     1      -0.163  11.098  19.308  0.00  0.00    +0.000 C 
ATOM     21  C   UNL     1      -0.201   9.579  19.023  0.00  0.00    +0.000 C 
BRANCH  19  22
ATOM     22  C   UNL     1      -1.359  11.100  21.481  0.00  0.00    +0.000 C 
BRANCH  22  23
ATOM     23  C   UNL     1      -1.465  11.412  22.994  0.00  0.00    +0.000 C 
ATOM     24  F   UNL     1      -0.825  12.544  23.356  0.00  0.00    +0.000 F 
ATOM     25  F   UNL     1      -2.764  11.548  23.355  0.00  0.00    +0.000 F 
ATOM     26  F   UNL     1      -0.947  10.401  23.730  0.00  0.00    +0.000 F 
ENDBRANCH  22  23
ENDBRANCH  19  22
ENDBRANCH   6  16
BRANCH   1  28
ATOM     27  O   UNL     1       7.759   4.393  16.500  0.00  0.00    +0.000 OA
ATOM     28  C   UNL     1       6.568   4.168  16.354  0.00  0.00    +0.000 C 
BRANCH  28  29
ATOM     29  O   UNL     1       6.115   3.208  15.514  0.00  0.00    +0.000 OA
ATOM     30  H   UNL     1       5.321   2.723  15.847  0.00  0.00    +0.000 HD
ENDBRANCH  28  29
ENDBRANCH   1  28
TORSDOF 5
ENDMDL
MODEL 4
REMARK VINA RESULT:      -7.3      8.312     11.066
REMARK  Name = 
REMARK  5 active torsions:
REMARK  status: ('A' for Active; 'I' for Inactive)
REMARK    1  A    between atoms: C_2  and  O_3
REMARK    2  A    between atoms: C_2  and  C_4
REMARK    3  A    between atoms: C_9  and  N_10
REMARK    4  A    between atoms: N_13  and  C_14
REMARK    5  A    between atoms: C_14  and  C_15
REMARK                            x       y       z     vdW  Elec       q    Type
REMARK                         _______ _______ _______ _____ _____    ______ ____
ROOT
ATOM      1  C   UNL     1      -5.903  12.866  23.308  0.00  0.00    +0.000 A 
ATOM      2  C   UNL     1      -4.944  13.497  23.999  0.00  0.00    +0.000 A 
ATOM      3  N   UNL     1      -3.674  13.844  23.545  0.00  0.00    +0.000 N 
ATOM      4  C   UNL     1      -3.305  13.533  22.214  0.00  0.00    +0.000 A 
ATOM      5  C   UNL     1      -2.075  13.905  21.602  0.00  0.00    +0.000 A 
ATOM      6  C   UNL     1      -1.656  13.380  20.329  0.00  0.00    +0.000 A 
ATOM      7  C   UNL     1      -2.619  12.609  19.640  0.00  0.00    +0.000 A 
ATOM      8  F   UNL     1      -2.337  12.034  18.461  0.00  0.00    +0.000 F 
ATOM      9  C   UNL     1      -3.889  12.367  20.140  0.00  0.00    +0.000 A 
ATOM     10  C   UNL     1      -4.216  12.805  21.418  0.00  0.00    +0.000 A 
ATOM     11  C   UNL     1      -5.571  12.488  21.926  0.00  0.00    +0.000 A 
ATOM     12  O   UNL     1      -6.410  11.925  21.225  0.00  0.00    +0.000 OA
ATOM     13  S   UNL     1      -1.170  15.281  22.365  0.00  0.00    +0.000 S 
ATOM     14  C   UNL     1      -1.317  14.726  24.064  0.00  0.00    +0.000 C 
ATOM     15  C   UNL     1      -2.763  14.539  24.483  0.00  0.00    +0.000 C 
ENDROOT
BRANCH   6  16
ATOM     16  N   UNL     1      -0.384  13.590  19.787  0.00  0.00    +0.000 N 
ATOM     17  C   UNL     1      -0.128  14.697  18.844  0.00  0.00    +0.000 C 
ATOM     18  C   UNL     1       1.003  15.641  19.331  0.00  0.00    +0.000 C 
ATOM     19  N   UNL     1       2.238  14.987  19.817  0.00  0.00    +0.000 NA
ATOM     20  C   UNL     1       1.847  13.971  20.824  0.00  0.00    +0.000 C 
ATOM     21  C   UNL     1       0.825  12.930  20.314  0.00  0.00    +0.000 C 
BRANCH  19  22
ATOM     22  C   UNL     1       3.025  14.417  18.687  0.00  0.00    +0.000 C 
BRANCH  22  23
ATOM     23  C   UNL     1       3.923  15.350  17.839  0.00  0.00    +0.000 C 
ATOM     24  F   UNL     1       3.335  15.774  16.700  0.00  0.00    +0.000 F 
ATOM     25  F   UNL     1       4.262  16.452  18.553  0.00  0.00    +0.000 F 
ATOM     26  F   UNL     1       5.074  14.726  17.493  0.00  0.00    +0.000 F 
ENDBRANCH  22  23
ENDBRANCH  19  22
ENDBRANCH   6  16
BRANCH   1  28
ATOM     27  O   UNL     1      -7.844  13.437  24.562  0.00  0.00    +0.000 OA
ATOM     28  C   UNL     1      -7.206  12.596  23.949  0.00  0.00    +0.000 C 
BRANCH  28  29
ATOM     29  O   UNL     1      -7.641  11.321  23.812  0.00  0.00    +0.000 OA
ATOM     30  H   UNL     1      -7.147  10.665  24.362  0.00  0.00    +0.000 HD
ENDBRANCH  28  29
ENDBRANCH   1  28
TORSDOF 5
ENDMDL
MODEL 5
REMARK VINA RESULT:      -6.9      8.952     10.360
REMARK  Name = 
REMARK  5 active torsions:
REMARK  status: ('A' for Active; 'I' for Inactive)
REMARK    1  A    between atoms: C_2  and  O_3
REMARK    2  A    between atoms: C_2  and  C_4
REMARK    3  A    between atoms: C_9  and  N_10
REMARK    4  A    between atoms: N_13  and  C_14
REMARK    5  A    between atoms: C_14  and  C_15
REMARK                            x       y       z     vdW  Elec       q    Type
REMARK                         _______ _______ _______ _____ _____    ______ ____
ROOT
ATOM      1  C   UNL     1      10.278  15.937  18.252  0.00  0.00    +0.000 A 
ATOM      2  C   UNL     1       9.535  16.661  19.100  0.00  0.00    +0.000 A 
ATOM      3  N   UNL     1       8.909  16.211  20.259  0.00  0.00    +0.000 N 
ATOM      4  C   UNL     1       9.048  14.854  20.640  0.00  0.00    +0.000 A 
ATOM      5  C   UNL     1       8.531  14.288  21.840  0.00  0.00    +0.000 A 
ATOM      6  C   UNL     1       8.507  12.869  22.076  0.00  0.00    +0.000 A 
ATOM      7  C   UNL     1       9.188  12.080  21.121  0.00  0.00    +0.000 A 
ATOM      8  F   UNL     1       9.205  10.741  21.211  0.00  0.00    +0.000 F 
ATOM      9  C   UNL     1       9.843  12.619  20.027  0.00  0.00    +0.000 A 
ATOM     10  C   UNL     1       9.754  13.984  19.780  0.00  0.00    +0.000 A 
ATOM     11  C   UNL     1      10.437  14.511  18.576  0.00  0.00    +0.000 A 
ATOM     12  O   UNL     1      11.124  13.790  17.855  0.00  0.00    +0.000 OA
ATOM     13  S   UNL     1       8.146  15.445  23.185  0.00  0.00    +0.000 S 
ATOM     14  C   UNL     1       7.273  16.656  22.190  0.00  0.00    +0.000 C 
ATOM     15  C   UNL     1       8.126  17.185  21.053  0.00  0.00    +0.000 C 
ENDROOT
BRANCH   6  16
ATOM     16  N   UNL     1       7.852  12.277  23.161  0.00  0.00    +0.000 N 
ATOM     17  C   UNL     1       8.582  11.925  24.395  0.00  0.00    +0.000 C 
ATOM     18  C   UNL     1       7.971  12.592  25.656  0.00  0.00    +0.000 C 
ATOM     19  N   UNL     1       6.501  12.500  25.798  0.00  0.00    +0.000 NA
ATOM     20  C   UNL     1       5.893  12.973  24.530  0.00  0.00    +0.000 C 
ATOM     21  C   UNL     1       6.383  12.223  23.271  0.00  0.00    +0.000 C 
BRANCH  19  22
ATOM     22  C   UNL     1       6.082  11.119  26.167  0.00  0.00    +0.000 C 
BRANCH  22  23
ATOM     23  C   UNL     1       5.914  10.750  27.662  0.00  0.00    +0.000 C 
ATOM     24  F   UNL     1       5.231   9.603  27.859  0.00  0.00    +0.000 F 
ATOM     25  F   UNL     1       7.129  10.602  28.247  0.00  0.00    +0.000 F 
ATOM     26  F   UNL     1       5.263  11.730  28.330  0.00  0.00    +0.000 F 
ENDBRANCH  22  23
ENDBRANCH  19  22
ENDBRANCH   6  16
BRANCH   1  28
ATOM     27  O   UNL     1      11.442  17.677  17.118  0.00  0.00    +0.000 OA
ATOM     28  C   UNL     1      10.887  16.590  17.075  0.00  0.00    +0.000 C 
BRANCH  28  29
ATOM     29  O   UNL     1      10.771  15.886  15.925  0.00  0.00    +0.000 OA
ATOM     30  H   UNL     1      10.870  14.909  16.039  0.00  0.00    +0.000 HD
ENDBRANCH  28  29
ENDBRANCH   1  28
TORSDOF 5
ENDMDL
MODEL 6
REMARK VINA RESULT:      -6.9      4.766      8.494
REMARK  Name = 
REMARK  5 active torsions:
REMARK  status: ('A' for Active; 'I' for Inactive)
REMARK    1  A    between atoms: C_2  and  O_3
REMARK    2  A    between atoms: C_2  and  C_4
REMARK    3  A    between atoms: C_9  and  N_10
REMARK    4  A    between atoms: N_13  and  C_14
REMARK    5  A    between atoms: C_14  and  C_15
REMARK                            x       y       z     vdW  Elec       q    Type
REMARK                         _______ _______ _______ _____ _____    ______ ____
ROOT
ATOM      1  C   UNL     1      -1.583  12.750  20.265  0.00  0.00    +0.000 A 
ATOM      2  C   UNL     1      -1.413  12.142  21.447  0.00  0.00    +0.000 A 
ATOM      3  N   UNL     1      -0.659  11.000  21.701  0.00  0.00    +0.000 N 
ATOM      4  C   UNL     1       0.036  10.377  20.636  0.00  0.00    +0.000 A 
ATOM      5  C   UNL     1       0.905   9.257  20.775  0.00  0.00    +0.000 A 
ATOM      6  C   UNL     1       1.411   8.528  19.643  0.00  0.00    +0.000 A 
ATOM      7  C   UNL     1       1.136   9.096  18.378  0.00  0.00    +0.000 A 
ATOM      8  F   UNL     1       1.523   8.491  17.244  0.00  0.00    +0.000 F 
ATOM      9  C   UNL     1       0.430  10.277  18.220  0.00  0.00    +0.000 A 
ATOM     10  C   UNL     1      -0.130  10.894  19.333  0.00  0.00    +0.000 A 
ATOM     11  C   UNL     1      -0.910  12.134  19.111  0.00  0.00    +0.000 A 
ATOM     12  O   UNL     1      -1.003  12.649  17.998  0.00  0.00    +0.000 OA
ATOM     13  S   UNL     1       1.572   8.946  22.435  0.00  0.00    +0.000 S 
ATOM     14  C   UNL     1       0.029   9.135  23.330  0.00  0.00    +0.000 C 
ATOM     15  C   UNL     1      -0.611  10.489  23.090  0.00  0.00    +0.000 C 
ENDROOT
BRANCH   6  16
ATOM     16  N   UNL     1       2.121   7.328  19.751  0.00  0.00    +0.000 N 
ATOM     17  C   UNL     1       1.557   6.168  20.470  0.00  0.00    +0.000 C 
ATOM     18  C   UNL     1       1.479   4.899  19.580  0.00  0.00    +0.000 C 
ATOM     19  N   UNL     1       2.693   4.572  18.799  0.00  0.00    +0.000 NA
ATOM     20  C   UNL     1       3.095   5.789  18.053  0.00  0.00    +0.000 C 
ATOM     21  C   UNL     1       3.317   7.035  18.940  0.00  0.00    +0.000 C 
BRANCH  19  22
ATOM     22  C   UNL     1       3.773   4.045  19.681  0.00  0.00    +0.000 C 
BRANCH  22  23
ATOM     23  C   UNL     1       3.662   2.605  20.241  0.00  0.00    +0.000 C 
ATOM     24  F   UNL     1       2.891   1.793  19.489  0.00  0.00    +0.000 F 
ATOM     25  F   UNL     1       4.891   2.037  20.321  0.00  0.00    +0.000 F 
ATOM     26  F   UNL     1       3.142   2.615  21.491  0.00  0.00    +0.000 F 
ENDBRANCH  22  23
ENDBRANCH  19  22
ENDBRANCH   6  16
BRANCH   1  28
ATOM     27  O   UNL     1      -3.577  14.022  20.529  0.00  0.00    +0.000 OA
ATOM     28  C   UNL     1      -2.407  13.973  20.185  0.00  0.00    +0.000 C 
BRANCH  28  29
ATOM     29  O   UNL     1      -1.758  15.050  19.684  0.00  0.00    +0.000 OA
ATOM     30  H   UNL     1      -0.874  14.843  19.295  0.00  0.00    +0.000 HD
ENDBRANCH  28  29
ENDBRANCH   1  28
TORSDOF 5
ENDMDL
MODEL 7
REMARK VINA RESULT:      -6.8      6.369      8.390
REMARK  Name = 
REMARK  5 active torsions:
REMARK  status: ('A' for Active; 'I' for Inactive)
REMARK    1  A    between atoms: C_2  and  O_3
REMARK    2  A    between atoms: C_2  and  C_4
REMARK    3  A    between atoms: C_9  and  N_10
REMARK    4  A    between atoms: N_13  and  C_14
REMARK    5  A    between atoms: C_14  and  C_15
REMARK                            x       y       z     vdW  Elec       q    Type
REMARK                         _______ _______ _______ _____ _____    ______ ____
ROOT
ATOM      1  C   UNL     1      -3.040  10.664  16.339  0.00  0.00    +0.000 A 
ATOM      2  C   UNL     1      -1.817  10.539  16.870  0.00  0.00    +0.000 A 
ATOM      3  N   UNL     1      -1.406  10.955  18.134  0.00  0.00    +0.000 N 
ATOM      4  C   UNL     1      -2.342  11.572  18.999  0.00  0.00    +0.000 A 
ATOM      5  C   UNL     1      -2.074  11.965  20.341  0.00  0.00    +0.000 A 
ATOM      6  C   UNL     1      -2.983  12.781  21.102  0.00  0.00    +0.000 A 
ATOM      7  C   UNL     1      -4.238  13.022  20.499  0.00  0.00    +0.000 A 
ATOM      8  F   UNL     1      -5.158  13.799  21.092  0.00  0.00    +0.000 F 
ATOM      9  C   UNL     1      -4.590  12.512  19.260  0.00  0.00    +0.000 A 
ATOM     10  C   UNL     1      -3.645  11.816  18.513  0.00  0.00    +0.000 A 
ATOM     11  C   UNL     1      -4.053  11.324  17.177  0.00  0.00    +0.000 A 
ATOM     12  O   UNL     1      -5.204  11.453  16.763  0.00  0.00    +0.000 OA
ATOM     13  S   UNL     1      -0.658  11.173  21.154  0.00  0.00    +0.000 S 
ATOM     14  C   UNL     1       0.505  11.361  19.802  0.00  0.00    +0.000 C 
ATOM     15  C   UNL     1       0.004  10.722  18.521  0.00  0.00    +0.000 C 
ENDROOT
BRANCH   6  16
ATOM     16  N   UNL     1      -2.672  13.326  22.352  0.00  0.00    +0.000 N 
ATOM     17  C   UNL     1      -2.022  14.647  22.470  0.00  0.00    +0.000 C 
ATOM     18  C   UNL     1      -2.843  15.635  23.341  0.00  0.00    +0.000 C 
ATOM     19  N   UNL     1      -3.343  15.111  24.631  0.00  0.00    +0.000 NA
ATOM     20  C   UNL     1      -4.055  13.839  24.357  0.00  0.00    +0.000 C 
ATOM     21  C   UNL     1      -3.207  12.782  23.613  0.00  0.00    +0.000 C 
BRANCH  19  22
ATOM     22  C   UNL     1      -2.236  14.959  25.616  0.00  0.00    +0.000 C 
BRANCH  22  23
ATOM     23  C   UNL     1      -1.352  16.184  25.960  0.00  0.00    +0.000 C 
ATOM     24  F   UNL     1      -2.046  17.337  26.059  0.00  0.00    +0.000 F 
ATOM     25  F   UNL     1      -0.721  15.989  27.144  0.00  0.00    +0.000 F 
ATOM     26  F   UNL     1      -0.395  16.365  25.020  0.00  0.00    +0.000 F 
ENDBRANCH  22  23
ENDBRANCH  19  22
ENDBRANCH   6  16
BRANCH   1  28
ATOM     27  O   UNL     1      -2.431   9.971  14.144  0.00  0.00    +0.000 OA
ATOM     28  C   UNL     1      -3.303  10.142  14.981  0.00  0.00    +0.000 C 
BRANCH  28  29
ATOM     29  O   UNL     1      -4.605   9.874  14.730  0.00  0.00    +0.000 OA
ATOM     30  H   UNL     1      -4.781   8.938  14.464  0.00  0.00    +0.000 HD
ENDBRANCH  28  29
ENDBRANCH   1  28
TORSDOF 5
ENDMDL
MODEL 8
REMARK VINA RESULT:      -6.8      4.537      8.303
REMARK  Name = 
REMARK  5 active torsions:
REMARK  status: ('A' for Active; 'I' for Inactive)
REMARK    1  A    between atoms: C_2  and  O_3
REMARK    2  A    between atoms: C_2  and  C_4
REMARK    3  A    between atoms: C_9  and  N_10
REMARK    4  A    between atoms: N_13  and  C_14
REMARK    5  A    between atoms: C_14  and  C_15
REMARK                            x       y       z     vdW  Elec       q    Type
REMARK                         _______ _______ _______ _____ _____    ______ ____
ROOT
ATOM      1  C   UNL     1       0.081  12.914  19.738  0.00  0.00    +0.000 A 
ATOM      2  C   UNL     1      -0.331  12.130  20.745  0.00  0.00    +0.000 A 
ATOM      3  N   UNL     1      -0.003  10.794  20.954  0.00  0.00    +0.000 N 
ATOM      4  C   UNL     1       0.866  10.143  20.044  0.00  0.00    +0.000 A 
ATOM      5  C   UNL     1       1.345   8.810  20.189  0.00  0.00    +0.000 A 
ATOM      6  C   UNL     1       2.043   8.123  19.135  0.00  0.00    +0.000 A 
ATOM      7  C   UNL     1       2.380   8.910  18.011  0.00  0.00    +0.000 A 
ATOM      8  F   UNL     1       3.000   8.376  16.947  0.00  0.00    +0.000 F 
ATOM      9  C   UNL     1       2.070  10.257  17.914  0.00  0.00    +0.000 A 
ATOM     10  C   UNL     1       1.305  10.856  18.908  0.00  0.00    +0.000 A 
ATOM     11  C   UNL     1       0.964  12.288  18.742  0.00  0.00    +0.000 A 
ATOM     12  O   UNL     1       1.399  12.953  17.803  0.00  0.00    +0.000 OA
ATOM     13  S   UNL     1       1.278   8.097  21.857  0.00  0.00    +0.000 S 
ATOM     14  C   UNL     1      -0.396   8.609  22.248  0.00  0.00    +0.000 C 
ATOM     15  C   UNL     1      -0.577  10.111  22.135  0.00  0.00    +0.000 C 
ENDROOT
BRANCH   6  16
ATOM     16  N   UNL     1       2.370   6.764  19.182  0.00  0.00    +0.000 N 
ATOM     17  C   UNL     1       1.401   5.729  18.771  0.00  0.00    +0.000 C 
ATOM     18  C   UNL     1       1.952   4.813  17.646  0.00  0.00    +0.000 C 
ATOM     19  N   UNL     1       3.322   4.288  17.841  0.00  0.00    +0.000 NA
ATOM     20  C   UNL     1       4.207   5.437  18.150  0.00  0.00    +0.000 C 
ATOM     21  C   UNL     1       3.753   6.284  19.361  0.00  0.00    +0.000 C 
BRANCH  19  22
ATOM     22  C   UNL     1       3.348   3.232  18.892  0.00  0.00    +0.000 C 
BRANCH  22  23
ATOM     23  C   UNL     1       2.849   1.806  18.549  0.00  0.00    +0.000 C 
ATOM     24  F   UNL     1       3.798   0.857  18.687  0.00  0.00    +0.000 F 
ATOM     25  F   UNL     1       1.814   1.465  19.356  0.00  0.00    +0.000 F 
ATOM     26  F   UNL     1       2.400   1.748  17.273  0.00  0.00    +0.000 F 
ENDBRANCH  22  23
ENDBRANCH  19  22
ENDBRANCH   6  16
BRANCH   1  28
ATOM     27  O   UNL     1      -0.416  15.049  20.668  0.00  0.00    +0.000 OA
ATOM     28  C   UNL     1      -0.355  14.325  19.687  0.00  0.00    +0.000 C 
BRANCH  28  29
ATOM     29  O   UNL     1      -0.696  14.758  18.451  0.00  0.00    +0.000 OA
ATOM     30  H   UNL     1      -0.025  14.558  17.754  0.00  0.00    +0.000 HD
ENDBRANCH  28  29
ENDBRANCH   1  28
TORSDOF 5
ENDMDL
MODEL 9
REMARK VINA RESULT:      -6.8      4.675      8.604
REMARK  Name = 
REMARK  5 active torsions:
REMARK  status: ('A' for Active; 'I' for Inactive)
REMARK    1  A    between atoms: C_2  and  O_3
REMARK    2  A    between atoms: C_2  and  C_4
REMARK    3  A    between atoms: C_9  and  N_10
REMARK    4  A    between atoms: N_13  and  C_14
REMARK    5  A    between atoms: C_14  and  C_15
REMARK                            x       y       z     vdW  Elec       q    Type
REMARK                         _______ _______ _______ _____ _____    ______ ____
ROOT
ATOM      1  C   UNL     1      -1.365  13.069  20.262  0.00  0.00    +0.000 A 
ATOM      2  C   UNL     1      -1.304  12.434  21.441  0.00  0.00    +0.000 A 
ATOM      3  N   UNL     1      -0.637  11.243  21.717  0.00  0.00    +0.000 N 
ATOM      4  C   UNL     1       0.082  10.596  20.683  0.00  0.00    +0.000 A 
ATOM      5  C   UNL     1       0.872   9.423  20.853  0.00  0.00    +0.000 A 
ATOM      6  C   UNL     1       1.402   8.682  19.739  0.00  0.00    +0.000 A 
ATOM      7  C   UNL     1       1.238   9.285  18.471  0.00  0.00    +0.000 A 
ATOM      8  F   UNL     1       1.656   8.676  17.351  0.00  0.00    +0.000 F 
ATOM      9  C   UNL     1       0.616  10.510  18.294  0.00  0.00    +0.000 A 
ATOM     10  C   UNL     1       0.028  11.143  19.383  0.00  0.00    +0.000 A 
ATOM     11  C   UNL     1      -0.662  12.431  19.138  0.00  0.00    +0.000 A 
ATOM     12  O   UNL     1      -0.656  12.969  18.033  0.00  0.00    +0.000 OA
ATOM     13  S   UNL     1       1.417   9.046  22.543  0.00  0.00    +0.000 S 
ATOM     14  C   UNL     1      -0.163   9.315  23.347  0.00  0.00    +0.000 C 
ATOM     15  C   UNL     1      -0.705  10.709  23.096  0.00  0.00    +0.000 C 
ENDROOT
BRANCH   6  16
ATOM     16  N   UNL     1       2.030   7.439  19.865  0.00  0.00    +0.000 N 
ATOM     17  C   UNL     1       1.530   6.422  20.812  0.00  0.00    +0.000 C 
ATOM     18  C   UNL     1       1.193   5.078  20.115  0.00  0.00    +0.000 C 
ATOM     19  N   UNL     1       2.210   4.554  19.176  0.00  0.00    +0.000 NA
ATOM     20  C   UNL     1       2.550   5.640  18.225  0.00  0.00    +0.000 C 
ATOM     21  C   UNL     1       3.027   6.949  18.896  0.00  0.00    +0.000 C 
BRANCH  19  22
ATOM     22  C   UNL     1       3.396   4.027  19.908  0.00  0.00    +0.000 C 
BRANCH  22  23
ATOM     23  C   UNL     1       4.427   3.151  19.153  0.00  0.00    +0.000 C 
ATOM     24  F   UNL     1       3.942   2.607  18.018  0.00  0.00    +0.000 F 
ATOM     25  F   UNL     1       5.513   3.891  18.816  0.00  0.00    +0.000 F 
ATOM     26  F   UNL     1       4.861   2.136  19.937  0.00  0.00    +0.000 F 
ENDBRANCH  22  23
ENDBRANCH  19  22
ENDBRANCH   6  16
BRANCH   1  28
ATOM     27  O   UNL     1      -1.569  15.436  20.104  0.00  0.00    +0.000 OA
ATOM     28  C   UNL     1      -2.108  14.342  20.157  0.00  0.00    +0.000 C 
BRANCH  28  29
ATOM     29  O   UNL     1      -3.454  14.201  20.134  0.00  0.00    +0.000 OA
ATOM     30  H   UNL     1      -3.780  13.545  19.471  0.00  0.00    +0.000 HD
ENDBRANCH  28  29
ENDBRANCH   1  28
TORSDOF 5
ENDMDL
