MODEL 1
REMARK VINA RESULT:      -8.7      0.000      0.000
REMARK  Name = 
REMARK  8 active torsions:
REMARK  status: ('A' for Active; 'I' for Inactive)
REMARK    1  A    between atoms: C_1  and  C_2
REMARK    2  A    between atoms: C_2  and  O_3
REMARK    3  A    between atoms: O_3  and  C_4
REMARK    4  A    between atoms: C_9  and  N_10
REMARK    5  A    between atoms: C_11  and  S_12
REMARK    6  A    between atoms: S_12  and  C_13
REMARK    7  A    between atoms: C_13  and  C_14
REMARK    8  A    between atoms: C_14  and  C_16
REMARK                            x       y       z     vdW  Elec       q    Type
REMARK                         _______ _______ _______ _____ _____    ______ ____
ROOT
ATOM      1  N   UNL     1       4.223   4.324  18.311  0.00  0.00    +0.000 N 
ATOM      2  C   UNL     1       3.680   5.545  18.820  0.00  0.00    +0.000 A 
ATOM      3  N   UNL     1       2.952   5.648  19.897  0.00  0.00    +0.000 NA
ATOM      4  C   UNL     1       2.770   4.470  20.532  0.00  0.00    +0.000 A 
ATOM      5  N   UNL     1       2.058   4.265  21.679  0.00  0.00    +0.000 N 
ATOM      6  N   UNL     1       2.037   2.969  22.067  0.00  0.00    +0.000 NA
ATOM      7  C   UNL     1       2.782   2.349  21.146  0.00  0.00    +0.000 A 
ATOM      8  C   UNL     1       3.251   3.244  20.178  0.00  0.00    +0.000 A 
ATOM      9  C   UNL     1       4.076   3.109  19.021  0.00  0.00    +0.000 A 
ATOM     10  O   UNL     1       4.605   2.034  18.761  0.00  0.00    +0.000 OA
ATOM     11  H   UNL     1       1.566   4.951  22.239  0.00  0.00    +0.000 HD
ENDROOT
BRANCH   1  17
ATOM     12  C   UNL     1       6.549   4.434  17.370  0.00  0.00    +0.000 A 
ATOM     13  C   UNL     1       7.346   4.617  16.228  0.00  0.00    +0.000 A 
ATOM     14  C   UNL     1       6.793   4.628  14.949  0.00  0.00    +0.000 A 
ATOM     15  C   UNL     1       5.424   4.457  14.791  0.00  0.00    +0.000 A 
ATOM     16  C   UNL     1       4.615   4.290  15.914  0.00  0.00    +0.000 A 
ATOM     17  C   UNL     1       5.154   4.275  17.219  0.00  0.00    +0.000 A 
BRANCH  12  18
ATOM     18  O   UNL     1       7.282   4.521  18.524  0.00  0.00    +0.000 OA
BRANCH  18  20
ATOM     19  C   UNL     1       7.835   6.826  18.391  0.00  0.00    +0.000 C 
ATOM     20  C   UNL     1       7.259   5.728  19.276  0.00  0.00    +0.000 C 
ENDBRANCH  18  20
ENDBRANCH  12  18
ENDBRANCH   1  17
BRANCH   2  21
ATOM     21  S   UNL     1       3.859   7.005  17.837  0.00  0.00    +0.000 S 
BRANCH  21  22
ATOM     22  C   UNL     1       2.172   7.649  17.695  0.00  0.00    +0.000 C 
BRANCH  22  23
ATOM     23  C   UNL     1       1.997   9.109  18.089  0.00  0.00    +0.000 C 
ATOM     24  O   UNL     1       2.460  10.048  17.444  0.00  0.00    +0.000 OA
BRANCH  23  25
ATOM     25  C   UNL     1       1.203   9.404  19.342  0.00  0.00    +0.000 A 
ATOM     26  C   UNL     1       0.368  10.527  19.455  0.00  0.00    +0.000 A 
ATOM     27  C   UNL     1      -0.307  10.803  20.651  0.00  0.00    +0.000 A 
ATOM     28  C   UNL     1      -0.163   9.954  21.744  0.00  0.00    +0.000 A 
ATOM     29 CL   UNL     1      -0.970  10.314  23.221  0.00  0.00    +0.000 Cl
ATOM     30  C   UNL     1       0.639   8.819  21.644  0.00  0.00    +0.000 A 
ATOM     31  C   UNL     1       1.320   8.545  20.448  0.00  0.00    +0.000 A 
ENDBRANCH  23  25
ENDBRANCH  22  23
ENDBRANCH  21  22
ENDBRANCH   2  21
TORSDOF 7
ENDMDL
MODEL 2
REMARK VINA RESULT:      -8.3      1.035      2.321
REMARK  Name = 
REMARK  8 active torsions:
REMARK  status: ('A' for Active; 'I' for Inactive)
REMARK    1  A    between atoms: C_1  and  C_2
REMARK    2  A    between atoms: C_2  and  O_3
REMARK    3  A    between atoms: O_3  and  C_4
REMARK    4  A    between atoms: C_9  and  N_10
REMARK    5  A    between atoms: C_11  and  S_12
REMARK    6  A    between atoms: S_12  and  C_13
REMARK    7  A    between atoms: C_13  and  C_14
REMARK    8  A    between atoms: C_14  and  C_16
REMARK                            x       y       z     vdW  Elec       q    Type
REMARK                         _______ _______ _______ _____ _____    ______ ____
ROOT
ATOM      1  N   UNL     1       4.207   4.701  18.902  0.00  0.00    +0.000 N 
ATOM      2  C   UNL     1       3.171   5.682  18.803  0.00  0.00    +0.000 A 
ATOM      3  N   UNL     1       1.969   5.552  19.290  0.00  0.00    +0.000 NA
ATOM      4  C   UNL     1       1.782   4.386  19.945  0.00  0.00    +0.000 A 
ATOM      5  N   UNL     1       0.635   3.971  20.557  0.00  0.00    +0.000 N 
ATOM      6  N   UNL     1       0.745   2.743  21.116  0.00  0.00    +0.000 NA
ATOM      7  C   UNL     1       2.011   2.392  20.866  0.00  0.00    +0.000 A 
ATOM      8  C   UNL     1       2.684   3.381  20.141  0.00  0.00    +0.000 A 
ATOM      9  C   UNL     1       4.016   3.512  19.645  0.00  0.00    +0.000 A 
ATOM     10  O   UNL     1       4.862   2.667  19.915  0.00  0.00    +0.000 OA
ATOM     11  H   UNL     1      -0.247   4.463  20.630  0.00  0.00    +0.000 HD
ENDROOT
BRANCH   1  17
ATOM     12  C   UNL     1       6.102   4.532  17.264  0.00  0.00    +0.000 A 
ATOM     13  C   UNL     1       7.491   4.601  17.064  0.00  0.00    +0.000 A 
ATOM     14  C   UNL     1       8.346   5.089  18.051  0.00  0.00    +0.000 A 
ATOM     15  C   UNL     1       7.820   5.516  19.263  0.00  0.00    +0.000 A 
ATOM     16  C   UNL     1       6.446   5.440  19.486  0.00  0.00    +0.000 A 
ATOM     17  C   UNL     1       5.563   4.949  18.500  0.00  0.00    +0.000 A 
BRANCH  12  18
ATOM     18  O   UNL     1       5.460   3.964  16.196  0.00  0.00    +0.000 OA
BRANCH  18  20
ATOM     19  C   UNL     1       6.075   3.782  13.909  0.00  0.00    +0.000 C 
ATOM     20  C   UNL     1       5.410   4.665  14.958  0.00  0.00    +0.000 C 
ENDBRANCH  18  20
ENDBRANCH  12  18
ENDBRANCH   1  17
BRANCH   2  21
ATOM     21  S   UNL     1       3.476   7.110  17.804  0.00  0.00    +0.000 S 
BRANCH  21  22
ATOM     22  C   UNL     1       1.859   7.918  17.688  0.00  0.00    +0.000 C 
BRANCH  22  23
ATOM     23  C   UNL     1       1.815   9.361  18.173  0.00  0.00    +0.000 C 
ATOM     24  O   UNL     1       2.307  10.302  17.553  0.00  0.00    +0.000 OA
BRANCH  23  25
ATOM     25  C   UNL     1       1.120   9.634  19.488  0.00  0.00    +0.000 A 
ATOM     26  C   UNL     1       1.179   8.738  20.568  0.00  0.00    +0.000 A 
ATOM     27  C   UNL     1       0.473   8.994  21.751  0.00  0.00    +0.000 A 
ATOM     28  C   UNL     1      -0.289  10.151  21.872  0.00  0.00    +0.000 A 
ATOM     29 CL   UNL     1      -1.177  10.446  23.316  0.00  0.00    +0.000 Cl
ATOM     30  C   UNL     1      -0.337  11.067  20.823  0.00  0.00    +0.000 A 
ATOM     31  C   UNL     1       0.364  10.809  19.635  0.00  0.00    +0.000 A 
ENDBRANCH  23  25
ENDBRANCH  22  23
ENDBRANCH  21  22
ENDBRANCH   2  21
TORSDOF 7
ENDMDL
MODEL 3
REMARK VINA RESULT:      -8.1      3.949      6.936
REMARK  Name = 
REMARK  8 active torsions:
REMARK  status: ('A' for Active; 'I' for Inactive)
REMARK    1  A    between atoms: C_1  and  C_2
REMARK    2  A    between atoms: C_2  and  O_3
REMARK    3  A    between atoms: O_3  and  C_4
REMARK    4  A    between atoms: C_9  and  N_10
REMARK    5  A    between atoms: C_11  and  S_12
REMARK    6  A    between atoms: S_12  and  C_13
REMARK    7  A    between atoms: C_13  and  C_14
REMARK    8  A    between atoms: C_14  and  C_16
REMARK                            x       y       z     vdW  Elec       q    Type
REMARK                         _______ _______ _______ _____ _____    ______ ____
ROOT
ATOM      1  N   UNL     1       5.366   5.135  17.443  0.00  0.00    +0.000 N 
ATOM      2  C   UNL     1       6.631   5.802  17.427  0.00  0.00    +0.000 A 
ATOM      3  N   UNL     1       7.445   5.838  16.409  0.00  0.00    +0.000 NA
ATOM      4  C   UNL     1       6.966   5.196  15.321  0.00  0.00    +0.000 A 
ATOM      5  N   UNL     1       7.589   5.067  14.113  0.00  0.00    +0.000 N 
ATOM      6  N   UNL     1       6.869   4.350  13.219  0.00  0.00    +0.000 NA
ATOM      7  C   UNL     1       5.750   4.045  13.883  0.00  0.00    +0.000 A 
ATOM      8  C   UNL     1       5.774   4.549  15.188  0.00  0.00    +0.000 A 
ATOM      9  C   UNL     1       4.852   4.521  16.277  0.00  0.00    +0.000 A 
ATOM     10  O   UNL     1       3.733   4.041  16.129  0.00  0.00    +0.000 OA
ATOM     11  H   UNL     1       8.491   5.432  13.834  0.00  0.00    +0.000 HD
ENDROOT
BRANCH   1  17
ATOM     12  C   UNL     1       4.187   4.240  19.471  0.00  0.00    +0.000 A 
ATOM     13  C   UNL     1       3.085   4.356  20.335  0.00  0.00    +0.000 A 
ATOM     14  C   UNL     1       2.236   5.461  20.289  0.00  0.00    +0.000 A 
ATOM     15  C   UNL     1       2.478   6.473  19.371  0.00  0.00    +0.000 A 
ATOM     16  C   UNL     1       3.557   6.369  18.495  0.00  0.00    +0.000 A 
ATOM     17  C   UNL     1       4.429   5.258  18.524  0.00  0.00    +0.000 A 
BRANCH  12  18
ATOM     18  O   UNL     1       4.846   3.052  19.640  0.00  0.00    +0.000 OA
BRANCH  18  20
ATOM     19  C   UNL     1       3.604   1.422  18.440  0.00  0.00    +0.000 C 
ATOM     20  C   UNL     1       4.096   1.856  19.815  0.00  0.00    +0.000 C 
ENDBRANCH  18  20
ENDBRANCH  12  18
ENDBRANCH   1  17
BRANCH   2  21
ATOM     21  S   UNL     1       7.224   6.490  18.946  0.00  0.00    +0.000 S 
BRANCH  21  22
ATOM     22  C   UNL     1       8.533   7.631  18.429  0.00  0.00    +0.000 C 
BRANCH  22  23
ATOM     23  C   UNL     1       8.058   9.008  17.985  0.00  0.00    +0.000 C 
ATOM     24  O   UNL     1       7.110   9.187  17.223  0.00  0.00    +0.000 OA
BRANCH  23  25
ATOM     25  C   UNL     1       8.799  10.210  18.526  0.00  0.00    +0.000 A 
ATOM     26  C   UNL     1       9.457  10.190  19.767  0.00  0.00    +0.000 A 
ATOM     27  C   UNL     1      10.083  11.340  20.265  0.00  0.00    +0.000 A 
ATOM     28  C   UNL     1      10.068  12.519  19.525  0.00  0.00    +0.000 A 
ATOM     29 CL   UNL     1      10.813  13.936  20.156  0.00  0.00    +0.000 Cl
ATOM     30  C   UNL     1       9.446  12.551  18.279  0.00  0.00    +0.000 A 
ATOM     31  C   UNL     1       8.813  11.401  17.782  0.00  0.00    +0.000 A 
ENDBRANCH  23  25
ENDBRANCH  22  23
ENDBRANCH  21  22
ENDBRANCH   2  21
TORSDOF 7
ENDMDL
MODEL 4
REMARK VINA RESULT:      -8.1      2.688      5.004
REMARK  Name = 
REMARK  8 active torsions:
REMARK  status: ('A' for Active; 'I' for Inactive)
REMARK    1  A    between atoms: C_1  and  C_2
REMARK    2  A    between atoms: C_2  and  O_3
REMARK    3  A    between atoms: O_3  and  C_4
REMARK    4  A    between atoms: C_9  and  N_10
REMARK    5  A    between atoms: C_11  and  S_12
REMARK    6  A    between atoms: S_12  and  C_13
REMARK    7  A    between atoms: C_13  and  C_14
REMARK    8  A    between atoms: C_14  and  C_16
REMARK                            x       y       z     vdW  Elec       q    Type
REMARK                         _______ _______ _______ _____ _____    ______ ____
ROOT
ATOM      1  N   UNL     1       3.850   5.375  18.817  0.00  0.00    +0.000 N 
ATOM      2  C   UNL     1       3.417   6.525  18.086  0.00  0.00    +0.000 A 
ATOM      3  N   UNL     1       4.191   7.288  17.365  0.00  0.00    +0.000 NA
ATOM      4  C   UNL     1       5.476   6.874  17.341  0.00  0.00    +0.000 A 
ATOM      5  N   UNL     1       6.510   7.466  16.676  0.00  0.00    +0.000 N 
ATOM      6  N   UNL     1       7.691   6.830  16.856  0.00  0.00    +0.000 NA
ATOM      7  C   UNL     1       7.378   5.793  17.638  0.00  0.00    +0.000 A 
ATOM      8  C   UNL     1       6.017   5.786  17.962  0.00  0.00    +0.000 A 
ATOM      9  C   UNL     1       5.186   4.917  18.731  0.00  0.00    +0.000 A 
ATOM     10  O   UNL     1       5.641   3.879  19.197  0.00  0.00    +0.000 OA
ATOM     11  H   UNL     1       6.484   8.293  16.093  0.00  0.00    +0.000 HD
ENDROOT
BRANCH   1  17
ATOM     12  C   UNL     1       2.065   3.609  18.764  0.00  0.00    +0.000 A 
ATOM     13  C   UNL     1       1.050   2.944  19.471  0.00  0.00    +0.000 A 
ATOM     14  C   UNL     1       0.900   3.100  20.848  0.00  0.00    +0.000 A 
ATOM     15  C   UNL     1       1.769   3.930  21.543  0.00  0.00    +0.000 A 
ATOM     16  C   UNL     1       2.773   4.610  20.855  0.00  0.00    +0.000 A 
ATOM     17  C   UNL     1       2.942   4.468  19.461  0.00  0.00    +0.000 A 
BRANCH  12  18
ATOM     18  O   UNL     1       1.992   3.368  17.417  0.00  0.00    +0.000 OA
BRANCH  18  20
ATOM     19  C   UNL     1       3.539   1.603  17.784  0.00  0.00    +0.000 C 
ATOM     20  C   UNL     1       3.033   2.633  16.782  0.00  0.00    +0.000 C 
ENDBRANCH  18  20
ENDBRANCH  12  18
ENDBRANCH   1  17
BRANCH   2  21
ATOM     21  S   UNL     1       1.744   7.061  18.299  0.00  0.00    +0.000 S 
BRANCH  21  22
ATOM     22  C   UNL     1       1.848   8.868  18.213  0.00  0.00    +0.000 C 
BRANCH  22  23
ATOM     23  C   UNL     1       0.944   9.619  19.181  0.00  0.00    +0.000 C 
ATOM     24  O   UNL     1       1.210   9.786  20.369  0.00  0.00    +0.000 OA
BRANCH  23  25
ATOM     25  C   UNL     1      -0.345  10.189  18.633  0.00  0.00    +0.000 A 
ATOM     26  C   UNL     1      -1.042  11.224  19.278  0.00  0.00    +0.000 A 
ATOM     27  C   UNL     1      -2.264  11.688  18.775  0.00  0.00    +0.000 A 
ATOM     28  C   UNL     1      -2.798  11.131  17.617  0.00  0.00    +0.000 A 
ATOM     29 CL   UNL     1      -4.315  11.684  17.020  0.00  0.00    +0.000 Cl
ATOM     30  C   UNL     1      -2.108  10.123  16.946  0.00  0.00    +0.000 A 
ATOM     31  C   UNL     1      -0.887   9.653  17.452  0.00  0.00    +0.000 A 
ENDBRANCH  23  25
ENDBRANCH  22  23
ENDBRANCH  21  22
ENDBRANCH   2  21
TORSDOF 7
ENDMDL
MODEL 5
REMARK VINA RESULT:      -8.0      2.388      4.842
REMARK  Name = 
REMARK  8 active torsions:
REMARK  status: ('A' for Active; 'I' for Inactive)
REMARK    1  A    between atoms: C_1  and  C_2
REMARK    2  A    between atoms: C_2  and  O_3
REMARK    3  A    between atoms: O_3  and  C_4
REMARK    4  A    between atoms: C_9  and  N_10
REMARK    5  A    between atoms: C_11  and  S_12
REMARK    6  A    between atoms: S_12  and  C_13
REMARK    7  A    between atoms: C_13  and  C_14
REMARK    8  A    between atoms: C_14  and  C_16
REMARK                            x       y       z     vdW  Elec       q    Type
REMARK                         _______ _______ _______ _____ _____    ______ ____
ROOT
ATOM      1  N   UNL     1       3.887   5.250  18.857  0.00  0.00    +0.000 N 
ATOM      2  C   UNL     1       3.433   6.366  18.087  0.00  0.00    +0.000 A 
ATOM      3  N   UNL     1       4.194   7.122  17.346  0.00  0.00    +0.000 NA
ATOM      4  C   UNL     1       5.487   6.735  17.341  0.00  0.00    +0.000 A 
ATOM      5  N   UNL     1       6.512   7.328  16.661  0.00  0.00    +0.000 N 
ATOM      6  N   UNL     1       7.706   6.724  16.866  0.00  0.00    +0.000 NA
ATOM      7  C   UNL     1       7.411   5.705  17.681  0.00  0.00    +0.000 A 
ATOM      8  C   UNL     1       6.049   5.680  17.999  0.00  0.00    +0.000 A 
ATOM      9  C   UNL     1       5.233   4.819  18.792  0.00  0.00    +0.000 A 
ATOM     10  O   UNL     1       5.707   3.806  19.293  0.00  0.00    +0.000 OA
ATOM     11  H   UNL     1       6.472   8.135  16.051  0.00  0.00    +0.000 HD
ENDROOT
BRANCH   1  17
ATOM     12  C   UNL     1       2.119   3.467  18.854  0.00  0.00    +0.000 A 
ATOM     13  C   UNL     1       1.119   2.804  19.583  0.00  0.00    +0.000 A 
ATOM     14  C   UNL     1       0.983   2.981  20.959  0.00  0.00    +0.000 A 
ATOM     15  C   UNL     1       1.851   3.831  21.631  0.00  0.00    +0.000 A 
ATOM     16  C   UNL     1       2.840   4.509  20.921  0.00  0.00    +0.000 A 
ATOM     17  C   UNL     1       2.995   4.345  19.526  0.00  0.00    +0.000 A 
BRANCH  12  18
ATOM     18  O   UNL     1       2.034   3.202  17.513  0.00  0.00    +0.000 OA
BRANCH  18  20
ATOM     19  C   UNL     1       3.577   1.488  18.081  0.00  0.00    +0.000 C 
ATOM     20  C   UNL     1       2.900   2.231  16.936  0.00  0.00    +0.000 C 
ENDBRANCH  18  20
ENDBRANCH  12  18
ENDBRANCH   1  17
BRANCH   2  21
ATOM     21  S   UNL     1       1.748   6.873  18.276  0.00  0.00    +0.000 S 
BRANCH  21  22
ATOM     22  C   UNL     1       1.861   8.462  19.139  0.00  0.00    +0.000 C 
BRANCH  22  23
ATOM     23  C   UNL     1       1.472   9.681  18.313  0.00  0.00    +0.000 C 
ATOM     24  O   UNL     1       2.249  10.271  17.565  0.00  0.00    +0.000 OA
BRANCH  23  25
ATOM     25  C   UNL     1       0.048  10.174  18.426  0.00  0.00    +0.000 A 
ATOM     26  C   UNL     1      -0.958   9.773  17.532  0.00  0.00    +0.000 A 
ATOM     27  C   UNL     1      -2.255  10.296  17.628  0.00  0.00    +0.000 A 
ATOM     28  C   UNL     1      -2.562  11.217  18.625  0.00  0.00    +0.000 A 
ATOM     29 CL   UNL     1      -4.148  11.879  18.721  0.00  0.00    +0.000 Cl
ATOM     30  C   UNL     1      -1.586  11.606  19.540  0.00  0.00    +0.000 A 
ATOM     31  C   UNL     1      -0.286  11.087  19.440  0.00  0.00    +0.000 A 
ENDBRANCH  23  25
ENDBRANCH  22  23
ENDBRANCH  21  22
ENDBRANCH   2  21
TORSDOF 7
ENDMDL
MODEL 6
REMARK VINA RESULT:      -7.9      2.000      4.662
REMARK  Name = 
REMARK  8 active torsions:
REMARK  status: ('A' for Active; 'I' for Inactive)
REMARK    1  A    between atoms: C_1  and  C_2
REMARK    2  A    between atoms: C_2  and  O_3
REMARK    3  A    between atoms: O_3  and  C_4
REMARK    4  A    between atoms: C_9  and  N_10
REMARK    5  A    between atoms: C_11  and  S_12
REMARK    6  A    between atoms: S_12  and  C_13
REMARK    7  A    between atoms: C_13  and  C_14
REMARK    8  A    between atoms: C_14  and  C_16
REMARK                            x       y       z     vdW  Elec       q    Type
REMARK                         _______ _______ _______ _____ _____    ______ ____
ROOT
ATOM      1  N   UNL     1       3.908   5.219  18.887  0.00  0.00    +0.000 N 
ATOM      2  C   UNL     1       3.448   6.341  18.129  0.00  0.00    +0.000 A 
ATOM      3  N   UNL     1       4.201   7.090  17.372  0.00  0.00    +0.000 NA
ATOM      4  C   UNL     1       5.490   6.689  17.338  0.00  0.00    +0.000 A 
ATOM      5  N   UNL     1       6.505   7.273  16.636  0.00  0.00    +0.000 N 
ATOM      6  N   UNL     1       7.697   6.656  16.815  0.00  0.00    +0.000 NA
ATOM      7  C   UNL     1       7.410   5.639  17.635  0.00  0.00    +0.000 A 
ATOM      8  C   UNL     1       6.054   5.628  17.982  0.00  0.00    +0.000 A 
ATOM      9  C   UNL     1       5.247   4.774  18.792  0.00  0.00    +0.000 A 
ATOM     10  O   UNL     1       5.722   3.755  19.282  0.00  0.00    +0.000 OA
ATOM     11  H   UNL     1       6.460   8.081  16.028  0.00  0.00    +0.000 HD
ENDROOT
BRANCH   1  17
ATOM     12  C   UNL     1       2.107   3.468  18.921  0.00  0.00    +0.000 A 
ATOM     13  C   UNL     1       1.119   2.815  19.675  0.00  0.00    +0.000 A 
ATOM     14  C   UNL     1       1.032   2.977  21.057  0.00  0.00    +0.000 A 
ATOM     15  C   UNL     1       1.937   3.803  21.709  0.00  0.00    +0.000 A 
ATOM     16  C   UNL     1       2.915   4.472  20.975  0.00  0.00    +0.000 A 
ATOM     17  C   UNL     1       3.021   4.322  19.574  0.00  0.00    +0.000 A 
BRANCH  12  18
ATOM     18  O   UNL     1       1.973   3.222  17.580  0.00  0.00    +0.000 OA
BRANCH  18  20
ATOM     19  C   UNL     1       3.579   1.494  17.853  0.00  0.00    +0.000 C 
ATOM     20  C   UNL     1       3.006   2.526  16.891  0.00  0.00    +0.000 C 
ENDBRANCH  18  20
ENDBRANCH  12  18
ENDBRANCH   1  17
BRANCH   2  21
ATOM     21  S   UNL     1       1.773   6.865  18.355  0.00  0.00    +0.000 S 
BRANCH  21  22
ATOM     22  C   UNL     1       1.881   8.140  19.637  0.00  0.00    +0.000 C 
BRANCH  22  23
ATOM     23  C   UNL     1       1.203   9.461  19.300  0.00  0.00    +0.000 C 
ATOM     24  O   UNL     1       1.300  10.016  18.208  0.00  0.00    +0.000 OA
BRANCH  23  25
ATOM     25  C   UNL     1       0.363  10.108  20.378  0.00  0.00    +0.000 A 
ATOM     26  C   UNL     1       0.272   9.582  21.677  0.00  0.00    +0.000 A 
ATOM     27  C   UNL     1      -0.564  10.173  22.634  0.00  0.00    +0.000 A 
ATOM     28  C   UNL     1      -1.309  11.302  22.307  0.00  0.00    +0.000 A 
ATOM     29 CL   UNL     1      -2.356  12.006  23.477  0.00  0.00    +0.000 Cl
ATOM     30  C   UNL     1      -1.211  11.856  21.032  0.00  0.00    +0.000 A 
ATOM     31  C   UNL     1      -0.379  11.261  20.071  0.00  0.00    +0.000 A 
ENDBRANCH  23  25
ENDBRANCH  22  23
ENDBRANCH  21  22
ENDBRANCH   2  21
TORSDOF 7
ENDMDL
MODEL 7
REMARK VINA RESULT:      -7.9      0.943      1.310
REMARK  Name = 
REMARK  8 active torsions:
REMARK  status: ('A' for Active; 'I' for Inactive)
REMARK    1  A    between atoms: C_1  and  C_2
REMARK    2  A    between atoms: C_2  and  O_3
REMARK    3  A    between atoms: O_3  and  C_4
REMARK    4  A    between atoms: C_9  and  N_10
REMARK    5  A    between atoms: C_11  and  S_12
REMARK    6  A    between atoms: S_12  and  C_13
REMARK    7  A    between atoms: C_13  and  C_14
REMARK    8  A    between atoms: C_14  and  C_16
REMARK                            x       y       z     vdW  Elec       q    Type
REMARK                         _______ _______ _______ _____ _____    ______ ____
ROOT
ATOM      1  N   UNL     1       3.782   4.292  17.579  0.00  0.00    +0.000 N 
ATOM      2  C   UNL     1       3.229   5.521  18.059  0.00  0.00    +0.000 A 
ATOM      3  N   UNL     1       2.312   5.618  18.981  0.00  0.00    +0.000 NA
ATOM      4  C   UNL     1       1.934   4.423  19.485  0.00  0.00    +0.000 A 
ATOM      5  N   UNL     1       0.999   4.209  20.457  0.00  0.00    +0.000 N 
ATOM      6  N   UNL     1       0.820   2.898  20.741  0.00  0.00    +0.000 NA
ATOM      7  C   UNL     1       1.690   2.276  19.938  0.00  0.00    +0.000 A 
ATOM      8  C   UNL     1       2.396   3.186  19.144  0.00  0.00    +0.000 A 
ATOM      9  C   UNL     1       3.421   3.054  18.160  0.00  0.00    +0.000 A 
ATOM     10  O   UNL     1       3.921   1.958  17.931  0.00  0.00    +0.000 OA
ATOM     11  H   UNL     1       0.453   4.897  20.959  0.00  0.00    +0.000 HD
ENDROOT
BRANCH   1  17
ATOM     12  C   UNL     1       6.244   4.406  17.095  0.00  0.00    +0.000 A 
ATOM     13  C   UNL     1       7.242   4.578  16.123  0.00  0.00    +0.000 A 
ATOM     14  C   UNL     1       6.943   4.566  14.761  0.00  0.00    +0.000 A 
ATOM     15  C   UNL     1       5.630   4.381  14.350  0.00  0.00    +0.000 A 
ATOM     16  C   UNL     1       4.623   4.225  15.301  0.00  0.00    +0.000 A 
ATOM     17  C   UNL     1       4.904   4.235  16.685  0.00  0.00    +0.000 A 
BRANCH  12  18
ATOM     18  O   UNL     1       6.743   4.517  18.366  0.00  0.00    +0.000 OA
BRANCH  18  20
ATOM     19  C   UNL     1       8.217   5.666  19.831  0.00  0.00    +0.000 C 
ATOM     20  C   UNL     1       7.022   5.808  18.896  0.00  0.00    +0.000 C 
ENDBRANCH  18  20
ENDBRANCH  12  18
ENDBRANCH   1  17
BRANCH   2  21
ATOM     21  S   UNL     1       3.691   7.016  17.234  0.00  0.00    +0.000 S 
BRANCH  21  22
ATOM     22  C   UNL     1       3.249   8.321  18.410  0.00  0.00    +0.000 C 
BRANCH  22  23
ATOM     23  C   UNL     1       1.832   8.861  18.282  0.00  0.00    +0.000 C 
ATOM     24  O   UNL     1       1.232   8.949  17.212  0.00  0.00    +0.000 OA
BRANCH  23  25
ATOM     25  C   UNL     1       1.136   9.302  19.549  0.00  0.00    +0.000 A 
ATOM     26  C   UNL     1       1.110   8.508  20.707  0.00  0.00    +0.000 A 
ATOM     27  C   UNL     1       0.404   8.921  21.845  0.00  0.00    +0.000 A 
ATOM     28  C   UNL     1      -0.274  10.136  21.843  0.00  0.00    +0.000 A 
ATOM     29 CL   UNL     1      -1.163  10.624  23.232  0.00  0.00    +0.000 Cl
ATOM     30  C   UNL     1      -0.237  10.952  20.714  0.00  0.00    +0.000 A 
ATOM     31  C   UNL     1       0.464  10.537  19.571  0.00  0.00    +0.000 A 
ENDBRANCH  23  25
ENDBRANCH  22  23
ENDBRANCH  21  22
ENDBRANCH   2  21
TORSDOF 7
ENDMDL
MODEL 8
REMARK VINA RESULT:      -7.9      1.361      2.349
REMARK  Name = 
REMARK  8 active torsions:
REMARK  status: ('A' for Active; 'I' for Inactive)
REMARK    1  A    between atoms: C_1  and  C_2
REMARK    2  A    between atoms: C_2  and  O_3
REMARK    3  A    between atoms: O_3  and  C_4
REMARK    4  A    between atoms: C_9  and  N_10
REMARK    5  A    between atoms: C_11  and  S_12
REMARK    6  A    between atoms: S_12  and  C_13
REMARK    7  A    between atoms: C_13  and  C_14
REMARK    8  A    between atoms: C_14  and  C_16
REMARK                            x       y       z     vdW  Elec       q    Type
REMARK                         _______ _______ _______ _____ _____    ______ ____
ROOT
ATOM      1  N   UNL     1       4.068   4.533  18.374  0.00  0.00    +0.000 N 
ATOM      2  C   UNL     1       3.028   5.512  18.307  0.00  0.00    +0.000 A 
ATOM      3  N   UNL     1       1.764   5.276  18.528  0.00  0.00    +0.000 NA
ATOM      4  C   UNL     1       1.512   3.993  18.864  0.00  0.00    +0.000 A 
ATOM      5  N   UNL     1       0.292   3.452  19.152  0.00  0.00    +0.000 N 
ATOM      6  N   UNL     1       0.351   2.130  19.437  0.00  0.00    +0.000 NA
ATOM      7  C   UNL     1       1.654   1.844  19.349  0.00  0.00    +0.000 A 
ATOM      8  C   UNL     1       2.404   2.970  18.994  0.00  0.00    +0.000 A 
ATOM      9  C   UNL     1       3.796   3.208  18.789  0.00  0.00    +0.000 A 
ATOM     10  O   UNL     1       4.615   2.324  19.014  0.00  0.00    +0.000 OA
ATOM     11  H   UNL     1      -0.608   3.916  19.171  0.00  0.00    +0.000 HD
ENDROOT
BRANCH   1  17
ATOM     12  C   UNL     1       6.298   4.470  17.221  0.00  0.00    +0.000 A 
ATOM     13  C   UNL     1       7.688   4.627  17.344  0.00  0.00    +0.000 A 
ATOM     14  C   UNL     1       8.260   5.180  18.490  0.00  0.00    +0.000 A 
ATOM     15  C   UNL     1       7.443   5.585  19.536  0.00  0.00    +0.000 A 
ATOM     16  C   UNL     1       6.062   5.423  19.438  0.00  0.00    +0.000 A 
ATOM     17  C   UNL     1       5.462   4.864  18.288  0.00  0.00    +0.000 A 
BRANCH  12  18
ATOM     18  O   UNL     1       5.956   3.850  16.049  0.00  0.00    +0.000 OA
BRANCH  18  20
ATOM     19  C   UNL     1       5.922   3.874  13.674  0.00  0.00    +0.000 C 
ATOM     20  C   UNL     1       5.542   4.637  14.937  0.00  0.00    +0.000 C 
ENDBRANCH  18  20
ENDBRANCH  12  18
ENDBRANCH   1  17
BRANCH   2  21
ATOM     21  S   UNL     1       3.446   7.128  17.720  0.00  0.00    +0.000 S 
BRANCH  21  22
ATOM     22  C   UNL     1       1.851   7.977  17.595  0.00  0.00    +0.000 C 
BRANCH  22  23
ATOM     23  C   UNL     1       1.828   9.403  18.128  0.00  0.00    +0.000 C 
ATOM     24  O   UNL     1       2.403  10.342  17.581  0.00  0.00    +0.000 OA
BRANCH  23  25
ATOM     25  C   UNL     1       1.047   9.661  19.396  0.00  0.00    +0.000 A 
ATOM     26  C   UNL     1       0.310  10.840  19.596  0.00  0.00    +0.000 A 
ATOM     27  C   UNL     1      -0.354  11.074  20.807  0.00  0.00    +0.000 A 
ATOM     28  C   UNL     1      -0.299  10.129  21.827  0.00  0.00    +0.000 A 
ATOM     29 CL   UNL     1      -1.091  10.435  23.323  0.00  0.00    +0.000 Cl
ATOM     30  C   UNL     1       0.404   8.941  21.638  0.00  0.00    +0.000 A 
ATOM     31  C   UNL     1       1.074   8.708  20.427  0.00  0.00    +0.000 A 
ENDBRANCH  23  25
ENDBRANCH  22  23
ENDBRANCH  21  22
ENDBRANCH   2  21
TORSDOF 7
ENDMDL
MODEL 9
REMARK VINA RESULT:      -7.8      1.391      1.495
REMARK  Name = 
REMARK  8 active torsions:
REMARK  status: ('A' for Active; 'I' for Inactive)
REMARK    1  A    between atoms: C_1  and  C_2
REMARK    2  A    between atoms: C_2  and  O_3
REMARK    3  A    between atoms: O_3  and  C_4
REMARK    4  A    between atoms: C_9  and  N_10
REMARK    5  A    between atoms: C_11  and  S_12
REMARK    6  A    between atoms: S_12  and  C_13
REMARK    7  A    between atoms: C_13  and  C_14
REMARK    8  A    between atoms: C_14  and  C_16
REMARK                            x       y       z     vdW  Elec       q    Type
REMARK                         _______ _______ _______ _____ _____    ______ ____
ROOT
ATOM      1  N   UNL     1       4.194   4.425  18.214  0.00  0.00    +0.000 N 
ATOM      2  C   UNL     1       3.603   5.642  18.680  0.00  0.00    +0.000 A 
ATOM      3  N   UNL     1       2.867   5.753  19.750  0.00  0.00    +0.000 NA
ATOM      4  C   UNL     1       2.726   4.591  20.423  0.00  0.00    +0.000 A 
ATOM      5  N   UNL     1       2.016   4.398  21.574  0.00  0.00    +0.000 N 
ATOM      6  N   UNL     1       2.042   3.115  22.005  0.00  0.00    +0.000 NA
ATOM      7  C   UNL     1       2.814   2.493  21.107  0.00  0.00    +0.000 A 
ATOM      8  C   UNL     1       3.254   3.372  20.112  0.00  0.00    +0.000 A 
ATOM      9  C   UNL     1       4.088   3.230  18.963  0.00  0.00    +0.000 A 
ATOM     10  O   UNL     1       4.658   2.168  18.740  0.00  0.00    +0.000 OA
ATOM     11  H   UNL     1       1.497   5.082  22.109  0.00  0.00    +0.000 HD
ENDROOT
BRANCH   1  17
ATOM     12  C   UNL     1       6.527   4.498  17.290  0.00  0.00    +0.000 A 
ATOM     13  C   UNL     1       7.336   4.683  16.157  0.00  0.00    +0.000 A 
ATOM     14  C   UNL     1       6.792   4.732  14.874  0.00  0.00    +0.000 A 
ATOM     15  C   UNL     1       5.421   4.596  14.705  0.00  0.00    +0.000 A 
ATOM     16  C   UNL     1       4.601   4.427  15.819  0.00  0.00    +0.000 A 
ATOM     17  C   UNL     1       5.131   4.375  17.127  0.00  0.00    +0.000 A 
BRANCH  12  18
ATOM     18  O   UNL     1       7.254   4.546  18.450  0.00  0.00    +0.000 OA
BRANCH  18  20
ATOM     19  C   UNL     1       7.783   6.858  18.315  0.00  0.00    +0.000 C 
ATOM     20  C   UNL     1       7.265   5.744  19.217  0.00  0.00    +0.000 C 
ENDBRANCH  18  20
ENDBRANCH  12  18
ENDBRANCH   1  17
BRANCH   2  21
ATOM     21  S   UNL     1       3.732   7.074  17.649  0.00  0.00    +0.000 S 
BRANCH  21  22
ATOM     22  C   UNL     1       2.130   7.897  17.838  0.00  0.00    +0.000 C 
BRANCH  22  23
ATOM     23  C   UNL     1       2.177   9.419  17.854  0.00  0.00    +0.000 C 
ATOM     24  O   UNL     1       3.176  10.071  17.556  0.00  0.00    +0.000 OA
BRANCH  23  25
ATOM     25  C   UNL     1       0.917  10.152  18.253  0.00  0.00    +0.000 A 
ATOM     26  C   UNL     1       0.944  11.340  19.001  0.00  0.00    +0.000 A 
ATOM     27  C   UNL     1      -0.244  11.961  19.406  0.00  0.00    +0.000 A 
ATOM     28  C   UNL     1      -1.473  11.409  19.058  0.00  0.00    +0.000 A 
ATOM     29 CL   UNL     1      -2.930  12.160  19.583  0.00  0.00    +0.000 Cl
ATOM     30  C   UNL     1      -1.522  10.246  18.292  0.00  0.00    +0.000 A 
ATOM     31  C   UNL     1      -0.332   9.619  17.892  0.00  0.00    +0.000 A 
ENDBRANCH  23  25
ENDBRANCH  22  23
ENDBRANCH  21  22
ENDBRANCH   2  21
TORSDOF 7
ENDMDL
