MODEL 1
REMARK VINA RESULT:      -6.3      0.000      0.000
REMARK  Name = 
REMARK  13 active torsions:
REMARK  status: ('A' for Active; 'I' for Inactive)
REMARK    1  A    between atoms: C_1  and  C_2
REMARK    2  A    between atoms: C_2  and  C_3
REMARK    3  A    between atoms: C_3  and  C_4
REMARK    4  A    between atoms: C_4  and  C_5
REMARK    5  A    between atoms: C_5  and  C_6
REMARK    6  A    between atoms: C_6  and  C_7
REMARK    7  A    between atoms: C_7  and  C_8
REMARK    8  A    between atoms: C_8  and  C_9
REMARK    9  A    between atoms: C_9  and  C_10
REMARK   10  A    between atoms: C_10  and  C_11
REMARK   11  A    between atoms: C_11  and  C_12
REMARK   12  A    between atoms: C_17  and  C_18
REMARK   13  A    between atoms: C_19  and  O_20
REMARK                            x       y       z     vdW  Elec       q    Type
REMARK                         _______ _______ _______ _____ _____    ______ ____
ROOT
ATOM      1  C   UNL     1       3.514   4.126  17.431  0.00  0.00    +0.000 C 
ENDROOT
BRANCH   1   2
ATOM      2  C   UNL     1       4.613   4.266  16.422  0.00  0.00    +0.000 C 
ATOM      3  C   UNL     1       5.626   5.138  16.544  0.00  0.00    +0.000 C 
ATOM      4  C   UNL     1       6.745   5.182  15.590  0.00  0.00    +0.000 C 
ATOM      5  O   UNL     1       6.785   4.652  14.491  0.00  0.00    +0.000 OA
ATOM      6  O   UNL     1       7.735   5.937  16.134  0.00  0.00    +0.000 OA
ATOM      7  C   UNL     1       7.358   6.428  17.433  0.00  0.00    +0.000 C 
ATOM      8  C   UNL     1       7.721   7.904  17.478  0.00  0.00    +0.000 C 
ATOM      9  C   UNL     1       5.874   6.131  17.612  0.00  0.00    +0.000 C 
BRANCH   9  10
ATOM     10  O   UNL     1       5.031   7.264  17.431  0.00  0.00    +0.000 OA
ATOM     11  H   UNL     1       4.879   7.391  16.478  0.00  0.00    +0.000 HD
ENDBRANCH   9  10
ENDBRANCH   1   2
BRANCH   1  12
ATOM     12  C   UNL     1       2.590   2.966  17.094  0.00  0.00    +0.000 C 
BRANCH  12  13
ATOM     13  C   UNL     1       2.258   2.169  18.357  0.00  0.00    +0.000 C 
BRANCH  13  14
ATOM     14  C   UNL     1       0.813   2.359  18.809  0.00  0.00    +0.000 C 
BRANCH  14  15
ATOM     15  C   UNL     1       0.718   3.224  20.063  0.00  0.00    +0.000 C 
BRANCH  15  16
ATOM     16  C   UNL     1       2.033   3.243  20.826  0.00  0.00    +0.000 C 
BRANCH  16  17
ATOM     17  C   UNL     1       2.441   4.682  21.124  0.00  0.00    +0.000 C 
BRANCH  17  18
ATOM     18  C   UNL     1       1.588   5.658  20.324  0.00  0.00    +0.000 C 
BRANCH  18  19
ATOM     19  C   UNL     1       2.440   6.795  19.771  0.00  0.00    +0.000 C 
BRANCH  19  21
ATOM     20  C   UNL     1       1.942   8.696  18.209  0.00  0.00    +0.000 C 
ATOM     21  C   UNL     1       1.983   7.185  18.369  0.00  0.00    +0.000 C 
ENDBRANCH  19  21
ENDBRANCH  18  19
ENDBRANCH  17  18
ENDBRANCH  16  17
ENDBRANCH  15  16
ENDBRANCH  14  15
ENDBRANCH  13  14
ENDBRANCH  12  13
ENDBRANCH   1  12
TORSDOF 11
ENDMDL
MODEL 2
REMARK VINA RESULT:      -6.1      3.561      7.159
REMARK  Name = 
REMARK  13 active torsions:
REMARK  status: ('A' for Active; 'I' for Inactive)
REMARK    1  A    between atoms: C_1  and  C_2
REMARK    2  A    between atoms: C_2  and  C_3
REMARK    3  A    between atoms: C_3  and  C_4
REMARK    4  A    between atoms: C_4  and  C_5
REMARK    5  A    between atoms: C_5  and  C_6
REMARK    6  A    between atoms: C_6  and  C_7
REMARK    7  A    between atoms: C_7  and  C_8
REMARK    8  A    between atoms: C_8  and  C_9
REMARK    9  A    between atoms: C_9  and  C_10
REMARK   10  A    between atoms: C_10  and  C_11
REMARK   11  A    between atoms: C_11  and  C_12
REMARK   12  A    between atoms: C_17  and  C_18
REMARK   13  A    between atoms: C_19  and  O_20
REMARK                            x       y       z     vdW  Elec       q    Type
REMARK                         _______ _______ _______ _____ _____    ______ ____
ROOT
ATOM      1  C   UNL     1       5.003   5.689  18.247  0.00  0.00    +0.000 C 
ENDROOT
BRANCH   1   2
ATOM      2  C   UNL     1       3.658   5.149  17.865  0.00  0.00    +0.000 C 
ATOM      3  C   UNL     1       2.849   4.500  18.717  0.00  0.00    +0.000 C 
ATOM      4  C   UNL     1       1.493   4.072  18.341  0.00  0.00    +0.000 C 
ATOM      5  O   UNL     1       1.035   4.017  17.210  0.00  0.00    +0.000 OA
ATOM      6  O   UNL     1       0.830   3.725  19.474  0.00  0.00    +0.000 OA
ATOM      7  C   UNL     1       1.665   3.890  20.635  0.00  0.00    +0.000 C 
ATOM      8  C   UNL     1       1.511   2.637  21.481  0.00  0.00    +0.000 C 
ATOM      9  C   UNL     1       3.081   4.151  20.135  0.00  0.00    +0.000 C 
BRANCH   9  10
ATOM     10  O   UNL     1       3.944   3.021  20.225  0.00  0.00    +0.000 OA
ATOM     11  H   UNL     1       4.338   2.859  19.350  0.00  0.00    +0.000 HD
ENDBRANCH   9  10
ENDBRANCH   1   2
BRANCH   1  12
ATOM     12  C   UNL     1       6.091   4.637  18.104  0.00  0.00    +0.000 C 
BRANCH  12  13
ATOM     13  C   UNL     1       6.980   4.954  16.901  0.00  0.00    +0.000 C 
BRANCH  13  14
ATOM     14  C   UNL     1       6.775   3.979  15.745  0.00  0.00    +0.000 C 
BRANCH  14  15
ATOM     15  C   UNL     1       6.129   4.655  14.539  0.00  0.00    +0.000 C 
BRANCH  15  16
ATOM     16  C   UNL     1       7.107   4.778  13.381  0.00  0.00    +0.000 C 
BRANCH  16  17
ATOM     17  C   UNL     1       6.674   3.868  12.235  0.00  0.00    +0.000 C 
BRANCH  17  18
ATOM     18  C   UNL     1       5.270   3.330  12.479  0.00  0.00    +0.000 C 
BRANCH  18  19
ATOM     19  C   UNL     1       4.631   2.872  11.173  0.00  0.00    +0.000 C 
BRANCH  19  21
ATOM     20  C   UNL     1       3.027   3.753   9.455  0.00  0.00    +0.000 C 
ATOM     21  C   UNL     1       3.301   3.581  10.940  0.00  0.00    +0.000 C 
ENDBRANCH  19  21
ENDBRANCH  18  19
ENDBRANCH  17  18
ENDBRANCH  16  17
ENDBRANCH  15  16
ENDBRANCH  14  15
ENDBRANCH  13  14
ENDBRANCH  12  13
ENDBRANCH   1  12
TORSDOF 11
ENDMDL
MODEL 3
REMARK VINA RESULT:      -6.0      0.949      1.106
REMARK  Name = 
REMARK  13 active torsions:
REMARK  status: ('A' for Active; 'I' for Inactive)
REMARK    1  A    between atoms: C_1  and  C_2
REMARK    2  A    between atoms: C_2  and  C_3
REMARK    3  A    between atoms: C_3  and  C_4
REMARK    4  A    between atoms: C_4  and  C_5
REMARK    5  A    between atoms: C_5  and  C_6
REMARK    6  A    between atoms: C_6  and  C_7
REMARK    7  A    between atoms: C_7  and  C_8
REMARK    8  A    between atoms: C_8  and  C_9
REMARK    9  A    between atoms: C_9  and  C_10
REMARK   10  A    between atoms: C_10  and  C_11
REMARK   11  A    between atoms: C_11  and  C_12
REMARK   12  A    between atoms: C_17  and  C_18
REMARK   13  A    between atoms: C_19  and  O_20
REMARK                            x       y       z     vdW  Elec       q    Type
REMARK                         _______ _______ _______ _____ _____    ______ ____
ROOT
ATOM      1  C   UNL     1       3.902   3.451  17.515  0.00  0.00    +0.000 C 
ENDROOT
BRANCH   1   2
ATOM      2  C   UNL     1       4.935   3.778  16.479  0.00  0.00    +0.000 C 
ATOM      3  C   UNL     1       5.788   4.810  16.580  0.00  0.00    +0.000 C 
ATOM      4  C   UNL     1       6.857   5.045  15.598  0.00  0.00    +0.000 C 
ATOM      5  O   UNL     1       6.958   4.529  14.496  0.00  0.00    +0.000 OA
ATOM      6  O   UNL     1       7.717   5.956  16.120  0.00  0.00    +0.000 OA
ATOM      7  C   UNL     1       7.296   6.376  17.431  0.00  0.00    +0.000 C 
ATOM      8  C   UNL     1       7.403   7.892  17.473  0.00  0.00    +0.000 C 
ATOM      9  C   UNL     1       5.889   5.830  17.646  0.00  0.00    +0.000 C 
BRANCH   9  10
ATOM     10  O   UNL     1       4.861   6.803  17.491  0.00  0.00    +0.000 OA
ATOM     11  H   UNL     1       4.080   6.513  17.994  0.00  0.00    +0.000 HD
ENDBRANCH   9  10
ENDBRANCH   1   2
BRANCH   1  12
ATOM     12  C   UNL     1       2.496   3.749  17.018  0.00  0.00    +0.000 C 
BRANCH  12  13
ATOM     13  C   UNL     1       1.460   3.220  18.012  0.00  0.00    +0.000 C 
BRANCH  13  14
ATOM     14  C   UNL     1       2.054   2.228  19.007  0.00  0.00    +0.000 C 
BRANCH  14  15
ATOM     15  C   UNL     1       1.561   2.484  20.428  0.00  0.00    +0.000 C 
BRANCH  15  16
ATOM     16  C   UNL     1       2.546   3.335  21.214  0.00  0.00    +0.000 C 
BRANCH  16  17
ATOM     17  C   UNL     1       2.109   4.797  21.186  0.00  0.00    +0.000 C 
BRANCH  17  18
ATOM     18  C   UNL     1       2.994   5.603  20.243  0.00  0.00    +0.000 C 
BRANCH  18  19
ATOM     19  C   UNL     1       2.305   6.899  19.829  0.00  0.00    +0.000 C 
BRANCH  19  21
ATOM     20  C   UNL     1       1.107   8.809  20.930  0.00  0.00    +0.000 C 
ATOM     21  C   UNL     1       1.241   7.298  20.846  0.00  0.00    +0.000 C 
ENDBRANCH  19  21
ENDBRANCH  18  19
ENDBRANCH  17  18
ENDBRANCH  16  17
ENDBRANCH  15  16
ENDBRANCH  14  15
ENDBRANCH  13  14
ENDBRANCH  12  13
ENDBRANCH   1  12
TORSDOF 11
ENDMDL
MODEL 4
REMARK VINA RESULT:      -5.9      1.310      1.561
REMARK  Name = 
REMARK  13 active torsions:
REMARK  status: ('A' for Active; 'I' for Inactive)
REMARK    1  A    between atoms: C_1  and  C_2
REMARK    2  A    between atoms: C_2  and  C_3
REMARK    3  A    between atoms: C_3  and  C_4
REMARK    4  A    between atoms: C_4  and  C_5
REMARK    5  A    between atoms: C_5  and  C_6
REMARK    6  A    between atoms: C_6  and  C_7
REMARK    7  A    between atoms: C_7  and  C_8
REMARK    8  A    between atoms: C_8  and  C_9
REMARK    9  A    between atoms: C_9  and  C_10
REMARK   10  A    between atoms: C_10  and  C_11
REMARK   11  A    between atoms: C_11  and  C_12
REMARK   12  A    between atoms: C_17  and  C_18
REMARK   13  A    between atoms: C_19  and  O_20
REMARK                            x       y       z     vdW  Elec       q    Type
REMARK                         _______ _______ _______ _____ _____    ______ ____
ROOT
ATOM      1  C   UNL     1       3.933   3.103  16.898  0.00  0.00    +0.000 C 
ENDROOT
BRANCH   1   2
ATOM      2  C   UNL     1       4.476   4.459  16.562  0.00  0.00    +0.000 C 
ATOM      3  C   UNL     1       5.547   5.000  17.164  0.00  0.00    +0.000 C 
ATOM      4  C   UNL     1       6.118   6.288  16.743  0.00  0.00    +0.000 C 
ATOM      5  O   UNL     1       5.590   7.114  16.014  0.00  0.00    +0.000 OA
ATOM      6  O   UNL     1       7.339   6.419  17.321  0.00  0.00    +0.000 OA
ATOM      7  C   UNL     1       7.652   5.273  18.135  0.00  0.00    +0.000 C 
ATOM      8  C   UNL     1       8.197   5.796  19.455  0.00  0.00    +0.000 C 
ATOM      9  C   UNL     1       6.378   4.446  18.255  0.00  0.00    +0.000 C 
BRANCH   9  10
ATOM     10  O   UNL     1       5.708   4.592  19.502  0.00  0.00    +0.000 OA
ATOM     11  H   UNL     1       5.255   5.454  19.514  0.00  0.00    +0.000 HD
ENDBRANCH   9  10
ENDBRANCH   1   2
BRANCH   1  12
ATOM     12  C   UNL     1       2.454   3.161  17.245  0.00  0.00    +0.000 C 
BRANCH  12  13
ATOM     13  C   UNL     1       2.053   1.934  18.065  0.00  0.00    +0.000 C 
BRANCH  13  14
ATOM     14  C   UNL     1       0.831   2.187  18.944  0.00  0.00    +0.000 C 
BRANCH  14  15
ATOM     15  C   UNL     1       1.219   2.735  20.314  0.00  0.00    +0.000 C 
BRANCH  15  16
ATOM     16  C   UNL     1       0.847   4.203  20.450  0.00  0.00    +0.000 C 
BRANCH  16  17
ATOM     17  C   UNL     1       2.041   4.996  20.974  0.00  0.00    +0.000 C 
BRANCH  17  18
ATOM     18  C   UNL     1       2.066   6.392  20.364  0.00  0.00    +0.000 C 
BRANCH  18  19
ATOM     19  C   UNL     1       2.850   6.398  19.056  0.00  0.00    +0.000 C 
BRANCH  19  21
ATOM     20  C   UNL     1       2.758   8.540  17.751  0.00  0.00    +0.000 C 
ATOM     21  C   UNL     1       2.109   7.185  17.981  0.00  0.00    +0.000 C 
ENDBRANCH  19  21
ENDBRANCH  18  19
ENDBRANCH  17  18
ENDBRANCH  16  17
ENDBRANCH  15  16
ENDBRANCH  14  15
ENDBRANCH  13  14
ENDBRANCH  12  13
ENDBRANCH   1  12
TORSDOF 11
ENDMDL
MODEL 5
REMARK VINA RESULT:      -5.9      3.094      6.678
REMARK  Name = 
REMARK  13 active torsions:
REMARK  status: ('A' for Active; 'I' for Inactive)
REMARK    1  A    between atoms: C_1  and  C_2
REMARK    2  A    between atoms: C_2  and  C_3
REMARK    3  A    between atoms: C_3  and  C_4
REMARK    4  A    between atoms: C_4  and  C_5
REMARK    5  A    between atoms: C_5  and  C_6
REMARK    6  A    between atoms: C_6  and  C_7
REMARK    7  A    between atoms: C_7  and  C_8
REMARK    8  A    between atoms: C_8  and  C_9
REMARK    9  A    between atoms: C_9  and  C_10
REMARK   10  A    between atoms: C_10  and  C_11
REMARK   11  A    between atoms: C_11  and  C_12
REMARK   12  A    between atoms: C_17  and  C_18
REMARK   13  A    between atoms: C_19  and  O_20
REMARK                            x       y       z     vdW  Elec       q    Type
REMARK                         _______ _______ _______ _____ _____    ______ ____
ROOT
ATOM      1  C   UNL     1       3.180   6.493  17.789  0.00  0.00    +0.000 C 
ENDROOT
BRANCH   1   2
ATOM      2  C   UNL     1       3.000   5.015  17.618  0.00  0.00    +0.000 C 
ATOM      3  C   UNL     1       2.474   4.217  18.560  0.00  0.00    +0.000 C 
ATOM      4  C   UNL     1       2.215   2.788  18.325  0.00  0.00    +0.000 C 
ATOM      5  O   UNL     1       2.646   2.113  17.403  0.00  0.00    +0.000 OA
ATOM      6  O   UNL     1       1.421   2.332  19.327  0.00  0.00    +0.000 OA
ATOM      7  C   UNL     1       1.110   3.382  20.262  0.00  0.00    +0.000 C 
ATOM      8  C   UNL     1       1.314   2.816  21.658  0.00  0.00    +0.000 C 
ATOM      9  C   UNL     1       2.005   4.567  19.918  0.00  0.00    +0.000 C 
BRANCH   9  10
ATOM     10  O   UNL     1       3.117   4.726  20.793  0.00  0.00    +0.000 OA
ATOM     11  H   UNL     1       3.360   5.669  20.820  0.00  0.00    +0.000 HD
ENDBRANCH   9  10
ENDBRANCH   1   2
BRANCH   1  12
ATOM     12  C   UNL     1       4.645   6.893  17.709  0.00  0.00    +0.000 C 
BRANCH  12  13
ATOM     13  C   UNL     1       5.540   5.672  17.928  0.00  0.00    +0.000 C 
BRANCH  13  14
ATOM     14  C   UNL     1       6.905   5.817  17.261  0.00  0.00    +0.000 C 
BRANCH  14  15
ATOM     15  C   UNL     1       6.999   5.001  15.975  0.00  0.00    +0.000 C 
BRANCH  15  16
ATOM     16  C   UNL     1       5.881   3.974  15.886  0.00  0.00    +0.000 C 
BRANCH  16  17
ATOM     17  C   UNL     1       5.284   3.976  14.481  0.00  0.00    +0.000 C 
BRANCH  17  18
ATOM     18  C   UNL     1       6.380   3.831  13.433  0.00  0.00    +0.000 C 
BRANCH  18  19
ATOM     19  C   UNL     1       5.801   3.931  12.026  0.00  0.00    +0.000 C 
BRANCH  19  21
ATOM     20  C   UNL     1       3.740   3.460  10.674  0.00  0.00    +0.000 C 
ATOM     21  C   UNL     1       4.563   3.052  11.883  0.00  0.00    +0.000 C 
ENDBRANCH  19  21
ENDBRANCH  18  19
ENDBRANCH  17  18
ENDBRANCH  16  17
ENDBRANCH  15  16
ENDBRANCH  14  15
ENDBRANCH  13  14
ENDBRANCH  12  13
ENDBRANCH   1  12
TORSDOF 11
ENDMDL
MODEL 6
REMARK VINA RESULT:      -5.9      1.552      3.680
REMARK  Name = 
REMARK  13 active torsions:
REMARK  status: ('A' for Active; 'I' for Inactive)
REMARK    1  A    between atoms: C_1  and  C_2
REMARK    2  A    between atoms: C_2  and  C_3
REMARK    3  A    between atoms: C_3  and  C_4
REMARK    4  A    between atoms: C_4  and  C_5
REMARK    5  A    between atoms: C_5  and  C_6
REMARK    6  A    between atoms: C_6  and  C_7
REMARK    7  A    between atoms: C_7  and  C_8
REMARK    8  A    between atoms: C_8  and  C_9
REMARK    9  A    between atoms: C_9  and  C_10
REMARK   10  A    between atoms: C_10  and  C_11
REMARK   11  A    between atoms: C_11  and  C_12
REMARK   12  A    between atoms: C_17  and  C_18
REMARK   13  A    between atoms: C_19  and  O_20
REMARK                            x       y       z     vdW  Elec       q    Type
REMARK                         _______ _______ _______ _____ _____    ______ ____
ROOT
ATOM      1  C   UNL     1       3.731   7.058  17.629  0.00  0.00    +0.000 C 
ENDROOT
BRANCH   1   2
ATOM      2  C   UNL     1       4.927   6.214  17.949  0.00  0.00    +0.000 C 
ATOM      3  C   UNL     1       5.663   5.586  17.018  0.00  0.00    +0.000 C 
ATOM      4  C   UNL     1       6.892   4.849  17.353  0.00  0.00    +0.000 C 
ATOM      5  O   UNL     1       7.254   4.508  18.467  0.00  0.00    +0.000 OA
ATOM      6  O   UNL     1       7.557   4.591  16.198  0.00  0.00    +0.000 OA
ATOM      7  C   UNL     1       6.846   5.114  15.061  0.00  0.00    +0.000 C 
ATOM      8  C   UNL     1       6.830   4.026  14.000  0.00  0.00    +0.000 C 
ATOM      9  C   UNL     1       5.469   5.545  15.552  0.00  0.00    +0.000 C 
BRANCH   9  10
ATOM     10  O   UNL     1       4.426   4.633  15.223  0.00  0.00    +0.000 OA
ATOM     11  H   UNL     1       4.723   3.730  15.432  0.00  0.00    +0.000 HD
ENDBRANCH   9  10
ENDBRANCH   1   2
BRANCH   1  12
ATOM     12  C   UNL     1       2.464   6.494  18.255  0.00  0.00    +0.000 C 
BRANCH  12  13
ATOM     13  C   UNL     1       2.412   6.838  19.745  0.00  0.00    +0.000 C 
BRANCH  13  14
ATOM     14  C   UNL     1       2.298   5.600  20.630  0.00  0.00    +0.000 C 
BRANCH  14  15
ATOM     15  C   UNL     1       1.000   4.838  20.377  0.00  0.00    +0.000 C 
BRANCH  15  16
ATOM     16  C   UNL     1       1.147   3.363  20.716  0.00  0.00    +0.000 C 
BRANCH  16  17
ATOM     17  C   UNL     1       1.001   2.521  19.452  0.00  0.00    +0.000 C 
BRANCH  17  18
ATOM     18  C   UNL     1       1.237   3.373  18.211  0.00  0.00    +0.000 C 
BRANCH  18  19
ATOM     19  C   UNL     1       2.471   2.896  17.452  0.00  0.00    +0.000 C 
BRANCH  19  21
ATOM     20  C   UNL     1       4.025   1.156  18.375  0.00  0.00    +0.000 C 
ATOM     21  C   UNL     1       3.625   2.621  18.409  0.00  0.00    +0.000 C 
ENDBRANCH  19  21
ENDBRANCH  18  19
ENDBRANCH  17  18
ENDBRANCH  16  17
ENDBRANCH  15  16
ENDBRANCH  14  15
ENDBRANCH  13  14
ENDBRANCH  12  13
ENDBRANCH   1  12
TORSDOF 11
ENDMDL
MODEL 7
REMARK VINA RESULT:      -5.8      1.333      2.215
REMARK  Name = 
REMARK  13 active torsions:
REMARK  status: ('A' for Active; 'I' for Inactive)
REMARK    1  A    between atoms: C_1  and  C_2
REMARK    2  A    between atoms: C_2  and  C_3
REMARK    3  A    between atoms: C_3  and  C_4
REMARK    4  A    between atoms: C_4  and  C_5
REMARK    5  A    between atoms: C_5  and  C_6
REMARK    6  A    between atoms: C_6  and  C_7
REMARK    7  A    between atoms: C_7  and  C_8
REMARK    8  A    between atoms: C_8  and  C_9
REMARK    9  A    between atoms: C_9  and  C_10
REMARK   10  A    between atoms: C_10  and  C_11
REMARK   11  A    between atoms: C_11  and  C_12
REMARK   12  A    between atoms: C_17  and  C_18
REMARK   13  A    between atoms: C_19  and  O_20
REMARK                            x       y       z     vdW  Elec       q    Type
REMARK                         _______ _______ _______ _____ _____    ______ ____
ROOT
ATOM      1  C   UNL     1       4.003   3.277  18.050  0.00  0.00    +0.000 C 
ENDROOT
BRANCH   1   2
ATOM      2  C   UNL     1       5.199   4.169  18.183  0.00  0.00    +0.000 C 
ATOM      3  C   UNL     1       5.909   4.620  17.136  0.00  0.00    +0.000 C 
ATOM      4  C   UNL     1       7.016   5.577  17.291  0.00  0.00    +0.000 C 
ATOM      5  O   UNL     1       7.576   5.879  18.333  0.00  0.00    +0.000 OA
ATOM      6  O   UNL     1       7.329   6.063  16.062  0.00  0.00    +0.000 OA
ATOM      7  C   UNL     1       6.488   5.486  15.046  0.00  0.00    +0.000 C 
ATOM      8  C   UNL     1       7.392   5.074  13.896  0.00  0.00    +0.000 C 
ATOM      9  C   UNL     1       5.721   4.340  15.696  0.00  0.00    +0.000 C 
BRANCH   9  10
ATOM     10  O   UNL     1       6.231   3.049  15.379  0.00  0.00    +0.000 OA
ATOM     11  H   UNL     1       6.743   3.110  14.553  0.00  0.00    +0.000 HD
ENDBRANCH   9  10
ENDBRANCH   1   2
BRANCH   1  12
ATOM     12  C   UNL     1       3.704   2.543  19.348  0.00  0.00    +0.000 C 
BRANCH  12  13
ATOM     13  C   UNL     1       2.394   1.764  19.226  0.00  0.00    +0.000 C 
BRANCH  13  14
ATOM     14  C   UNL     1       1.267   2.598  18.625  0.00  0.00    +0.000 C 
BRANCH  14  15
ATOM     15  C   UNL     1       0.617   3.509  19.662  0.00  0.00    +0.000 C 
BRANCH  15  16
ATOM     16  C   UNL     1       1.281   3.365  21.022  0.00  0.00    +0.000 C 
BRANCH  16  17
ATOM     17  C   UNL     1       2.102   4.612  21.336  0.00  0.00    +0.000 C 
BRANCH  17  18
ATOM     18  C   UNL     1       1.594   5.804  20.534  0.00  0.00    +0.000 C 
BRANCH  18  19
ATOM     19  C   UNL     1       2.740   6.491  19.800  0.00  0.00    +0.000 C 
BRANCH  19  21
ATOM     20  C   UNL     1       3.449   7.470  17.601  0.00  0.00    +0.000 C 
ATOM     21  C   UNL     1       2.475   6.536  18.299  0.00  0.00    +0.000 C 
ENDBRANCH  19  21
ENDBRANCH  18  19
ENDBRANCH  17  18
ENDBRANCH  16  17
ENDBRANCH  15  16
ENDBRANCH  14  15
ENDBRANCH  13  14
ENDBRANCH  12  13
ENDBRANCH   1  12
TORSDOF 11
ENDMDL
MODEL 8
REMARK VINA RESULT:      -5.8      1.674      2.945
REMARK  Name = 
REMARK  13 active torsions:
REMARK  status: ('A' for Active; 'I' for Inactive)
REMARK    1  A    between atoms: C_1  and  C_2
REMARK    2  A    between atoms: C_2  and  C_3
REMARK    3  A    between atoms: C_3  and  C_4
REMARK    4  A    between atoms: C_4  and  C_5
REMARK    5  A    between atoms: C_5  and  C_6
REMARK    6  A    between atoms: C_6  and  C_7
REMARK    7  A    between atoms: C_7  and  C_8
REMARK    8  A    between atoms: C_8  and  C_9
REMARK    9  A    between atoms: C_9  and  C_10
REMARK   10  A    between atoms: C_10  and  C_11
REMARK   11  A    between atoms: C_11  and  C_12
REMARK   12  A    between atoms: C_17  and  C_18
REMARK   13  A    between atoms: C_19  and  O_20
REMARK                            x       y       z     vdW  Elec       q    Type
REMARK                         _______ _______ _______ _____ _____    ______ ____
ROOT
ATOM      1  C   UNL     1       3.507   1.925  18.673  0.00  0.00    +0.000 C 
ENDROOT
BRANCH   1   2
ATOM      2  C   UNL     1       4.494   2.980  19.072  0.00  0.00    +0.000 C 
ATOM      3  C   UNL     1       5.022   3.866  18.213  0.00  0.00    +0.000 C 
ATOM      4  C   UNL     1       5.909   4.954  18.653  0.00  0.00    +0.000 C 
ATOM      5  O   UNL     1       6.461   5.049  19.738  0.00  0.00    +0.000 OA
ATOM      6  O   UNL     1       6.031   5.839  17.630  0.00  0.00    +0.000 OA
ATOM      7  C   UNL     1       5.266   5.418  16.486  0.00  0.00    +0.000 C 
ATOM      8  C   UNL     1       6.158   5.577  15.266  0.00  0.00    +0.000 C 
ATOM      9  C   UNL     1       4.803   3.991  16.756  0.00  0.00    +0.000 C 
BRANCH   9  10
ATOM     10  O   UNL     1       5.552   2.999  16.062  0.00  0.00    +0.000 OA
ATOM     11  H   UNL     1       6.453   2.974  16.430  0.00  0.00    +0.000 HD
ENDBRANCH   9  10
ENDBRANCH   1   2
BRANCH   1  12
ATOM     12  C   UNL     1       2.330   1.867  19.634  0.00  0.00    +0.000 C 
BRANCH  12  13
ATOM     13  C   UNL     1       1.075   2.437  18.970  0.00  0.00    +0.000 C 
BRANCH  13  14
ATOM     14  C   UNL     1       1.212   3.918  18.629  0.00  0.00    +0.000 C 
BRANCH  14  15
ATOM     15  C   UNL     1       1.355   4.780  19.880  0.00  0.00    +0.000 C 
BRANCH  15  16
ATOM     16  C   UNL     1       2.426   5.845  19.702  0.00  0.00    +0.000 C 
BRANCH  16  17
ATOM     17  C   UNL     1       2.353   6.426  18.293  0.00  0.00    +0.000 C 
BRANCH  17  18
ATOM     18  C   UNL     1       3.113   7.744  18.217  0.00  0.00    +0.000 C 
BRANCH  18  19
ATOM     19  C   UNL     1       2.198   8.870  17.746  0.00  0.00    +0.000 C 
BRANCH  19  21
ATOM     20  C   UNL     1       0.010   9.915  18.391  0.00  0.00    +0.000 C 
ATOM     21  C   UNL     1       1.345   9.395  18.896  0.00  0.00    +0.000 C 
ENDBRANCH  19  21
ENDBRANCH  18  19
ENDBRANCH  17  18
ENDBRANCH  16  17
ENDBRANCH  15  16
ENDBRANCH  14  15
ENDBRANCH  13  14
ENDBRANCH  12  13
ENDBRANCH   1  12
TORSDOF 11
ENDMDL
MODEL 9
REMARK VINA RESULT:      -5.7      1.557      3.307
REMARK  Name = 
REMARK  13 active torsions:
REMARK  status: ('A' for Active; 'I' for Inactive)
REMARK    1  A    between atoms: C_1  and  C_2
REMARK    2  A    between atoms: C_2  and  C_3
REMARK    3  A    between atoms: C_3  and  C_4
REMARK    4  A    between atoms: C_4  and  C_5
REMARK    5  A    between atoms: C_5  and  C_6
REMARK    6  A    between atoms: C_6  and  C_7
REMARK    7  A    between atoms: C_7  and  C_8
REMARK    8  A    between atoms: C_8  and  C_9
REMARK    9  A    between atoms: C_9  and  C_10
REMARK   10  A    between atoms: C_10  and  C_11
REMARK   11  A    between atoms: C_11  and  C_12
REMARK   12  A    between atoms: C_17  and  C_18
REMARK   13  A    between atoms: C_19  and  O_20
REMARK                            x       y       z     vdW  Elec       q    Type
REMARK                         _______ _______ _______ _____ _____    ______ ____
ROOT
ATOM      1  C   UNL     1       5.619   3.400  19.246  0.00  0.00    +0.000 C 
ENDROOT
BRANCH   1   2
ATOM      2  C   UNL     1       5.416   4.747  18.623  0.00  0.00    +0.000 C 
ATOM      3  C   UNL     1       5.742   5.034  17.352  0.00  0.00    +0.000 C 
ATOM      4  C   UNL     1       5.436   6.335  16.738  0.00  0.00    +0.000 C 
ATOM      5  O   UNL     1       5.103   7.355  17.321  0.00  0.00    +0.000 OA
ATOM      6  O   UNL     1       5.607   6.219  15.396  0.00  0.00    +0.000 OA
ATOM      7  C   UNL     1       6.023   4.887  15.039  0.00  0.00    +0.000 C 
ATOM      8  C   UNL     1       7.177   5.024  14.059  0.00  0.00    +0.000 C 
ATOM      9  C   UNL     1       6.370   4.164  16.335  0.00  0.00    +0.000 C 
BRANCH   9  10
ATOM     10  O   UNL     1       7.768   4.055  16.581  0.00  0.00    +0.000 OA
ATOM     11  H   UNL     1       8.153   3.448  15.924  0.00  0.00    +0.000 HD
ENDBRANCH   9  10
ENDBRANCH   1   2
BRANCH   1  12
ATOM     12  C   UNL     1       4.295   2.733  19.584  0.00  0.00    +0.000 C 
BRANCH  12  13
ATOM     13  C   UNL     1       3.874   1.788  18.458  0.00  0.00    +0.000 C 
BRANCH  13  14
ATOM     14  C   UNL     1       2.496   2.123  17.893  0.00  0.00    +0.000 C 
BRANCH  14  15
ATOM     15  C   UNL     1       2.501   3.440  17.123  0.00  0.00    +0.000 C 
BRANCH  15  16
ATOM     16  C   UNL     1       1.499   4.426  17.700  0.00  0.00    +0.000 C 
BRANCH  16  17
ATOM     17  C   UNL     1       2.233   5.609  18.324  0.00  0.00    +0.000 C 
BRANCH  17  18
ATOM     18  C   UNL     1       1.710   5.884  19.729  0.00  0.00    +0.000 C 
BRANCH  18  19
ATOM     19  C   UNL     1       2.136   4.781  20.691  0.00  0.00    +0.000 C 
BRANCH  19  21
ATOM     20  C   UNL     1       1.484   2.594  21.736  0.00  0.00    +0.000 C 
ATOM     21  C   UNL     1       1.027   3.747  20.859  0.00  0.00    +0.000 C 
ENDBRANCH  19  21
ENDBRANCH  18  19
ENDBRANCH  17  18
ENDBRANCH  16  17
ENDBRANCH  15  16
ENDBRANCH  14  15
ENDBRANCH  13  14
ENDBRANCH  12  13
ENDBRANCH   1  12
TORSDOF 11
ENDMDL
