MODEL 1
REMARK VINA RESULT:      -9.0      0.000      0.000
REMARK  Name = 
REMARK  14 active torsions:
REMARK  status: ('A' for Active; 'I' for Inactive)
REMARK    1  A    between atoms: C_1  and  C_2
REMARK    2  A    between atoms: C_2  and  C_3
REMARK    3  A    between atoms: C_2  and  S_4
REMARK    4  A    between atoms: S_4  and  C_5
REMARK    5  A    between atoms: C_5  and  C_6
REMARK    6  A    between atoms: C_5  and  C_11
REMARK    7  A    between atoms: C_6  and  C_7
REMARK    8  A    between atoms: N_9  and  O_10
REMARK    9  A    between atoms: N_13  and  C_14
REMARK   10  A    between atoms: C_14  and  C_15
REMARK   11  A    between atoms: C_14  and  C_22
REMARK   12  A    between atoms: C_15  and  C_16
REMARK   13  A    between atoms: N_24  and  C_25
REMARK   14  A    between atoms: C_25  and  C_26
REMARK                            x       y       z     vdW  Elec       q    Type
REMARK                         _______ _______ _______ _____ _____    ______ ____
ROOT
ATOM      1  C   UNL     1       3.057   6.852  18.121  0.00  0.00    +0.000 C 
ENDROOT
BRANCH   1   4
ATOM      2  C   UNL     1       4.955   5.909  16.855  0.00  0.00    +0.000 C 
ATOM      3  O   UNL     1       4.368   4.827  16.755  0.00  0.00    +0.000 OA
ATOM      4  N   UNL     1       4.386   6.968  17.499  0.00  0.00    +0.000 N 
ATOM      5  H   UNL     1       4.780   7.904  17.407  0.00  0.00    +0.000 HD
BRANCH   2   6
ATOM      6  C   UNL     1       6.360   6.082  16.308  0.00  0.00    +0.000 C 
BRANCH   6   7
ATOM      7  S   UNL     1       6.854   4.529  15.453  0.00  0.00    +0.000 S 
BRANCH   7   9
ATOM      8  C   UNL     1       8.017   5.259  12.912  0.00  0.00    +0.000 C 
ATOM      9  C   UNL     1       6.731   4.874  13.641  0.00  0.00    +0.000 C 
ATOM     10  C   UNL     1       6.243   3.553  13.036  0.00  0.00    +0.000 C 
ENDBRANCH   7   9
ENDBRANCH   6   7
BRANCH   6  11
ATOM     11  C   UNL     1       7.258   6.575  17.454  0.00  0.00    +0.000 C 
BRANCH  11  12
ATOM     12  C   UNL     1       7.599   5.545  18.488  0.00  0.00    +0.000 C 
ATOM     13  O   UNL     1       7.639   4.331  18.281  0.00  0.00    +0.000 OA
ATOM     14  N   UNL     1       7.916   6.086  19.716  0.00  0.00    +0.000 N 
ATOM     15  H   UNL     1       8.121   7.061  19.885  0.00  0.00    +0.000 HD
BRANCH  14  16
ATOM     16  O   UNL     1       8.250   5.169  20.736  0.00  0.00    +0.000 OA
ATOM     17  H   UNL     1       8.009   5.664  21.549  0.00  0.00    +0.000 HD
ENDBRANCH  14  16
ENDBRANCH  11  12
ENDBRANCH   6  11
ENDBRANCH   2   6
ENDBRANCH   1   4
BRANCH   1  18
ATOM     18  C   UNL     1       2.326   8.211  18.043  0.00  0.00    +0.000 C 
ATOM     19  O   UNL     1       2.379   8.925  17.039  0.00  0.00    +0.000 OA
ATOM     20  N   UNL     1       1.589   8.546  19.160  0.00  0.00    +0.000 N 
ATOM     21  H   UNL     1       1.516   7.903  19.936  0.00  0.00    +0.000 HD
BRANCH  20  22
ATOM     22  C   UNL     1       0.872   9.798  19.262  0.00  0.00    +0.000 C 
BRANCH  22  23
ATOM     23  C   UNL     1       0.282   9.965  20.637  0.00  0.00    +0.000 A 
ATOM     24  C   UNL     1      -0.264  11.187  21.053  0.00  0.00    +0.000 A 
ATOM     25  C   UNL     1      -0.795  11.324  22.339  0.00  0.00    +0.000 A 
ATOM     26  C   UNL     1      -0.774  10.246  23.223  0.00  0.00    +0.000 A 
ATOM     27  C   UNL     1      -0.221   9.031  22.825  0.00  0.00    +0.000 A 
ATOM     28  C   UNL     1       0.305   8.891  21.539  0.00  0.00    +0.000 A 
ENDBRANCH  22  23
ENDBRANCH  20  22
ENDBRANCH   1  18
BRANCH   1  29
ATOM     29  C   UNL     1       3.091   6.313  19.577  0.00  0.00    +0.000 C 
BRANCH  29  30
ATOM     30  C   UNL     1       2.258   5.063  19.756  0.00  0.00    +0.000 A 
ATOM     31  C   UNL     1       2.149   4.471  21.019  0.00  0.00    +0.000 A 
ATOM     32  C   UNL     1       1.553   3.219  21.158  0.00  0.00    +0.000 A 
ATOM     33  C   UNL     1       1.049   2.557  20.039  0.00  0.00    +0.000 A 
ATOM     34  C   UNL     1       1.100   3.166  18.787  0.00  0.00    +0.000 A 
ATOM     35  C   UNL     1       1.687   4.420  18.650  0.00  0.00    +0.000 A 
ENDBRANCH  29  30
ENDBRANCH   1  29
TORSDOF 12
ENDMDL
MODEL 2
REMARK VINA RESULT:      -8.1      1.160      1.591
REMARK  Name = 
REMARK  14 active torsions:
REMARK  status: ('A' for Active; 'I' for Inactive)
REMARK    1  A    between atoms: C_1  and  C_2
REMARK    2  A    between atoms: C_2  and  C_3
REMARK    3  A    between atoms: C_2  and  S_4
REMARK    4  A    between atoms: S_4  and  C_5
REMARK    5  A    between atoms: C_5  and  C_6
REMARK    6  A    between atoms: C_5  and  C_11
REMARK    7  A    between atoms: C_6  and  C_7
REMARK    8  A    between atoms: N_9  and  O_10
REMARK    9  A    between atoms: N_13  and  C_14
REMARK   10  A    between atoms: C_14  and  C_15
REMARK   11  A    between atoms: C_14  and  C_22
REMARK   12  A    between atoms: C_15  and  C_16
REMARK   13  A    between atoms: N_24  and  C_25
REMARK   14  A    between atoms: C_25  and  C_26
REMARK                            x       y       z     vdW  Elec       q    Type
REMARK                         _______ _______ _______ _____ _____    ______ ____
ROOT
ATOM      1  C   UNL     1       2.398   6.722  18.750  0.00  0.00    +0.000 C 
ENDROOT
BRANCH   1   4
ATOM      2  C   UNL     1       4.066   5.306  17.608  0.00  0.00    +0.000 C 
ATOM      3  O   UNL     1       3.169   4.579  17.169  0.00  0.00    +0.000 OA
ATOM      4  N   UNL     1       3.784   6.390  18.386  0.00  0.00    +0.000 N 
ATOM      5  H   UNL     1       4.499   7.091  18.578  0.00  0.00    +0.000 HD
BRANCH   2   6
ATOM      6  C   UNL     1       5.525   4.984  17.341  0.00  0.00    +0.000 C 
BRANCH   6   7
ATOM      7  S   UNL     1       5.616   3.764  15.966  0.00  0.00    +0.000 S 
BRANCH   7   9
ATOM      8  C   UNL     1       7.435   5.168  14.215  0.00  0.00    +0.000 C 
ATOM      9  C   UNL     1       5.987   4.734  14.437  0.00  0.00    +0.000 C 
ATOM     10  C   UNL     1       5.614   3.790  13.288  0.00  0.00    +0.000 C 
ENDBRANCH   7   9
ENDBRANCH   6   7
BRANCH   6  11
ATOM     11  C   UNL     1       6.177   4.594  18.676  0.00  0.00    +0.000 C 
BRANCH  11  12
ATOM     12  C   UNL     1       7.197   5.562  19.197  0.00  0.00    +0.000 C 
ATOM     13  O   UNL     1       7.754   5.469  20.292  0.00  0.00    +0.000 OA
ATOM     14  N   UNL     1       7.502   6.568  18.306  0.00  0.00    +0.000 N 
ATOM     15  H   UNL     1       7.258   6.569  17.326  0.00  0.00    +0.000 HD
BRANCH  14  16
ATOM     16  O   UNL     1       8.459   7.513  18.734  0.00  0.00    +0.000 OA
ATOM     17  H   UNL     1       7.896   8.252  19.051  0.00  0.00    +0.000 HD
ENDBRANCH  14  16
ENDBRANCH  11  12
ENDBRANCH   6  11
ENDBRANCH   2   6
ENDBRANCH   1   4
BRANCH   1  18
ATOM     18  C   UNL     1       2.114   8.205  18.424  0.00  0.00    +0.000 C 
ATOM     19  O   UNL     1       2.461   8.716  17.356  0.00  0.00    +0.000 OA
ATOM     20  N   UNL     1       1.420   8.897  19.394  0.00  0.00    +0.000 N 
ATOM     21  H   UNL     1       1.095   8.425  20.225  0.00  0.00    +0.000 HD
BRANCH  20  22
ATOM     22  C   UNL     1       1.103  10.302  19.259  0.00  0.00    +0.000 C 
BRANCH  22  23
ATOM     23  C   UNL     1       0.222  10.761  20.389  0.00  0.00    +0.000 A 
ATOM     24  C   UNL     1       0.305  10.180  21.662  0.00  0.00    +0.000 A 
ATOM     25  C   UNL     1      -0.532  10.613  22.694  0.00  0.00    +0.000 A 
ATOM     26  C   UNL     1      -1.466  11.621  22.461  0.00  0.00    +0.000 A 
ATOM     27  C   UNL     1      -1.566  12.197  21.197  0.00  0.00    +0.000 A 
ATOM     28  C   UNL     1      -0.728  11.769  20.166  0.00  0.00    +0.000 A 
ENDBRANCH  22  23
ENDBRANCH  20  22
ENDBRANCH   1  18
BRANCH   1  29
ATOM     29  C   UNL     1       2.041   6.392  20.226  0.00  0.00    +0.000 C 
BRANCH  29  30
ATOM     30  C   UNL     1       1.770   4.920  20.445  0.00  0.00    +0.000 A 
ATOM     31  C   UNL     1       2.384   4.247  21.507  0.00  0.00    +0.000 A 
ATOM     32  C   UNL     1       2.300   2.859  21.601  0.00  0.00    +0.000 A 
ATOM     33  C   UNL     1       1.591   2.136  20.644  0.00  0.00    +0.000 A 
ATOM     34  C   UNL     1       0.927   2.802  19.617  0.00  0.00    +0.000 A 
ATOM     35  C   UNL     1       1.003   4.189  19.529  0.00  0.00    +0.000 A 
ENDBRANCH  29  30
ENDBRANCH   1  29
TORSDOF 12
ENDMDL
MODEL 3
REMARK VINA RESULT:      -8.1      1.240      1.574
REMARK  Name = 
REMARK  14 active torsions:
REMARK  status: ('A' for Active; 'I' for Inactive)
REMARK    1  A    between atoms: C_1  and  C_2
REMARK    2  A    between atoms: C_2  and  C_3
REMARK    3  A    between atoms: C_2  and  S_4
REMARK    4  A    between atoms: S_4  and  C_5
REMARK    5  A    between atoms: C_5  and  C_6
REMARK    6  A    between atoms: C_5  and  C_11
REMARK    7  A    between atoms: C_6  and  C_7
REMARK    8  A    between atoms: N_9  and  O_10
REMARK    9  A    between atoms: N_13  and  C_14
REMARK   10  A    between atoms: C_14  and  C_15
REMARK   11  A    between atoms: C_14  and  C_22
REMARK   12  A    between atoms: C_15  and  C_16
REMARK   13  A    between atoms: N_24  and  C_25
REMARK   14  A    between atoms: C_25  and  C_26
REMARK                            x       y       z     vdW  Elec       q    Type
REMARK                         _______ _______ _______ _____ _____    ______ ____
ROOT
ATOM      1  C   UNL     1       2.299   6.791  18.874  0.00  0.00    +0.000 C 
ENDROOT
BRANCH   1   4
ATOM      2  C   UNL     1       3.921   5.306  17.754  0.00  0.00    +0.000 C 
ATOM      3  O   UNL     1       3.001   4.605  17.319  0.00  0.00    +0.000 OA
ATOM      4  N   UNL     1       3.674   6.407  18.518  0.00  0.00    +0.000 N 
ATOM      5  H   UNL     1       4.412   7.086  18.705  0.00  0.00    +0.000 HD
BRANCH   2   6
ATOM      6  C   UNL     1       5.369   4.930  17.496  0.00  0.00    +0.000 C 
BRANCH   6   7
ATOM      7  S   UNL     1       5.418   3.642  16.181  0.00  0.00    +0.000 S 
BRANCH   7   9
ATOM      8  C   UNL     1       6.238   3.860  13.420  0.00  0.00    +0.000 C 
ATOM      9  C   UNL     1       6.526   4.298  14.855  0.00  0.00    +0.000 C 
ATOM     10  C   UNL     1       6.332   5.817  14.916  0.00  0.00    +0.000 C 
ENDBRANCH   7   9
ENDBRANCH   6   7
BRANCH   6  11
ATOM     11  C   UNL     1       6.019   4.588  18.845  0.00  0.00    +0.000 C 
BRANCH  11  12
ATOM     12  C   UNL     1       7.111   5.517  19.284  0.00  0.00    +0.000 C 
ATOM     13  O   UNL     1       7.723   5.424  20.348  0.00  0.00    +0.000 OA
ATOM     14  N   UNL     1       7.413   6.486  18.351  0.00  0.00    +0.000 N 
ATOM     15  H   UNL     1       7.114   6.476  17.386  0.00  0.00    +0.000 HD
BRANCH  14  16
ATOM     16  O   UNL     1       8.436   7.393  18.701  0.00  0.00    +0.000 OA
ATOM     17  H   UNL     1       8.223   8.173  18.143  0.00  0.00    +0.000 HD
ENDBRANCH  14  16
ENDBRANCH  11  12
ENDBRANCH   6  11
ENDBRANCH   2   6
ENDBRANCH   1   4
BRANCH   1  18
ATOM     18  C   UNL     1       2.077   8.287  18.559  0.00  0.00    +0.000 C 
ATOM     19  O   UNL     1       2.512   8.809  17.530  0.00  0.00    +0.000 OA
ATOM     20  N   UNL     1       1.335   8.979  19.492  0.00  0.00    +0.000 N 
ATOM     21  H   UNL     1       0.939   8.500  20.289  0.00  0.00    +0.000 HD
BRANCH  20  22
ATOM     22  C   UNL     1       1.064  10.395  19.365  0.00  0.00    +0.000 C 
BRANCH  22  23
ATOM     23  C   UNL     1       0.312  10.905  20.565  0.00  0.00    +0.000 A 
ATOM     24  C   UNL     1      -0.032  12.258  20.689  0.00  0.00    +0.000 A 
ATOM     25  C   UNL     1      -0.719  12.713  21.818  0.00  0.00    +0.000 A 
ATOM     26  C   UNL     1      -1.057  11.824  22.837  0.00  0.00    +0.000 A 
ATOM     27  C   UNL     1      -0.709  10.480  22.730  0.00  0.00    +0.000 A 
ATOM     28  C   UNL     1      -0.027  10.022  21.601  0.00  0.00    +0.000 A 
ENDBRANCH  22  23
ENDBRANCH  20  22
ENDBRANCH   1  18
BRANCH   1  29
ATOM     29  C   UNL     1       1.916   6.461  20.343  0.00  0.00    +0.000 C 
BRANCH  29  30
ATOM     30  C   UNL     1       1.717   4.980  20.575  0.00  0.00    +0.000 A 
ATOM     31  C   UNL     1       2.516   4.305  21.504  0.00  0.00    +0.000 A 
ATOM     32  C   UNL     1       2.478   2.914  21.583  0.00  0.00    +0.000 A 
ATOM     33  C   UNL     1       1.632   2.189  20.745  0.00  0.00    +0.000 A 
ATOM     34  C   UNL     1       0.789   2.857  19.860  0.00  0.00    +0.000 A 
ATOM     35  C   UNL     1       0.820   4.246  19.788  0.00  0.00    +0.000 A 
ENDBRANCH  29  30
ENDBRANCH   1  29
TORSDOF 12
ENDMDL
MODEL 4
REMARK VINA RESULT:      -8.0      2.648      7.685
REMARK  Name = 
REMARK  14 active torsions:
REMARK  status: ('A' for Active; 'I' for Inactive)
REMARK    1  A    between atoms: C_1  and  C_2
REMARK    2  A    between atoms: C_2  and  C_3
REMARK    3  A    between atoms: C_2  and  S_4
REMARK    4  A    between atoms: S_4  and  C_5
REMARK    5  A    between atoms: C_5  and  C_6
REMARK    6  A    between atoms: C_5  and  C_11
REMARK    7  A    between atoms: C_6  and  C_7
REMARK    8  A    between atoms: N_9  and  O_10
REMARK    9  A    between atoms: N_13  and  C_14
REMARK   10  A    between atoms: C_14  and  C_15
REMARK   11  A    between atoms: C_14  and  C_22
REMARK   12  A    between atoms: C_15  and  C_16
REMARK   13  A    between atoms: N_24  and  C_25
REMARK   14  A    between atoms: C_25  and  C_26
REMARK                            x       y       z     vdW  Elec       q    Type
REMARK                         _______ _______ _______ _____ _____    ______ ____
ROOT
ATOM      1  C   UNL     1       3.692   5.875  17.425  0.00  0.00    +0.000 C 
ENDROOT
BRANCH   1   4
ATOM      2  C   UNL     1       2.488   3.725  17.553  0.00  0.00    +0.000 C 
ATOM      3  O   UNL     1       1.435   4.278  17.218  0.00  0.00    +0.000 OA
ATOM      4  N   UNL     1       3.651   4.425  17.671  0.00  0.00    +0.000 N 
ATOM      5  H   UNL     1       4.544   3.939  17.751  0.00  0.00    +0.000 HD
BRANCH   2   6
ATOM      6  C   UNL     1       2.509   2.247  17.900  0.00  0.00    +0.000 C 
BRANCH   6   7
ATOM      7  S   UNL     1       1.424   1.969  19.360  0.00  0.00    +0.000 S 
BRANCH   7   9
ATOM      8  C   UNL     1       0.869   4.522  20.593  0.00  0.00    +0.000 C 
ATOM      9  C   UNL     1       1.813   3.321  20.559  0.00  0.00    +0.000 C 
ATOM     10  C   UNL     1       1.738   2.644  21.932  0.00  0.00    +0.000 C 
ENDBRANCH   7   9
ENDBRANCH   6   7
BRANCH   6  11
ATOM     11  C   UNL     1       3.977   1.809  18.016  0.00  0.00    +0.000 C 
BRANCH  11  12
ATOM     12  C   UNL     1       4.641   2.135  19.321  0.00  0.00    +0.000 C 
ATOM     13  O   UNL     1       4.888   3.275  19.714  0.00  0.00    +0.000 OA
ATOM     14  N   UNL     1       4.920   1.023  20.086  0.00  0.00    +0.000 N 
ATOM     15  H   UNL     1       4.542   0.099  19.927  0.00  0.00    +0.000 HD
BRANCH  14  16
ATOM     16  O   UNL     1       5.543   1.260  21.330  0.00  0.00    +0.000 OA
ATOM     17  H   UNL     1       4.958   0.777  21.953  0.00  0.00    +0.000 HD
ENDBRANCH  14  16
ENDBRANCH  11  12
ENDBRANCH   6  11
ENDBRANCH   2   6
ENDBRANCH   1   4
BRANCH   1  18
ATOM     18  C   UNL     1       4.885   6.214  16.504  0.00  0.00    +0.000 C 
ATOM     19  O   UNL     1       4.925   7.255  15.844  0.00  0.00    +0.000 OA
ATOM     20  N   UNL     1       5.906   5.288  16.502  0.00  0.00    +0.000 N 
ATOM     21  H   UNL     1       5.865   4.480  17.107  0.00  0.00    +0.000 HD
BRANCH  20  22
ATOM     22  C   UNL     1       7.080   5.438  15.670  0.00  0.00    +0.000 C 
BRANCH  22  23
ATOM     23  C   UNL     1       6.863   4.805  14.321  0.00  0.00    +0.000 A 
ATOM     24  C   UNL     1       7.658   5.148  13.218  0.00  0.00    +0.000 A 
ATOM     25  C   UNL     1       7.431   4.558  11.972  0.00  0.00    +0.000 A 
ATOM     26  C   UNL     1       6.403   3.630  11.814  0.00  0.00    +0.000 A 
ATOM     27  C   UNL     1       5.599   3.292  12.900  0.00  0.00    +0.000 A 
ATOM     28  C   UNL     1       5.826   3.876  14.147  0.00  0.00    +0.000 A 
ENDBRANCH  22  23
ENDBRANCH  20  22
ENDBRANCH   1  18
BRANCH   1  29
ATOM     29  C   UNL     1       3.720   6.731  18.722  0.00  0.00    +0.000 C 
BRANCH  29  30
ATOM     30  C   UNL     1       2.542   7.674  18.824  0.00  0.00    +0.000 A 
ATOM     31  C   UNL     1       2.143   8.416  17.707  0.00  0.00    +0.000 A 
ATOM     32  C   UNL     1       1.193   9.427  17.839  0.00  0.00    +0.000 A 
ATOM     33  C   UNL     1       0.626   9.695  19.084  0.00  0.00    +0.000 A 
ATOM     34  C   UNL     1       0.974   8.922  20.189  0.00  0.00    +0.000 A 
ATOM     35  C   UNL     1       1.916   7.905  20.055  0.00  0.00    +0.000 A 
ENDBRANCH  29  30
ENDBRANCH   1  29
TORSDOF 12
ENDMDL
MODEL 5
REMARK VINA RESULT:      -7.9      1.316      1.423
REMARK  Name = 
REMARK  14 active torsions:
REMARK  status: ('A' for Active; 'I' for Inactive)
REMARK    1  A    between atoms: C_1  and  C_2
REMARK    2  A    between atoms: C_2  and  C_3
REMARK    3  A    between atoms: C_2  and  S_4
REMARK    4  A    between atoms: S_4  and  C_5
REMARK    5  A    between atoms: C_5  and  C_6
REMARK    6  A    between atoms: C_5  and  C_11
REMARK    7  A    between atoms: C_6  and  C_7
REMARK    8  A    between atoms: N_9  and  O_10
REMARK    9  A    between atoms: N_13  and  C_14
REMARK   10  A    between atoms: C_14  and  C_15
REMARK   11  A    between atoms: C_14  and  C_22
REMARK   12  A    between atoms: C_15  and  C_16
REMARK   13  A    between atoms: N_24  and  C_25
REMARK   14  A    between atoms: C_25  and  C_26
REMARK                            x       y       z     vdW  Elec       q    Type
REMARK                         _______ _______ _______ _____ _____    ______ ____
ROOT
ATOM      1  C   UNL     1       3.264   6.439  18.190  0.00  0.00    +0.000 C 
ENDROOT
BRANCH   1   4
ATOM      2  C   UNL     1       4.782   5.203  16.687  0.00  0.00    +0.000 C 
ATOM      3  O   UNL     1       4.023   4.228  16.699  0.00  0.00    +0.000 OA
ATOM      4  N   UNL     1       4.489   6.339  17.381  0.00  0.00    +0.000 N 
ATOM      5  H   UNL     1       5.009   7.199  17.211  0.00  0.00    +0.000 HD
BRANCH   2   6
ATOM      6  C   UNL     1       6.102   5.148  15.940  0.00  0.00    +0.000 C 
BRANCH   6   7
ATOM      7  S   UNL     1       6.000   3.827  14.661  0.00  0.00    +0.000 S 
BRANCH   7   9
ATOM      8  C   UNL     1       7.976   5.194  13.058  0.00  0.00    +0.000 C 
ATOM      9  C   UNL     1       6.572   4.594  13.079  0.00  0.00    +0.000 C 
ATOM     10  C   UNL     1       6.554   3.440  12.070  0.00  0.00    +0.000 C 
ENDBRANCH   7   9
ENDBRANCH   6   7
BRANCH   6  11
ATOM     11  C   UNL     1       7.231   5.041  16.977  0.00  0.00    +0.000 C 
BRANCH  11  12
ATOM     12  C   UNL     1       7.497   6.289  17.764  0.00  0.00    +0.000 C 
ATOM     13  O   UNL     1       7.515   6.350  18.994  0.00  0.00    +0.000 OA
ATOM     14  N   UNL     1       7.774   7.385  16.975  0.00  0.00    +0.000 N 
ATOM     15  H   UNL     1       7.997   7.350  15.990  0.00  0.00    +0.000 HD
BRANCH  14  16
ATOM     16  O   UNL     1       8.037   8.594  17.654  0.00  0.00    +0.000 OA
ATOM     17  H   UNL     1       7.134   8.935  17.831  0.00  0.00    +0.000 HD
ENDBRANCH  14  16
ENDBRANCH  11  12
ENDBRANCH   6  11
ENDBRANCH   2   6
ENDBRANCH   1   4
BRANCH   1  18
ATOM     18  C   UNL     1       2.656   7.852  18.044  0.00  0.00    +0.000 C 
ATOM     19  O   UNL     1       2.863   8.551  17.050  0.00  0.00    +0.000 OA
ATOM     20  N   UNL     1       1.848   8.254  19.086  0.00  0.00    +0.000 N 
ATOM     21  H   UNL     1       1.650   7.625  19.852  0.00  0.00    +0.000 HD
BRANCH  20  22
ATOM     22  C   UNL     1       1.229   9.561  19.121  0.00  0.00    +0.000 C 
BRANCH  22  23
ATOM     23  C   UNL     1       0.581   9.810  20.456  0.00  0.00    +0.000 A 
ATOM     24  C   UNL     1      -0.285  10.894  20.657  0.00  0.00    +0.000 A 
ATOM     25  C   UNL     1      -0.865  11.114  21.909  0.00  0.00    +0.000 A 
ATOM     26  C   UNL     1      -0.577  10.262  22.973  0.00  0.00    +0.000 A 
ATOM     27  C   UNL     1       0.292   9.189  22.789  0.00  0.00    +0.000 A 
ATOM     28  C   UNL     1       0.869   8.964  21.538  0.00  0.00    +0.000 A 
ENDBRANCH  22  23
ENDBRANCH  20  22
ENDBRANCH   1  18
BRANCH   1  29
ATOM     29  C   UNL     1       3.467   6.064  19.684  0.00  0.00    +0.000 C 
BRANCH  29  30
ATOM     30  C   UNL     1       2.820   4.746  20.048  0.00  0.00    +0.000 A 
ATOM     31  C   UNL     1       3.531   3.551  19.888  0.00  0.00    +0.000 A 
ATOM     32  C   UNL     1       2.884   2.326  20.030  0.00  0.00    +0.000 A 
ATOM     33  C   UNL     1       1.527   2.284  20.345  0.00  0.00    +0.000 A 
ATOM     34  C   UNL     1       0.826   3.467  20.564  0.00  0.00    +0.000 A 
ATOM     35  C   UNL     1       1.474   4.691  20.432  0.00  0.00    +0.000 A 
ENDBRANCH  29  30
ENDBRANCH   1  29
TORSDOF 12
ENDMDL
MODEL 6
REMARK VINA RESULT:      -7.9      1.120      1.615
REMARK  Name = 
REMARK  14 active torsions:
REMARK  status: ('A' for Active; 'I' for Inactive)
REMARK    1  A    between atoms: C_1  and  C_2
REMARK    2  A    between atoms: C_2  and  C_3
REMARK    3  A    between atoms: C_2  and  S_4
REMARK    4  A    between atoms: S_4  and  C_5
REMARK    5  A    between atoms: C_5  and  C_6
REMARK    6  A    between atoms: C_5  and  C_11
REMARK    7  A    between atoms: C_6  and  C_7
REMARK    8  A    between atoms: N_9  and  O_10
REMARK    9  A    between atoms: N_13  and  C_14
REMARK   10  A    between atoms: C_14  and  C_15
REMARK   11  A    between atoms: C_14  and  C_22
REMARK   12  A    between atoms: C_15  and  C_16
REMARK   13  A    between atoms: N_24  and  C_25
REMARK   14  A    between atoms: C_25  and  C_26
REMARK                            x       y       z     vdW  Elec       q    Type
REMARK                         _______ _______ _______ _____ _____    ______ ____
ROOT
ATOM      1  C   UNL     1       2.555   6.758  18.503  0.00  0.00    +0.000 C 
ENDROOT
BRANCH   1   4
ATOM      2  C   UNL     1       4.253   5.311  17.448  0.00  0.00    +0.000 C 
ATOM      3  O   UNL     1       3.369   4.570  17.008  0.00  0.00    +0.000 OA
ATOM      4  N   UNL     1       3.951   6.418  18.184  0.00  0.00    +0.000 N 
ATOM      5  H   UNL     1       4.660   7.126  18.372  0.00  0.00    +0.000 HD
BRANCH   2   6
ATOM      6  C   UNL     1       5.719   4.984  17.227  0.00  0.00    +0.000 C 
BRANCH   6   7
ATOM      7  S   UNL     1       5.849   3.761  15.857  0.00  0.00    +0.000 S 
BRANCH   7   9
ATOM      8  C   UNL     1       7.510   5.192  13.976  0.00  0.00    +0.000 C 
ATOM      9  C   UNL     1       6.088   4.742  14.309  0.00  0.00    +0.000 C 
ATOM     10  C   UNL     1       5.635   3.799  13.188  0.00  0.00    +0.000 C 
ENDBRANCH   7   9
ENDBRANCH   6   7
BRANCH   6  11
ATOM     11  C   UNL     1       6.327   4.593  18.583  0.00  0.00    +0.000 C 
BRANCH  11  12
ATOM     12  C   UNL     1       7.276   5.594  19.171  0.00  0.00    +0.000 C 
ATOM     13  O   UNL     1       7.742   5.532  20.309  0.00  0.00    +0.000 OA
ATOM     14  N   UNL     1       7.630   6.595  18.291  0.00  0.00    +0.000 N 
ATOM     15  H   UNL     1       7.468   6.576  17.294  0.00  0.00    +0.000 HD
BRANCH  14  16
ATOM     16  O   UNL     1       8.525   7.570  18.782  0.00  0.00    +0.000 OA
ATOM     17  H   UNL     1       8.786   7.196  19.651  0.00  0.00    +0.000 HD
ENDBRANCH  14  16
ENDBRANCH  11  12
ENDBRANCH   6  11
ENDBRANCH   2   6
ENDBRANCH   1   4
BRANCH   1  18
ATOM     18  C   UNL     1       2.279   8.231  18.125  0.00  0.00    +0.000 C 
ATOM     19  O   UNL     1       2.897   8.800  17.223  0.00  0.00    +0.000 OA
ATOM     20  N   UNL     1       1.274   8.842  18.844  0.00  0.00    +0.000 N 
ATOM     21  H   UNL     1       0.745   8.321  19.529  0.00  0.00    +0.000 HD
BRANCH  20  22
ATOM     22  C   UNL     1       0.912  10.228  18.636  0.00  0.00    +0.000 C 
BRANCH  22  23
ATOM     23  C   UNL     1       0.125  10.755  19.806  0.00  0.00    +0.000 A 
ATOM     24  C   UNL     1      -0.906  11.688  19.630  0.00  0.00    +0.000 A 
ATOM     25  C   UNL     1      -1.616  12.175  20.731  0.00  0.00    +0.000 A 
ATOM     26  C   UNL     1      -1.294  11.744  22.017  0.00  0.00    +0.000 A 
ATOM     27  C   UNL     1      -0.263  10.827  22.205  0.00  0.00    +0.000 A 
ATOM     28  C   UNL     1       0.444  10.336  21.106  0.00  0.00    +0.000 A 
ENDBRANCH  22  23
ENDBRANCH  20  22
ENDBRANCH   1  18
BRANCH   1  29
ATOM     29  C   UNL     1       2.162   6.473  19.979  0.00  0.00    +0.000 C 
BRANCH  29  30
ATOM     30  C   UNL     1       1.971   4.998  20.256  0.00  0.00    +0.000 A 
ATOM     31  C   UNL     1       1.207   4.216  19.382  0.00  0.00    +0.000 A 
ATOM     32  C   UNL     1       0.861   2.912  19.728  0.00  0.00    +0.000 A 
ATOM     33  C   UNL     1       1.286   2.374  20.942  0.00  0.00    +0.000 A 
ATOM     34  C   UNL     1       2.095   3.125  21.791  0.00  0.00    +0.000 A 
ATOM     35  C   UNL     1       2.449   4.425  21.441  0.00  0.00    +0.000 A 
ENDBRANCH  29  30
ENDBRANCH   1  29
TORSDOF 12
ENDMDL
MODEL 7
REMARK VINA RESULT:      -7.9      1.790      3.083
REMARK  Name = 
REMARK  14 active torsions:
REMARK  status: ('A' for Active; 'I' for Inactive)
REMARK    1  A    between atoms: C_1  and  C_2
REMARK    2  A    between atoms: C_2  and  C_3
REMARK    3  A    between atoms: C_2  and  S_4
REMARK    4  A    between atoms: S_4  and  C_5
REMARK    5  A    between atoms: C_5  and  C_6
REMARK    6  A    between atoms: C_5  and  C_11
REMARK    7  A    between atoms: C_6  and  C_7
REMARK    8  A    between atoms: N_9  and  O_10
REMARK    9  A    between atoms: N_13  and  C_14
REMARK   10  A    between atoms: C_14  and  C_15
REMARK   11  A    between atoms: C_14  and  C_22
REMARK   12  A    between atoms: C_15  and  C_16
REMARK   13  A    between atoms: N_24  and  C_25
REMARK   14  A    between atoms: C_25  and  C_26
REMARK                            x       y       z     vdW  Elec       q    Type
REMARK                         _______ _______ _______ _____ _____    ______ ____
ROOT
ATOM      1  C   UNL     1       2.703   6.617  18.561  0.00  0.00    +0.000 C 
ENDROOT
BRANCH   1   4
ATOM      2  C   UNL     1       4.735   5.613  17.585  0.00  0.00    +0.000 C 
ATOM      3  O   UNL     1       4.066   4.693  17.103  0.00  0.00    +0.000 OA
ATOM      4  N   UNL     1       4.152   6.610  18.308  0.00  0.00    +0.000 N 
ATOM      5  H   UNL     1       4.670   7.461  18.531  0.00  0.00    +0.000 HD
BRANCH   2   6
ATOM      6  C   UNL     1       6.245   5.634  17.435  0.00  0.00    +0.000 C 
BRANCH   6   7
ATOM      7  S   UNL     1       6.741   7.244  16.691  0.00  0.00    +0.000 S 
BRANCH   7   9
ATOM      8  C   UNL     1       8.232   9.275  18.104  0.00  0.00    +0.000 C 
ATOM      9  C   UNL     1       8.218   7.819  17.641  0.00  0.00    +0.000 C 
ATOM     10  C   UNL     1       8.226   6.943  18.899  0.00  0.00    +0.000 C 
ENDBRANCH   7   9
ENDBRANCH   6   7
BRANCH   6  11
ATOM     11  C   UNL     1       6.667   4.355  16.695  0.00  0.00    +0.000 C 
BRANCH  11  12
ATOM     12  C   UNL     1       6.840   4.501  15.213  0.00  0.00    +0.000 C 
ATOM     13  O   UNL     1       7.649   5.257  14.674  0.00  0.00    +0.000 OA
ATOM     14  N   UNL     1       6.028   3.660  14.481  0.00  0.00    +0.000 N 
ATOM     15  H   UNL     1       5.522   2.871  14.856  0.00  0.00    +0.000 HD
BRANCH  14  16
ATOM     16  O   UNL     1       6.144   3.745  13.077  0.00  0.00    +0.000 OA
ATOM     17  H   UNL     1       7.017   4.180  12.965  0.00  0.00    +0.000 HD
ENDBRANCH  14  16
ENDBRANCH  11  12
ENDBRANCH   6  11
ENDBRANCH   2   6
ENDBRANCH   1   4
BRANCH   1  18
ATOM     18  C   UNL     1       2.143   8.042  18.349  0.00  0.00    +0.000 C 
ATOM     19  O   UNL     1       2.312   8.659  17.295  0.00  0.00    +0.000 OA
ATOM     20  N   UNL     1       1.420   8.551  19.407  0.00  0.00    +0.000 N 
ATOM     21  H   UNL     1       1.247   7.987  20.227  0.00  0.00    +0.000 HD
BRANCH  20  22
ATOM     22  C   UNL     1       0.856   9.883  19.384  0.00  0.00    +0.000 C 
BRANCH  22  23
ATOM     23  C   UNL     1       0.188  10.203  20.694  0.00  0.00    +0.000 A 
ATOM     24  C   UNL     1       0.190   9.288  21.757  0.00  0.00    +0.000 A 
ATOM     25  C   UNL     1      -0.448   9.601  22.961  0.00  0.00    +0.000 A 
ATOM     26  C   UNL     1      -1.102  10.822  23.110  0.00  0.00    +0.000 A 
ATOM     27  C   UNL     1      -1.121  11.734  22.056  0.00  0.00    +0.000 A 
ATOM     28  C   UNL     1      -0.481  11.426  20.854  0.00  0.00    +0.000 A 
ENDBRANCH  22  23
ENDBRANCH  20  22
ENDBRANCH   1  18
BRANCH   1  29
ATOM     29  C   UNL     1       2.307   6.058  19.955  0.00  0.00    +0.000 C 
BRANCH  29  30
ATOM     30  C   UNL     1       1.780   4.641  19.886  0.00  0.00    +0.000 A 
ATOM     31  C   UNL     1       1.766   3.844  21.037  0.00  0.00    +0.000 A 
ATOM     32  C   UNL     1       1.471   2.486  20.946  0.00  0.00    +0.000 A 
ATOM     33  C   UNL     1       1.175   1.916  19.708  0.00  0.00    +0.000 A 
ATOM     34  C   UNL     1       1.128   2.714  18.567  0.00  0.00    +0.000 A 
ATOM     35  C   UNL     1       1.413   4.073  18.660  0.00  0.00    +0.000 A 
ENDBRANCH  29  30
ENDBRANCH   1  29
TORSDOF 12
ENDMDL
MODEL 8
REMARK VINA RESULT:      -7.7      1.230      1.890
REMARK  Name = 
REMARK  14 active torsions:
REMARK  status: ('A' for Active; 'I' for Inactive)
REMARK    1  A    between atoms: C_1  and  C_2
REMARK    2  A    between atoms: C_2  and  C_3
REMARK    3  A    between atoms: C_2  and  S_4
REMARK    4  A    between atoms: S_4  and  C_5
REMARK    5  A    between atoms: C_5  and  C_6
REMARK    6  A    between atoms: C_5  and  C_11
REMARK    7  A    between atoms: C_6  and  C_7
REMARK    8  A    between atoms: N_9  and  O_10
REMARK    9  A    between atoms: N_13  and  C_14
REMARK   10  A    between atoms: C_14  and  C_15
REMARK   11  A    between atoms: C_14  and  C_22
REMARK   12  A    between atoms: C_15  and  C_16
REMARK   13  A    between atoms: N_24  and  C_25
REMARK   14  A    between atoms: C_25  and  C_26
REMARK                            x       y       z     vdW  Elec       q    Type
REMARK                         _______ _______ _______ _____ _____    ______ ____
ROOT
ATOM      1  C   UNL     1       2.755   6.815  18.414  0.00  0.00    +0.000 C 
ENDROOT
BRANCH   1   4
ATOM      2  C   UNL     1       4.351   5.659  16.928  0.00  0.00    +0.000 C 
ATOM      3  O   UNL     1       3.584   4.695  16.832  0.00  0.00    +0.000 OA
ATOM      4  N   UNL     1       4.026   6.752  17.675  0.00  0.00    +0.000 N 
ATOM      5  H   UNL     1       4.562   7.615  17.592  0.00  0.00    +0.000 HD
BRANCH   2   6
ATOM      6  C   UNL     1       5.712   5.635  16.258  0.00  0.00    +0.000 C 
BRANCH   6   7
ATOM      7  S   UNL     1       5.470   5.537  14.436  0.00  0.00    +0.000 S 
BRANCH   7   9
ATOM      8  C   UNL     1       6.260   3.496  12.551  0.00  0.00    +0.000 C 
ATOM      9  C   UNL     1       6.642   4.243  13.827  0.00  0.00    +0.000 C 
ATOM     10  C   UNL     1       7.936   5.011  13.535  0.00  0.00    +0.000 C 
ENDBRANCH   7   9
ENDBRANCH   6   7
BRANCH   6  11
ATOM     11  C   UNL     1       6.548   4.529  16.920  0.00  0.00    +0.000 C 
BRANCH  11  12
ATOM     12  C   UNL     1       6.231   4.263  18.361  0.00  0.00    +0.000 C 
ATOM     13  O   UNL     1       6.639   4.942  19.304  0.00  0.00    +0.000 OA
ATOM     14  N   UNL     1       5.385   3.191  18.546  0.00  0.00    +0.000 N 
ATOM     15  H   UNL     1       4.843   2.746  17.818  0.00  0.00    +0.000 HD
BRANCH  14  16
ATOM     16  O   UNL     1       5.043   2.887  19.882  0.00  0.00    +0.000 OA
ATOM     17  H   UNL     1       4.124   2.554  19.792  0.00  0.00    +0.000 HD
ENDBRANCH  14  16
ENDBRANCH  11  12
ENDBRANCH   6  11
ENDBRANCH   2   6
ENDBRANCH   1   4
BRANCH   1  18
ATOM     18  C   UNL     1       2.154   8.234  18.297  0.00  0.00    +0.000 C 
ATOM     19  O   UNL     1       2.283   8.915  17.278  0.00  0.00    +0.000 OA
ATOM     20  N   UNL     1       1.440   8.661  19.397  0.00  0.00    +0.000 N 
ATOM     21  H   UNL     1       1.300   8.046  20.186  0.00  0.00    +0.000 HD
BRANCH  20  22
ATOM     22  C   UNL     1       0.840   9.976  19.462  0.00  0.00    +0.000 C 
BRANCH  22  23
ATOM     23  C   UNL     1       0.186  10.199  20.799  0.00  0.00    +0.000 A 
ATOM     24  C   UNL     1       0.118   9.178  21.757  0.00  0.00    +0.000 A 
ATOM     25  C   UNL     1      -0.505   9.402  22.988  0.00  0.00    +0.000 A 
ATOM     26  C   UNL     1      -1.076  10.643  23.267  0.00  0.00    +0.000 A 
ATOM     27  C   UNL     1      -1.026  11.661  22.317  0.00  0.00    +0.000 A 
ATOM     28  C   UNL     1      -0.399  11.440  21.089  0.00  0.00    +0.000 A 
ENDBRANCH  22  23
ENDBRANCH  20  22
ENDBRANCH   1  18
BRANCH   1  29
ATOM     29  C   UNL     1       2.872   6.374  19.899  0.00  0.00    +0.000 C 
BRANCH  29  30
ATOM     30  C   UNL     1       2.344   4.976  20.135  0.00  0.00    +0.000 A 
ATOM     31  C   UNL     1       1.573   4.345  19.152  0.00  0.00    +0.000 A 
ATOM     32  C   UNL     1       0.919   3.148  19.434  0.00  0.00    +0.000 A 
ATOM     33  C   UNL     1       1.042   2.564  20.694  0.00  0.00    +0.000 A 
ATOM     34  C   UNL     1       1.856   3.154  21.659  0.00  0.00    +0.000 A 
ATOM     35  C   UNL     1       2.516   4.346  21.374  0.00  0.00    +0.000 A 
ENDBRANCH  29  30
ENDBRANCH   1  29
TORSDOF 12
ENDMDL
MODEL 9
REMARK VINA RESULT:      -7.7      1.968      3.255
REMARK  Name = 
REMARK  14 active torsions:
REMARK  status: ('A' for Active; 'I' for Inactive)
REMARK    1  A    between atoms: C_1  and  C_2
REMARK    2  A    between atoms: C_2  and  C_3
REMARK    3  A    between atoms: C_2  and  S_4
REMARK    4  A    between atoms: S_4  and  C_5
REMARK    5  A    between atoms: C_5  and  C_6
REMARK    6  A    between atoms: C_5  and  C_11
REMARK    7  A    between atoms: C_6  and  C_7
REMARK    8  A    between atoms: N_9  and  O_10
REMARK    9  A    between atoms: N_13  and  C_14
REMARK   10  A    between atoms: C_14  and  C_15
REMARK   11  A    between atoms: C_14  and  C_22
REMARK   12  A    between atoms: C_15  and  C_16
REMARK   13  A    between atoms: N_24  and  C_25
REMARK   14  A    between atoms: C_25  and  C_26
REMARK                            x       y       z     vdW  Elec       q    Type
REMARK                         _______ _______ _______ _____ _____    ______ ____
ROOT
ATOM      1  C   UNL     1       2.332   6.773  18.675  0.00  0.00    +0.000 C 
ENDROOT
BRANCH   1   4
ATOM      2  C   UNL     1       3.780   5.230  17.405  0.00  0.00    +0.000 C 
ATOM      3  O   UNL     1       2.823   4.475  17.204  0.00  0.00    +0.000 OA
ATOM      4  N   UNL     1       3.634   6.388  18.109  0.00  0.00    +0.000 N 
ATOM      5  H   UNL     1       4.369   7.096  18.101  0.00  0.00    +0.000 HD
BRANCH   2   6
ATOM      6  C   UNL     1       5.171   4.864  16.920  0.00  0.00    +0.000 C 
BRANCH   6   7
ATOM      7  S   UNL     1       6.349   5.038  18.323  0.00  0.00    +0.000 S 
BRANCH   7   9
ATOM      8  C   UNL     1       6.895   7.739  17.456  0.00  0.00    +0.000 C 
ATOM      9  C   UNL     1       7.510   6.400  17.858  0.00  0.00    +0.000 C 
ATOM     10  C   UNL     1       8.338   6.641  19.125  0.00  0.00    +0.000 C 
ENDBRANCH   7   9
ENDBRANCH   6   7
BRANCH   6  11
ATOM     11  C   UNL     1       5.460   5.678  15.649  0.00  0.00    +0.000 C 
BRANCH  11  12
ATOM     12  C   UNL     1       6.326   4.994  14.634  0.00  0.00    +0.000 C 
ATOM     13  O   UNL     1       7.511   5.261  14.433  0.00  0.00    +0.000 OA
ATOM     14  N   UNL     1       5.680   3.983  13.956  0.00  0.00    +0.000 N 
ATOM     15  H   UNL     1       4.799   3.571  14.229  0.00  0.00    +0.000 HD
BRANCH  14  16
ATOM     16  O   UNL     1       6.441   3.296  12.986  0.00  0.00    +0.000 OA
ATOM     17  H   UNL     1       6.572   3.983  12.297  0.00  0.00    +0.000 HD
ENDBRANCH  14  16
ENDBRANCH  11  12
ENDBRANCH   6  11
ENDBRANCH   2   6
ENDBRANCH   1   4
BRANCH   1  18
ATOM     18  C   UNL     1       2.064   8.270  18.398  0.00  0.00    +0.000 C 
ATOM     19  O   UNL     1       2.433   8.816  17.357  0.00  0.00    +0.000 OA
ATOM     20  N   UNL     1       1.359   8.931  19.382  0.00  0.00    +0.000 N 
ATOM     21  H   UNL     1       1.016   8.431  20.189  0.00  0.00    +0.000 HD
BRANCH  20  22
ATOM     22  C   UNL     1       1.054  10.342  19.293  0.00  0.00    +0.000 C 
BRANCH  22  23
ATOM     23  C   UNL     1       0.268  10.795  20.493  0.00  0.00    +0.000 A 
ATOM     24  C   UNL     1       0.193  10.013  21.654  0.00  0.00    +0.000 A 
ATOM     25  C   UNL     1      -0.554  10.447  22.753  0.00  0.00    +0.000 A 
ATOM     26  C   UNL     1      -1.242  11.658  22.697  0.00  0.00    +0.000 A 
ATOM     27  C   UNL     1      -1.186  12.437  21.544  0.00  0.00    +0.000 A 
ATOM     28  C   UNL     1      -0.437  12.008  20.447  0.00  0.00    +0.000 A 
ENDBRANCH  22  23
ENDBRANCH  20  22
ENDBRANCH   1  18
BRANCH   1  29
ATOM     29  C   UNL     1       2.185   6.445  20.187  0.00  0.00    +0.000 C 
BRANCH  29  30
ATOM     30  C   UNL     1       1.968   4.970  20.444  0.00  0.00    +0.000 A 
ATOM     31  C   UNL     1       0.956   4.283  19.764  0.00  0.00    +0.000 A 
ATOM     32  C   UNL     1       0.619   2.983  20.135  0.00  0.00    +0.000 A 
ATOM     33  C   UNL     1       1.299   2.355  21.177  0.00  0.00    +0.000 A 
ATOM     34  C   UNL     1       2.347   3.010  21.820  0.00  0.00    +0.000 A 
ATOM     35  C   UNL     1       2.690   4.305  21.443  0.00  0.00    +0.000 A 
ENDBRANCH  29  30
ENDBRANCH   1  29
TORSDOF 12
ENDMDL
