MODEL 1
REMARK VINA RESULT:      -8.4      0.000      0.000
REMARK  Name = 
REMARK  4 active torsions:
REMARK  status: ('A' for Active; 'I' for Inactive)
REMARK    1  A    between atoms: C_2  and  O_3
REMARK    2  A    between atoms: C_2  and  C_4
REMARK    3  A    between atoms: C_9  and  N_10
REMARK    4  A    between atoms: N_16  and  C_17
REMARK                            x       y       z     vdW  Elec       q    Type
REMARK                         _______ _______ _______ _____ _____    ______ ____
ROOT
ATOM      1  N   UNL     1       0.084  11.752  21.396  0.00  0.00    +0.000 N 
ATOM      2  C   UNL     1       0.488  11.598  20.092  0.00  0.00    +0.000 C 
ATOM      3  O   UNL     1       0.402  12.506  19.257  0.00  0.00    +0.000 OA
ATOM      4  N   UNL     1       0.899  10.294  19.720  0.00  0.00    +0.000 N 
ATOM      5  C   UNL     1       1.055  10.026  18.292  0.00  0.00    +0.000 C 
ATOM      6  C   UNL     1       2.074   8.921  17.947  0.00  0.00    +0.000 C 
ATOM      7  N   UNL     1       2.018   7.700  18.825  0.00  0.00    +0.000 N 
ATOM      8  C   UNL     1       1.890   8.015  20.247  0.00  0.00    +0.000 C 
ATOM      9  C   UNL     1       0.743   9.046  20.500  0.00  0.00    +0.000 C 
ATOM     10  H   UNL     1       0.355  11.037  22.054  0.00  0.00    +0.000 HD
ENDROOT
BRANCH   7  11
ATOM     11  C   UNL     1       2.751   6.616  18.309  0.00  0.00    +0.000 A 
ATOM     12  N   UNL     1       3.772   7.025  17.504  0.00  0.00    +0.000 NA
ATOM     13  C   UNL     1       4.630   6.143  16.989  0.00  0.00    +0.000 A 
ATOM     14  C   UNL     1       4.417   4.801  17.049  0.00  0.00    +0.000 A 
ATOM     15  C   UNL     1       3.226   4.354  17.565  0.00  0.00    +0.000 A 
ATOM     16  C   UNL     1       2.886   3.033  17.233  0.00  0.00    +0.000 A 
ATOM     17  C   UNL     1       2.066   2.304  18.061  0.00  0.00    +0.000 A 
ATOM     18  C   UNL     1       1.609   2.931  19.208  0.00  0.00    +0.000 A 
ATOM     19  C   UNL     1       1.761   4.343  19.376  0.00  0.00    +0.000 A 
ATOM     20  C   UNL     1       2.503   5.170  18.456  0.00  0.00    +0.000 A 
ENDBRANCH   7  11
BRANCH   1  26
ATOM     21  C   UNL     1      -1.358  13.057  22.952  0.00  0.00    +0.000 A 
ATOM     22  C   UNL     1      -1.647  14.264  23.622  0.00  0.00    +0.000 A 
ATOM     23  C   UNL     1      -0.857  15.371  23.404  0.00  0.00    +0.000 A 
ATOM     24  C   UNL     1       0.213  15.329  22.530  0.00  0.00    +0.000 A 
ATOM     25  C   UNL     1       0.483  14.141  21.839  0.00  0.00    +0.000 A 
ATOM     26  C   UNL     1      -0.287  12.985  22.031  0.00  0.00    +0.000 A 
BRANCH  21  28
ATOM     27  O   UNL     1      -3.471  12.040  23.403  0.00  0.00    +0.000 OA
ATOM     28  C   UNL     1      -2.263  11.916  23.272  0.00  0.00    +0.000 C 
BRANCH  28  29
ATOM     29  O   UNL     1      -1.629  10.729  23.368  0.00  0.00    +0.000 OA
ATOM     30  H   UNL     1      -2.172   9.965  23.079  0.00  0.00    +0.000 HD
ENDBRANCH  28  29
ENDBRANCH  21  28
ENDBRANCH   1  26
TORSDOF 4
ENDMDL
MODEL 2
REMARK VINA RESULT:      -8.1      1.678      2.614
REMARK  Name = 
REMARK  4 active torsions:
REMARK  status: ('A' for Active; 'I' for Inactive)
REMARK    1  A    between atoms: C_2  and  O_3
REMARK    2  A    between atoms: C_2  and  C_4
REMARK    3  A    between atoms: C_9  and  N_10
REMARK    4  A    between atoms: N_16  and  C_17
REMARK                            x       y       z     vdW  Elec       q    Type
REMARK                         _______ _______ _______ _____ _____    ______ ____
ROOT
ATOM      1  N   UNL     1      -0.965  11.964  21.666  0.00  0.00    +0.000 N 
ATOM      2  C   UNL     1      -0.464  10.816  22.230  0.00  0.00    +0.000 C 
ATOM      3  O   UNL     1      -0.628  10.534  23.424  0.00  0.00    +0.000 OA
ATOM      4  N   UNL     1       0.359  10.022  21.393  0.00  0.00    +0.000 N 
ATOM      5  C   UNL     1       1.134   8.962  22.033  0.00  0.00    +0.000 C 
ATOM      6  C   UNL     1       1.468   7.762  21.124  0.00  0.00    +0.000 C 
ATOM      7  N   UNL     1       1.901   8.117  19.727  0.00  0.00    +0.000 N 
ATOM      8  C   UNL     1       1.080   9.162  19.115  0.00  0.00    +0.000 C 
ATOM      9  C   UNL     1       0.912  10.386  20.071  0.00  0.00    +0.000 C 
ATOM     10  H   UNL     1      -0.952  12.032  20.660  0.00  0.00    +0.000 HD
ENDROOT
BRANCH   7  11
ATOM     11  C   UNL     1       2.462   7.032  19.031  0.00  0.00    +0.000 A 
ATOM     12  N   UNL     1       3.386   7.434  18.114  0.00  0.00    +0.000 NA
ATOM     13  C   UNL     1       4.088   6.541  17.414  0.00  0.00    +0.000 A 
ATOM     14  C   UNL     1       3.778   5.216  17.409  0.00  0.00    +0.000 A 
ATOM     15  C   UNL     1       2.641   4.812  18.064  0.00  0.00    +0.000 A 
ATOM     16  C   UNL     1       2.151   3.549  17.692  0.00  0.00    +0.000 A 
ATOM     17  C   UNL     1       1.402   2.813  18.579  0.00  0.00    +0.000 A 
ATOM     18  C   UNL     1       1.167   3.374  19.824  0.00  0.00    +0.000 A 
ATOM     19  C   UNL     1       1.455   4.753  20.067  0.00  0.00    +0.000 A 
ATOM     20  C   UNL     1       2.122   5.600  19.109  0.00  0.00    +0.000 A 
ENDBRANCH   7  11
BRANCH   1  26
ATOM     21  C   UNL     1      -1.476  14.139  22.768  0.00  0.00    +0.000 A 
ATOM     22  C   UNL     1      -2.420  15.049  23.287  0.00  0.00    +0.000 A 
ATOM     23  C   UNL     1      -3.758  14.722  23.281  0.00  0.00    +0.000 A 
ATOM     24  C   UNL     1      -4.199  13.510  22.784  0.00  0.00    +0.000 A 
ATOM     25  C   UNL     1      -3.260  12.591  22.298  0.00  0.00    +0.000 A 
ATOM     26  C   UNL     1      -1.889  12.878  22.277  0.00  0.00    +0.000 A 
BRANCH  21  28
ATOM     27  O   UNL     1       0.822  14.103  22.119  0.00  0.00    +0.000 OA
ATOM     28  C   UNL     1      -0.058  14.597  22.806  0.00  0.00    +0.000 C 
BRANCH  28  29
ATOM     29  O   UNL     1       0.157  15.633  23.644  0.00  0.00    +0.000 OA
ATOM     30  H   UNL     1       0.049  16.512  23.224  0.00  0.00    +0.000 HD
ENDBRANCH  28  29
ENDBRANCH  21  28
ENDBRANCH   1  26
TORSDOF 4
ENDMDL
MODEL 3
REMARK VINA RESULT:      -8.1      2.086      3.525
REMARK  Name = 
REMARK  4 active torsions:
REMARK  status: ('A' for Active; 'I' for Inactive)
REMARK    1  A    between atoms: C_2  and  O_3
REMARK    2  A    between atoms: C_2  and  C_4
REMARK    3  A    between atoms: C_9  and  N_10
REMARK    4  A    between atoms: N_16  and  C_17
REMARK                            x       y       z     vdW  Elec       q    Type
REMARK                         _______ _______ _______ _____ _____    ______ ____
ROOT
ATOM      1  N   UNL     1      -0.506  11.090  20.237  0.00  0.00    +0.000 N 
ATOM      2  C   UNL     1      -0.092   9.937  20.859  0.00  0.00    +0.000 C 
ATOM      3  O   UNL     1      -0.423   9.650  22.016  0.00  0.00    +0.000 OA
ATOM      4  N   UNL     1       0.841   9.146  20.144  0.00  0.00    +0.000 N 
ATOM      5  C   UNL     1       1.516   8.081  20.881  0.00  0.00    +0.000 C 
ATOM      6  C   UNL     1       1.974   6.885  20.022  0.00  0.00    +0.000 C 
ATOM      7  N   UNL     1       2.601   7.247  18.702  0.00  0.00    +0.000 N 
ATOM      8  C   UNL     1       1.876   8.296  17.985  0.00  0.00    +0.000 C 
ATOM      9  C   UNL     1       1.576   9.516  18.915  0.00  0.00    +0.000 C 
ATOM     10  H   UNL     1      -0.350  11.162  19.243  0.00  0.00    +0.000 HD
ENDROOT
BRANCH   7  11
ATOM     11  C   UNL     1       3.254   6.164  18.087  0.00  0.00    +0.000 A 
ATOM     12  N   UNL     1       2.437   5.082  17.952  0.00  0.00    +0.000 NA
ATOM     13  C   UNL     1       2.854   3.986  17.316  0.00  0.00    +0.000 A 
ATOM     14  C   UNL     1       4.155   3.799  16.968  0.00  0.00    +0.000 A 
ATOM     15  C   UNL     1       5.079   4.725  17.383  0.00  0.00    +0.000 A 
ATOM     16  C   UNL     1       6.415   4.291  17.365  0.00  0.00    +0.000 A 
ATOM     17  C   UNL     1       7.433   5.204  17.227  0.00  0.00    +0.000 A 
ATOM     18  C   UNL     1       7.075   6.537  17.112  0.00  0.00    +0.000 A 
ATOM     19  C   UNL     1       5.739   6.959  17.396  0.00  0.00    +0.000 A 
ATOM     20  C   UNL     1       4.665   6.038  17.678  0.00  0.00    +0.000 A 
ENDBRANCH   7  11
BRANCH   1  26
ATOM     21  C   UNL     1      -2.663  12.304  19.960  0.00  0.00    +0.000 A 
ATOM     22  C   UNL     1      -3.667  13.140  20.492  0.00  0.00    +0.000 A 
ATOM     23  C   UNL     1      -3.535  13.637  21.769  0.00  0.00    +0.000 A 
ATOM     24  C   UNL     1      -2.429  13.341  22.544  0.00  0.00    +0.000 A 
ATOM     25  C   UNL     1      -1.416  12.538  22.007  0.00  0.00    +0.000 A 
ATOM     26  C   UNL     1      -1.505  12.003  20.715  0.00  0.00    +0.000 A 
BRANCH  21  28
ATOM     27  O   UNL     1      -3.859  11.092  18.286  0.00  0.00    +0.000 OA
ATOM     28  C   UNL     1      -2.912  11.806  18.577  0.00  0.00    +0.000 C 
BRANCH  28  29
ATOM     29  O   UNL     1      -2.016  12.247  17.671  0.00  0.00    +0.000 OA
ATOM     30  H   UNL     1      -2.310  12.149  16.741  0.00  0.00    +0.000 HD
ENDBRANCH  28  29
ENDBRANCH  21  28
ENDBRANCH   1  26
TORSDOF 4
ENDMDL
MODEL 4
REMARK VINA RESULT:      -8.1      1.115      2.406
REMARK  Name = 
REMARK  4 active torsions:
REMARK  status: ('A' for Active; 'I' for Inactive)
REMARK    1  A    between atoms: C_2  and  O_3
REMARK    2  A    between atoms: C_2  and  C_4
REMARK    3  A    between atoms: C_9  and  N_10
REMARK    4  A    between atoms: N_16  and  C_17
REMARK                            x       y       z     vdW  Elec       q    Type
REMARK                         _______ _______ _______ _____ _____    ______ ____
ROOT
ATOM      1  N   UNL     1       0.396  11.328  21.091  0.00  0.00    +0.000 N 
ATOM      2  C   UNL     1       0.723  11.126  19.772  0.00  0.00    +0.000 C 
ATOM      3  O   UNL     1       0.562  11.995  18.906  0.00  0.00    +0.000 OA
ATOM      4  N   UNL     1       1.144   9.817  19.432  0.00  0.00    +0.000 N 
ATOM      5  C   UNL     1       1.220   9.490  18.009  0.00  0.00    +0.000 C 
ATOM      6  C   UNL     1       2.245   8.396  17.648  0.00  0.00    +0.000 C 
ATOM      7  N   UNL     1       2.275   7.214  18.579  0.00  0.00    +0.000 N 
ATOM      8  C   UNL     1       2.226   7.588  19.992  0.00  0.00    +0.000 C 
ATOM      9  C   UNL     1       1.070   8.602  20.272  0.00  0.00    +0.000 C 
ATOM     10  H   UNL     1       0.726  10.650  21.760  0.00  0.00    +0.000 HD
ENDROOT
BRANCH   7  11
ATOM     11  C   UNL     1       3.004   6.126  18.065  0.00  0.00    +0.000 A 
ATOM     12  N   UNL     1       2.250   4.994  17.989  0.00  0.00    +0.000 NA
ATOM     13  C   UNL     1       2.744   3.879  17.449  0.00  0.00    +0.000 A 
ATOM     14  C   UNL     1       4.064   3.739  17.152  0.00  0.00    +0.000 A 
ATOM     15  C   UNL     1       4.925   4.743  17.522  0.00  0.00    +0.000 A 
ATOM     16  C   UNL     1       6.281   4.383  17.573  0.00  0.00    +0.000 A 
ATOM     17  C   UNL     1       7.254   5.338  17.396  0.00  0.00    +0.000 A 
ATOM     18  C   UNL     1       6.829   6.637  17.171  0.00  0.00    +0.000 A 
ATOM     19  C   UNL     1       5.464   7.005  17.386  0.00  0.00    +0.000 A 
ATOM     20  C   UNL     1       4.432   6.049  17.706  0.00  0.00    +0.000 A 
ENDBRANCH   7  11
BRANCH   1  26
ATOM     21  C   UNL     1      -0.959  12.661  22.701  0.00  0.00    +0.000 A 
ATOM     22  C   UNL     1      -1.237  13.890  23.333  0.00  0.00    +0.000 A 
ATOM     23  C   UNL     1      -0.512  15.011  22.994  0.00  0.00    +0.000 A 
ATOM     24  C   UNL     1       0.481  14.961  22.034  0.00  0.00    +0.000 A 
ATOM     25  C   UNL     1       0.737  13.749  21.382  0.00  0.00    +0.000 A 
ATOM     26  C   UNL     1       0.032  12.579  21.695  0.00  0.00    +0.000 A 
BRANCH  21  28
ATOM     27  O   UNL     1      -1.337  10.384  23.314  0.00  0.00    +0.000 OA
ATOM     28  C   UNL     1      -1.788  11.508  23.153  0.00  0.00    +0.000 C 
BRANCH  28  29
ATOM     29  O   UNL     1      -3.075  11.827  23.403  0.00  0.00    +0.000 OA
ATOM     30  H   UNL     1      -3.445  11.390  24.199  0.00  0.00    +0.000 HD
ENDBRANCH  28  29
ENDBRANCH  21  28
ENDBRANCH   1  26
TORSDOF 4
ENDMDL
MODEL 5
REMARK VINA RESULT:      -8.1      1.571      2.199
REMARK  Name = 
REMARK  4 active torsions:
REMARK  status: ('A' for Active; 'I' for Inactive)
REMARK    1  A    between atoms: C_2  and  O_3
REMARK    2  A    between atoms: C_2  and  C_4
REMARK    3  A    between atoms: C_9  and  N_10
REMARK    4  A    between atoms: N_16  and  C_17
REMARK                            x       y       z     vdW  Elec       q    Type
REMARK                         _______ _______ _______ _____ _____    ______ ____
ROOT
ATOM      1  N   UNL     1      -0.461  12.170  21.253  0.00  0.00    +0.000 N 
ATOM      2  C   UNL     1      -0.097  11.006  21.886  0.00  0.00    +0.000 C 
ATOM      3  O   UNL     1      -0.317  10.804  23.087  0.00  0.00    +0.000 OA
ATOM      4  N   UNL     1       0.659  10.090  21.113  0.00  0.00    +0.000 N 
ATOM      5  C   UNL     1       1.304   8.990  21.826  0.00  0.00    +0.000 C 
ATOM      6  C   UNL     1       1.532   7.717  20.986  0.00  0.00    +0.000 C 
ATOM      7  N   UNL     1       2.033   7.954  19.586  0.00  0.00    +0.000 N 
ATOM      8  C   UNL     1       1.341   9.045  18.901  0.00  0.00    +0.000 C 
ATOM      9  C   UNL     1       1.279  10.328  19.791  0.00  0.00    +0.000 C 
ATOM     10  H   UNL     1      -0.417  12.184  20.246  0.00  0.00    +0.000 HD
ENDROOT
BRANCH   7  11
ATOM     11  C   UNL     1       2.495   6.783  18.960  0.00  0.00    +0.000 A 
ATOM     12  N   UNL     1       3.425   7.047  18.001  0.00  0.00    +0.000 NA
ATOM     13  C   UNL     1       4.041   6.055  17.355  0.00  0.00    +0.000 A 
ATOM     14  C   UNL     1       3.632   4.762  17.450  0.00  0.00    +0.000 A 
ATOM     15  C   UNL     1       2.483   4.493  18.152  0.00  0.00    +0.000 A 
ATOM     16  C   UNL     1       1.890   3.249  17.880  0.00  0.00    +0.000 A 
ATOM     17  C   UNL     1       1.109   2.637  18.830  0.00  0.00    +0.000 A 
ATOM     18  C   UNL     1       0.945   3.300  20.035  0.00  0.00    +0.000 A 
ATOM     19  C   UNL     1       1.341   4.666  20.175  0.00  0.00    +0.000 A 
ATOM     20  C   UNL     1       2.049   5.390  19.147  0.00  0.00    +0.000 A 
ENDBRANCH   7  11
BRANCH   1  26
ATOM     21  C   UNL     1      -2.596  13.451  21.287  0.00  0.00    +0.000 A 
ATOM     22  C   UNL     1      -3.427  14.419  21.890  0.00  0.00    +0.000 A 
ATOM     23  C   UNL     1      -2.984  15.101  23.001  0.00  0.00    +0.000 A 
ATOM     24  C   UNL     1      -1.731  14.866  23.536  0.00  0.00    +0.000 A 
ATOM     25  C   UNL     1      -0.892  13.930  22.920  0.00  0.00    +0.000 A 
ATOM     26  C   UNL     1      -1.298  13.204  21.792  0.00  0.00    +0.000 A 
BRANCH  21  28
ATOM     27  O   UNL     1      -4.331  12.355  20.065  0.00  0.00    +0.000 OA
ATOM     28  C   UNL     1      -3.178  12.759  20.103  0.00  0.00    +0.000 C 
BRANCH  28  29
ATOM     29  O   UNL     1      -2.327  12.651  19.062  0.00  0.00    +0.000 OA
ATOM     30  H   UNL     1      -1.511  13.186  19.160  0.00  0.00    +0.000 HD
ENDBRANCH  28  29
ENDBRANCH  21  28
ENDBRANCH   1  26
TORSDOF 4
ENDMDL
MODEL 6
REMARK VINA RESULT:      -7.9      2.787      9.431
REMARK  Name = 
REMARK  4 active torsions:
REMARK  status: ('A' for Active; 'I' for Inactive)
REMARK    1  A    between atoms: C_2  and  O_3
REMARK    2  A    between atoms: C_2  and  C_4
REMARK    3  A    between atoms: C_9  and  N_10
REMARK    4  A    between atoms: N_16  and  C_17
REMARK                            x       y       z     vdW  Elec       q    Type
REMARK                         _______ _______ _______ _____ _____    ______ ____
ROOT
ATOM      1  N   UNL     1       2.767   7.061  18.402  0.00  0.00    +0.000 N 
ATOM      2  C   UNL     1       2.368   7.235  19.705  0.00  0.00    +0.000 C 
ATOM      3  O   UNL     1       2.489   6.351  20.562  0.00  0.00    +0.000 OA
ATOM      4  N   UNL     1       1.695   8.449  19.991  0.00  0.00    +0.000 N 
ATOM      5  C   UNL     1       1.009   8.544  21.278  0.00  0.00    +0.000 C 
ATOM      6  C   UNL     1       0.872   9.974  21.837  0.00  0.00    +0.000 C 
ATOM      7  N   UNL     1       0.489  11.023  20.828  0.00  0.00    +0.000 N 
ATOM      8  C   UNL     1       1.220  10.908  19.566  0.00  0.00    +0.000 C 
ATOM      9  C   UNL     1       1.186   9.444  19.022  0.00  0.00    +0.000 C 
ATOM     10  H   UNL     1       2.808   7.880  17.816  0.00  0.00    +0.000 HD
ENDROOT
BRANCH   7  11
ATOM     11  C   UNL     1       0.100  12.239  21.418  0.00  0.00    +0.000 A 
ATOM     12  N   UNL     1       1.075  13.186  21.331  0.00  0.00    +0.000 NA
ATOM     13  C   UNL     1       0.860  14.430  21.761  0.00  0.00    +0.000 A 
ATOM     14  C   UNL     1      -0.235  14.766  22.495  0.00  0.00    +0.000 A 
ATOM     15  C   UNL     1      -1.085  13.763  22.891  0.00  0.00    +0.000 A 
ATOM     16  C   UNL     1      -1.937  14.085  23.960  0.00  0.00    +0.000 A 
ATOM     17  C   UNL     1      -3.140  13.436  24.101  0.00  0.00    +0.000 A 
ATOM     18  C   UNL     1      -3.452  12.474  23.155  0.00  0.00    +0.000 A 
ATOM     19  C   UNL     1      -2.457  11.995  22.247  0.00  0.00    +0.000 A 
ATOM     20  C   UNL     1      -1.134  12.562  22.158  0.00  0.00    +0.000 A 
ENDBRANCH   7  11
BRANCH   1  26
ATOM     21  C   UNL     1       2.962   4.699  17.635  0.00  0.00    +0.000 A 
ATOM     22  C   UNL     1       3.727   3.667  17.053  0.00  0.00    +0.000 A 
ATOM     23  C   UNL     1       5.035   3.906  16.695  0.00  0.00    +0.000 A 
ATOM     24  C   UNL     1       5.623   5.139  16.905  0.00  0.00    +0.000 A 
ATOM     25  C   UNL     1       4.876   6.156  17.512  0.00  0.00    +0.000 A 
ATOM     26  C   UNL     1       3.539   5.965  17.889  0.00  0.00    +0.000 A 
BRANCH  21  28
ATOM     27  O   UNL     1       0.669   4.263  17.130  0.00  0.00    +0.000 OA
ATOM     28  C   UNL     1       1.554   4.342  17.968  0.00  0.00    +0.000 C 
BRANCH  28  29
ATOM     29  O   UNL     1       1.354   4.076  19.276  0.00  0.00    +0.000 OA
ATOM     30  H   UNL     1       2.122   3.656  19.718  0.00  0.00    +0.000 HD
ENDBRANCH  28  29
ENDBRANCH  21  28
ENDBRANCH   1  26
TORSDOF 4
ENDMDL
MODEL 7
REMARK VINA RESULT:      -7.9      2.135      2.821
REMARK  Name = 
REMARK  4 active torsions:
REMARK  status: ('A' for Active; 'I' for Inactive)
REMARK    1  A    between atoms: C_2  and  O_3
REMARK    2  A    between atoms: C_2  and  C_4
REMARK    3  A    between atoms: C_9  and  N_10
REMARK    4  A    between atoms: N_16  and  C_17
REMARK                            x       y       z     vdW  Elec       q    Type
REMARK                         _______ _______ _______ _____ _____    ______ ____
ROOT
ATOM      1  N   UNL     1      -0.925  11.358  19.915  0.00  0.00    +0.000 N 
ATOM      2  C   UNL     1      -0.409  10.301  20.625  0.00  0.00    +0.000 C 
ATOM      3  O   UNL     1      -0.703  10.087  21.807  0.00  0.00    +0.000 OA
ATOM      4  N   UNL     1       0.579   9.533  19.961  0.00  0.00    +0.000 N 
ATOM      5  C   UNL     1       1.350   8.594  20.774  0.00  0.00    +0.000 C 
ATOM      6  C   UNL     1       1.898   7.371  20.010  0.00  0.00    +0.000 C 
ATOM      7  N   UNL     1       2.478   7.670  18.654  0.00  0.00    +0.000 N 
ATOM      8  C   UNL     1       1.661   8.591  17.864  0.00  0.00    +0.000 C 
ATOM      9  C   UNL     1       1.269   9.857  18.693  0.00  0.00    +0.000 C 
ATOM     10  H   UNL     1      -0.786  11.359  18.916  0.00  0.00    +0.000 HD
ENDROOT
BRANCH   7  11
ATOM     11  C   UNL     1       3.214   6.597  18.121  0.00  0.00    +0.000 A 
ATOM     12  N   UNL     1       4.249   7.021  17.343  0.00  0.00    +0.000 NA
ATOM     13  C   UNL     1       5.111   6.149  16.818  0.00  0.00    +0.000 A 
ATOM     14  C   UNL     1       4.890   4.807  16.838  0.00  0.00    +0.000 A 
ATOM     15  C   UNL     1       3.688   4.353  17.323  0.00  0.00    +0.000 A 
ATOM     16  C   UNL     1       3.347   3.043  16.949  0.00  0.00    +0.000 A 
ATOM     17  C   UNL     1       2.510   2.297  17.744  0.00  0.00    +0.000 A 
ATOM     18  C   UNL     1       2.038   2.896  18.900  0.00  0.00    +0.000 A 
ATOM     19  C   UNL     1       2.194   4.301  19.108  0.00  0.00    +0.000 A 
ATOM     20  C   UNL     1       2.956   5.149  18.224  0.00  0.00    +0.000 A 
ENDBRANCH   7  11
BRANCH   1  26
ATOM     21  C   UNL     1      -3.216  12.290  19.626  0.00  0.00    +0.000 A 
ATOM     22  C   UNL     1      -4.277  13.086  20.107  0.00  0.00    +0.000 A 
ATOM     23  C   UNL     1      -4.132  13.773  21.292  0.00  0.00    +0.000 A 
ATOM     24  C   UNL     1      -2.959  13.709  22.020  0.00  0.00    +0.000 A 
ATOM     25  C   UNL     1      -1.892  12.945  21.529  0.00  0.00    +0.000 A 
ATOM     26  C   UNL     1      -1.992  12.223  20.332  0.00  0.00    +0.000 A 
BRANCH  21  28
ATOM     27  O   UNL     1      -4.380  10.757  18.214  0.00  0.00    +0.000 OA
ATOM     28  C   UNL     1      -3.483  11.576  18.346  0.00  0.00    +0.000 C 
BRANCH  28  29
ATOM     29  O   UNL     1      -2.667  11.943  17.337  0.00  0.00    +0.000 OA
ATOM     30  H   UNL     1      -1.719  11.762  17.507  0.00  0.00    +0.000 HD
ENDBRANCH  28  29
ENDBRANCH  21  28
ENDBRANCH   1  26
TORSDOF 4
ENDMDL
MODEL 8
REMARK VINA RESULT:      -7.9      1.227      1.387
REMARK  Name = 
REMARK  4 active torsions:
REMARK  status: ('A' for Active; 'I' for Inactive)
REMARK    1  A    between atoms: C_2  and  O_3
REMARK    2  A    between atoms: C_2  and  C_4
REMARK    3  A    between atoms: C_9  and  N_10
REMARK    4  A    between atoms: N_16  and  C_17
REMARK                            x       y       z     vdW  Elec       q    Type
REMARK                         _______ _______ _______ _____ _____    ______ ____
ROOT
ATOM      1  N   UNL     1       0.363  12.098  20.750  0.00  0.00    +0.000 N 
ATOM      2  C   UNL     1       0.832  11.727  19.513  0.00  0.00    +0.000 C 
ATOM      3  O   UNL     1       0.913  12.520  18.567  0.00  0.00    +0.000 OA
ATOM      4  N   UNL     1       1.109  10.348  19.343  0.00  0.00    +0.000 N 
ATOM      5  C   UNL     1       1.329   9.876  17.977  0.00  0.00    +0.000 C 
ATOM      6  C   UNL     1       2.229   8.630  17.858  0.00  0.00    +0.000 C 
ATOM      7  N   UNL     1       1.969   7.551  18.875  0.00  0.00    +0.000 N 
ATOM      8  C   UNL     1       1.783   8.066  20.231  0.00  0.00    +0.000 C 
ATOM      9  C   UNL     1       0.753   9.241  20.257  0.00  0.00    +0.000 C 
ATOM     10  H   UNL     1       0.501  11.453  21.512  0.00  0.00    +0.000 HD
ENDROOT
BRANCH   7  11
ATOM     11  C   UNL     1       2.601   6.334  18.561  0.00  0.00    +0.000 A 
ATOM     12  N   UNL     1       3.702   6.515  17.780  0.00  0.00    +0.000 NA
ATOM     13  C   UNL     1       4.481   5.484  17.448  0.00  0.00    +0.000 A 
ATOM     14  C   UNL     1       4.114   4.194  17.674  0.00  0.00    +0.000 A 
ATOM     15  C   UNL     1       2.854   3.952  18.164  0.00  0.00    +0.000 A 
ATOM     16  C   UNL     1       2.385   2.640  17.990  0.00  0.00    +0.000 A 
ATOM     17  C   UNL     1       1.445   2.126  18.851  0.00  0.00    +0.000 A 
ATOM     18  C   UNL     1       1.002   2.954  19.869  0.00  0.00    +0.000 A 
ATOM     19  C   UNL     1       1.303   4.352  19.855  0.00  0.00    +0.000 A 
ATOM     20  C   UNL     1       2.183   4.958  18.885  0.00  0.00    +0.000 A 
ENDBRANCH   7  11
BRANCH   1  26
ATOM     21  C   UNL     1      -1.216  13.953  21.271  0.00  0.00    +0.000 A 
ATOM     22  C   UNL     1      -1.450  15.244  21.787  0.00  0.00    +0.000 A 
ATOM     23  C   UNL     1      -0.394  15.994  22.253  0.00  0.00    +0.000 A 
ATOM     24  C   UNL     1       0.902  15.513  22.215  0.00  0.00    +0.000 A 
ATOM     25  C   UNL     1       1.141  14.244  21.673  0.00  0.00    +0.000 A 
ATOM     26  C   UNL     1       0.099  13.438  21.192  0.00  0.00    +0.000 A 
BRANCH  21  28
ATOM     27  O   UNL     1      -3.312  12.848  21.569  0.00  0.00    +0.000 OA
ATOM     28  C   UNL     1      -2.429  13.219  20.811  0.00  0.00    +0.000 C 
BRANCH  28  29
ATOM     29  O   UNL     1      -2.480  13.033  19.476  0.00  0.00    +0.000 OA
ATOM     30  H   UNL     1      -2.861  12.170  19.209  0.00  0.00    +0.000 HD
ENDBRANCH  28  29
ENDBRANCH  21  28
ENDBRANCH   1  26
TORSDOF 4
ENDMDL
MODEL 9
REMARK VINA RESULT:      -7.9      3.816      9.730
REMARK  Name = 
REMARK  4 active torsions:
REMARK  status: ('A' for Active; 'I' for Inactive)
REMARK    1  A    between atoms: C_2  and  O_3
REMARK    2  A    between atoms: C_2  and  C_4
REMARK    3  A    between atoms: C_9  and  N_10
REMARK    4  A    between atoms: N_16  and  C_17
REMARK                            x       y       z     vdW  Elec       q    Type
REMARK                         _______ _______ _______ _____ _____    ______ ____
ROOT
ATOM      1  N   UNL     1       4.186   6.506  16.826  0.00  0.00    +0.000 N 
ATOM      2  C   UNL     1       3.784   6.219  18.108  0.00  0.00    +0.000 C 
ATOM      3  O   UNL     1       4.156   5.205  18.711  0.00  0.00    +0.000 OA
ATOM      4  N   UNL     1       2.816   7.091  18.664  0.00  0.00    +0.000 N 
ATOM      5  C   UNL     1       2.157   6.659  19.895  0.00  0.00    +0.000 C 
ATOM      6  C   UNL     1       1.654   7.803  20.798  0.00  0.00    +0.000 C 
ATOM      7  N   UNL     1       0.981   8.940  20.077  0.00  0.00    +0.000 N 
ATOM      8  C   UNL     1       1.689   9.359  18.868  0.00  0.00    +0.000 C 
ATOM      9  C   UNL     1       2.037   8.134  17.961  0.00  0.00    +0.000 C 
ATOM     10  H   UNL     1       3.993   7.431  16.475  0.00  0.00    +0.000 HD
ENDROOT
BRANCH   7  11
ATOM     11  C   UNL     1       0.292   9.810  20.942  0.00  0.00    +0.000 A 
ATOM     12  N   UNL     1       0.108   9.265  22.177  0.00  0.00    +0.000 NA
ATOM     13  C   UNL     1      -0.453   9.973  23.159  0.00  0.00    +0.000 A 
ATOM     14  C   UNL     1      -1.061  11.169  22.937  0.00  0.00    +0.000 A 
ATOM     15  C   UNL     1      -1.189  11.602  21.640  0.00  0.00    +0.000 A 
ATOM     16  C   UNL     1      -2.158  12.598  21.433  0.00  0.00    +0.000 A 
ATOM     17  C   UNL     1      -2.034  13.470  20.378  0.00  0.00    +0.000 A 
ATOM     18  C   UNL     1      -0.930  13.313  19.557  0.00  0.00    +0.000 A 
ATOM     19  C   UNL     1      -0.118  12.140  19.643  0.00  0.00    +0.000 A 
ATOM     20  C   UNL     1      -0.299  11.130  20.657  0.00  0.00    +0.000 A 
ENDBRANCH   7  11
BRANCH   1  26
ATOM     21  C   UNL     1       6.582   5.959  16.419  0.00  0.00    +0.000 A 
ATOM     22  C   UNL     1       7.561   5.217  15.726  0.00  0.00    +0.000 A 
ATOM     23  C   UNL     1       7.178   4.333  14.743  0.00  0.00    +0.000 A 
ATOM     24  C   UNL     1       5.847   4.162  14.409  0.00  0.00    +0.000 A 
ATOM     25  C   UNL     1       4.876   4.920  15.073  0.00  0.00    +0.000 A 
ATOM     26  C   UNL     1       5.214   5.829  16.086  0.00  0.00    +0.000 A 
BRANCH  21  28
ATOM     27  O   UNL     1       7.389   8.041  17.264  0.00  0.00    +0.000 OA
ATOM     28  C   UNL     1       7.102   6.873  17.475  0.00  0.00    +0.000 C 
BRANCH  28  29
ATOM     29  O   UNL     1       7.191   6.302  18.694  0.00  0.00    +0.000 OA
ATOM     30  H   UNL     1       7.737   5.487  18.712  0.00  0.00    +0.000 HD
ENDBRANCH  28  29
ENDBRANCH  21  28
ENDBRANCH   1  26
TORSDOF 4
ENDMDL
