MODEL 1
REMARK VINA RESULT:      -7.4      0.000      0.000
REMARK  Name = 
REMARK  13 active torsions:
REMARK  status: ('A' for Active; 'I' for Inactive)
REMARK    1  A    between atoms: C_1  and  N_2
REMARK    2  A    between atoms: N_2  and  C_3
REMARK    3  A    between atoms: C_3  and  C_4
REMARK    4  A    between atoms: C_4  and  O_5
REMARK    5  A    between atoms: C_4  and  C_6
REMARK    6  A    between atoms: C_6  and  O_7
REMARK    7  A    between atoms: O_7  and  C_8
REMARK    8  A    between atoms: C_11  and  S_12
REMARK    9  A    between atoms: S_12  and  N_15
REMARK   10  A    between atoms: N_15  and  C_16
REMARK   11  A    between atoms: C_16  and  C_17
REMARK   12  A    between atoms: C_17  and  O_18
REMARK   13  A    between atoms: O_18  and  C_19
REMARK                            x       y       z     vdW  Elec       q    Type
REMARK                         _______ _______ _______ _____ _____    ______ ____
ROOT
ATOM      1  C   UNL     1       2.608   4.414  17.696  0.00  0.00    +0.000 A 
ATOM      2  C   UNL     1       3.505   3.606  16.969  0.00  0.00    +0.000 A 
ATOM      3  C   UNL     1       4.867   3.902  16.952  0.00  0.00    +0.000 A 
ATOM      4  C   UNL     1       5.355   5.012  17.652  0.00  0.00    +0.000 A 
ATOM      5  C   UNL     1       4.470   5.822  18.373  0.00  0.00    +0.000 A 
ATOM      6  C   UNL     1       3.101   5.522  18.397  0.00  0.00    +0.000 A 
ENDROOT
BRANCH   4   7
ATOM      7  S   UNL     1       7.107   5.416  17.592  0.00  0.00    +0.000 S 
ATOM      8  O   UNL     1       7.832   5.091  18.906  0.00  0.00    +0.000 OA
ATOM      9  O   UNL     1       7.892   4.571  16.575  0.00  0.00    +0.000 OA
BRANCH   7  10
ATOM     10  N   UNL     1       7.508   7.117  17.234  0.00  0.00    +0.000 NA
ATOM     11  H   UNL     1       6.619   7.636  17.049  0.00  0.00    +0.000 HD
BRANCH  10  12
ATOM     12  C   UNL     1       8.228   7.772  18.336  0.00  0.00    +0.000 C 
BRANCH  12  13
ATOM     13  C   UNL     1       8.360   9.275  18.088  0.00  0.00    +0.000 C 
BRANCH  13  14
ATOM     14  O   UNL     1       8.890   9.934  19.179  0.00  0.00    +0.000 OA
BRANCH  14  15
ATOM     15  C   UNL     1       9.864  10.880  19.078  0.00  0.00    +0.000 A 
ATOM     16  C   UNL     1      10.390  11.544  20.212  0.00  0.00    +0.000 A 
ATOM     17  C   UNL     1      11.382  12.515  20.067  0.00  0.00    +0.000 A 
ATOM     18  C   UNL     1      11.862  12.839  18.798  0.00  0.00    +0.000 A 
ATOM     19  C   UNL     1      11.351  12.190  17.671  0.00  0.00    +0.000 A 
ATOM     20  C   UNL     1      10.357  11.214  17.809  0.00  0.00    +0.000 A 
ENDBRANCH  14  15
ENDBRANCH  13  14
ENDBRANCH  12  13
ENDBRANCH  10  12
ENDBRANCH   7  10
ENDBRANCH   4   7
BRANCH   1  21
ATOM     21  O   UNL     1       1.276   4.157  17.738  0.00  0.00    +0.000 OA
BRANCH  21  22
ATOM     22  C   UNL     1       0.623   3.514  18.775  0.00  0.00    +0.000 C 
BRANCH  22  23
ATOM     23  C   UNL     1       1.579   2.539  19.475  0.00  0.00    +0.000 C 
BRANCH  23  24
ATOM     24  O   UNL     1       1.303   1.217  19.075  0.00  0.00    +0.000 OA
ATOM     25  H   UNL     1       0.876   0.754  19.845  0.00  0.00    +0.000 HD
ENDBRANCH  23  24
BRANCH  23  26
ATOM     26  C   UNL     1       1.511   2.667  21.012  0.00  0.00    +0.000 C 
BRANCH  26  28
ATOM     27  C   UNL     1       3.919   2.529  20.647  0.00  0.00    +0.000 C 
ATOM     28  N   UNL     1       2.838   2.573  21.637  0.00  0.00    +0.000 NA
ATOM     29  H   UNL     1       2.975   3.439  22.210  0.00  0.00    +0.000 HD
ENDBRANCH  26  28
ENDBRANCH  23  26
ENDBRANCH  22  23
ENDBRANCH  21  22
ENDBRANCH   1  21
TORSDOF 12
ENDMDL
MODEL 2
REMARK VINA RESULT:      -7.4      1.561      2.158
REMARK  Name = 
REMARK  13 active torsions:
REMARK  status: ('A' for Active; 'I' for Inactive)
REMARK    1  A    between atoms: C_1  and  N_2
REMARK    2  A    between atoms: N_2  and  C_3
REMARK    3  A    between atoms: C_3  and  C_4
REMARK    4  A    between atoms: C_4  and  O_5
REMARK    5  A    between atoms: C_4  and  C_6
REMARK    6  A    between atoms: C_6  and  O_7
REMARK    7  A    between atoms: O_7  and  C_8
REMARK    8  A    between atoms: C_11  and  S_12
REMARK    9  A    between atoms: S_12  and  N_15
REMARK   10  A    between atoms: N_15  and  C_16
REMARK   11  A    between atoms: C_16  and  C_17
REMARK   12  A    between atoms: C_17  and  O_18
REMARK   13  A    between atoms: O_18  and  C_19
REMARK                            x       y       z     vdW  Elec       q    Type
REMARK                         _______ _______ _______ _____ _____    ______ ____
ROOT
ATOM      1  C   UNL     1       3.690   4.751  19.521  0.00  0.00    +0.000 A 
ATOM      2  C   UNL     1       3.313   5.390  18.323  0.00  0.00    +0.000 A 
ATOM      3  C   UNL     1       4.265   5.673  17.344  0.00  0.00    +0.000 A 
ATOM      4  C   UNL     1       5.606   5.329  17.546  0.00  0.00    +0.000 A 
ATOM      5  C   UNL     1       5.989   4.698  18.736  0.00  0.00    +0.000 A 
ATOM      6  C   UNL     1       5.033   4.408  19.719  0.00  0.00    +0.000 A 
ENDROOT
BRANCH   4   7
ATOM      7  S   UNL     1       6.838   5.735  16.300  0.00  0.00    +0.000 S 
ATOM      8  O   UNL     1       7.799   4.569  16.021  0.00  0.00    +0.000 OA
ATOM      9  O   UNL     1       6.235   5.993  14.909  0.00  0.00    +0.000 OA
BRANCH   7  10
ATOM     10  N   UNL     1       7.880   7.138  16.654  0.00  0.00    +0.000 NA
ATOM     11  H   UNL     1       7.990   7.699  15.778  0.00  0.00    +0.000 HD
BRANCH  10  12
ATOM     12  C   UNL     1       7.330   7.999  17.712  0.00  0.00    +0.000 C 
BRANCH  12  13
ATOM     13  C   UNL     1       8.098   9.317  17.802  0.00  0.00    +0.000 C 
BRANCH  13  14
ATOM     14  O   UNL     1       8.912   9.366  18.916  0.00  0.00    +0.000 OA
BRANCH  14  15
ATOM     15  C   UNL     1       9.558  10.495  19.319  0.00  0.00    +0.000 A 
ATOM     16  C   UNL     1      10.430  11.211  18.465  0.00  0.00    +0.000 A 
ATOM     17  C   UNL     1      11.081  12.358  18.918  0.00  0.00    +0.000 A 
ATOM     18  C   UNL     1      10.876  12.809  20.223  0.00  0.00    +0.000 A 
ATOM     19  C   UNL     1      10.018  12.110  21.076  0.00  0.00    +0.000 A 
ATOM     20  C   UNL     1       9.360  10.959  20.627  0.00  0.00    +0.000 A 
ENDBRANCH  14  15
ENDBRANCH  13  14
ENDBRANCH  12  13
ENDBRANCH  10  12
ENDBRANCH   7  10
ENDBRANCH   4   7
BRANCH   1  21
ATOM     21  O   UNL     1       2.792   4.459  20.497  0.00  0.00    +0.000 OA
BRANCH  21  22
ATOM     22  C   UNL     1       1.438   4.737  20.440  0.00  0.00    +0.000 C 
BRANCH  22  23
ATOM     23  C   UNL     1       0.634   3.432  20.387  0.00  0.00    +0.000 C 
BRANCH  23  24
ATOM     24  O   UNL     1       0.976   2.605  21.474  0.00  0.00    +0.000 OA
ATOM     25  H   UNL     1       1.304   1.742  21.103  0.00  0.00    +0.000 HD
ENDBRANCH  23  24
BRANCH  23  26
ATOM     26  C   UNL     1       0.836   2.684  19.051  0.00  0.00    +0.000 C 
BRANCH  26  28
ATOM     27  C   UNL     1       2.807   1.790  17.926  0.00  0.00    +0.000 C 
ATOM     28  N   UNL     1       1.950   1.726  19.114  0.00  0.00    +0.000 NA
ATOM     29  H   UNL     1       2.540   1.988  19.940  0.00  0.00    +0.000 HD
ENDBRANCH  26  28
ENDBRANCH  23  26
ENDBRANCH  22  23
ENDBRANCH  21  22
ENDBRANCH   1  21
TORSDOF 12
ENDMDL
MODEL 3
REMARK VINA RESULT:      -7.3      1.534      1.874
REMARK  Name = 
REMARK  13 active torsions:
REMARK  status: ('A' for Active; 'I' for Inactive)
REMARK    1  A    between atoms: C_1  and  N_2
REMARK    2  A    between atoms: N_2  and  C_3
REMARK    3  A    between atoms: C_3  and  C_4
REMARK    4  A    between atoms: C_4  and  O_5
REMARK    5  A    between atoms: C_4  and  C_6
REMARK    6  A    between atoms: C_6  and  O_7
REMARK    7  A    between atoms: O_7  and  C_8
REMARK    8  A    between atoms: C_11  and  S_12
REMARK    9  A    between atoms: S_12  and  N_15
REMARK   10  A    between atoms: N_15  and  C_16
REMARK   11  A    between atoms: C_16  and  C_17
REMARK   12  A    between atoms: C_17  and  O_18
REMARK   13  A    between atoms: O_18  and  C_19
REMARK                            x       y       z     vdW  Elec       q    Type
REMARK                         _______ _______ _______ _____ _____    ______ ____
ROOT
ATOM      1  C   UNL     1       3.544   4.907  19.438  0.00  0.00    +0.000 A 
ATOM      2  C   UNL     1       3.199   5.269  18.120  0.00  0.00    +0.000 A 
ATOM      3  C   UNL     1       4.190   5.460  17.159  0.00  0.00    +0.000 A 
ATOM      4  C   UNL     1       5.539   5.301  17.497  0.00  0.00    +0.000 A 
ATOM      5  C   UNL     1       5.890   4.946  18.805  0.00  0.00    +0.000 A 
ATOM      6  C   UNL     1       4.895   4.747  19.771  0.00  0.00    +0.000 A 
ENDROOT
BRANCH   4   7
ATOM      7  S   UNL     1       6.817   5.593  16.264  0.00  0.00    +0.000 S 
ATOM      8  O   UNL     1       7.738   4.378  16.073  0.00  0.00    +0.000 OA
ATOM      9  O   UNL     1       6.259   5.800  14.847  0.00  0.00    +0.000 OA
BRANCH   7  10
ATOM     10  N   UNL     1       7.904   6.972  16.573  0.00  0.00    +0.000 NA
ATOM     11  H   UNL     1       8.130   7.427  15.659  0.00  0.00    +0.000 HD
BRANCH  10  12
ATOM     12  C   UNL     1       7.310   7.971  17.475  0.00  0.00    +0.000 C 
BRANCH  12  13
ATOM     13  C   UNL     1       8.367   8.569  18.404  0.00  0.00    +0.000 C 
BRANCH  13  14
ATOM     14  O   UNL     1       8.355   9.949  18.379  0.00  0.00    +0.000 OA
BRANCH  14  15
ATOM     15  C   UNL     1       9.395  10.712  18.813  0.00  0.00    +0.000 A 
ATOM     16  C   UNL     1       9.587  11.015  20.182  0.00  0.00    +0.000 A 
ATOM     17  C   UNL     1      10.661  11.809  20.588  0.00  0.00    +0.000 A 
ATOM     18  C   UNL     1      11.555  12.312  19.642  0.00  0.00    +0.000 A 
ATOM     19  C   UNL     1      11.375  12.020  18.287  0.00  0.00    +0.000 A 
ATOM     20  C   UNL     1      10.301  11.222  17.874  0.00  0.00    +0.000 A 
ENDBRANCH  14  15
ENDBRANCH  13  14
ENDBRANCH  12  13
ENDBRANCH  10  12
ENDBRANCH   7  10
ENDBRANCH   4   7
BRANCH   1  21
ATOM     21  O   UNL     1       2.607   4.710  20.401  0.00  0.00    +0.000 OA
BRANCH  21  22
ATOM     22  C   UNL     1       1.239   4.746  20.199  0.00  0.00    +0.000 C 
BRANCH  22  23
ATOM     23  C   UNL     1       0.644   3.343  20.372  0.00  0.00    +0.000 C 
BRANCH  23  24
ATOM     24  O   UNL     1       1.275   2.675  21.439  0.00  0.00    +0.000 OA
ATOM     25  H   UNL     1       0.944   3.081  22.285  0.00  0.00    +0.000 HD
ENDBRANCH  23  24
BRANCH  23  26
ATOM     26  C   UNL     1       0.744   2.510  19.076  0.00  0.00    +0.000 C 
BRANCH  26  28
ATOM     27  C   UNL     1       2.729   1.957  17.771  0.00  0.00    +0.000 C 
ATOM     28  N   UNL     1       1.986   1.726  19.013  0.00  0.00    +0.000 NA
ATOM     29  H   UNL     1       2.595   2.044  19.805  0.00  0.00    +0.000 HD
ENDBRANCH  26  28
ENDBRANCH  23  26
ENDBRANCH  22  23
ENDBRANCH  21  22
ENDBRANCH   1  21
TORSDOF 12
ENDMDL
MODEL 4
REMARK VINA RESULT:      -7.3      1.104      1.567
REMARK  Name = 
REMARK  13 active torsions:
REMARK  status: ('A' for Active; 'I' for Inactive)
REMARK    1  A    between atoms: C_1  and  N_2
REMARK    2  A    between atoms: N_2  and  C_3
REMARK    3  A    between atoms: C_3  and  C_4
REMARK    4  A    between atoms: C_4  and  O_5
REMARK    5  A    between atoms: C_4  and  C_6
REMARK    6  A    between atoms: C_6  and  O_7
REMARK    7  A    between atoms: O_7  and  C_8
REMARK    8  A    between atoms: C_11  and  S_12
REMARK    9  A    between atoms: S_12  and  N_15
REMARK   10  A    between atoms: N_15  and  C_16
REMARK   11  A    between atoms: C_16  and  C_17
REMARK   12  A    between atoms: C_17  and  O_18
REMARK   13  A    between atoms: O_18  and  C_19
REMARK                            x       y       z     vdW  Elec       q    Type
REMARK                         _______ _______ _______ _____ _____    ______ ____
ROOT
ATOM      1  C   UNL     1       2.699   4.554  17.659  0.00  0.00    +0.000 A 
ATOM      2  C   UNL     1       3.269   5.829  17.849  0.00  0.00    +0.000 A 
ATOM      3  C   UNL     1       4.570   6.090  17.422  0.00  0.00    +0.000 A 
ATOM      4  C   UNL     1       5.326   5.085  16.807  0.00  0.00    +0.000 A 
ATOM      5  C   UNL     1       4.768   3.815  16.619  0.00  0.00    +0.000 A 
ATOM      6  C   UNL     1       3.458   3.551  17.041  0.00  0.00    +0.000 A 
ENDROOT
BRANCH   4   7
ATOM      7  S   UNL     1       7.019   5.414  16.298  0.00  0.00    +0.000 S 
ATOM      8  O   UNL     1       8.024   4.442  16.936  0.00  0.00    +0.000 OA
ATOM      9  O   UNL     1       7.260   5.185  14.797  0.00  0.00    +0.000 OA
BRANCH   7  10
ATOM     10  N   UNL     1       7.643   7.046  16.654  0.00  0.00    +0.000 NA
ATOM     11  H   UNL     1       7.158   7.730  16.030  0.00  0.00    +0.000 HD
BRANCH  10  12
ATOM     12  C   UNL     1       7.432   7.439  18.056  0.00  0.00    +0.000 C 
BRANCH  12  13
ATOM     13  C   UNL     1       8.593   8.294  18.567  0.00  0.00    +0.000 C 
BRANCH  13  14
ATOM     14  O   UNL     1       8.451   9.620  18.213  0.00  0.00    +0.000 OA
BRANCH  14  15
ATOM     15  C   UNL     1       9.215  10.618  18.739  0.00  0.00    +0.000 A 
ATOM     16  C   UNL     1       9.526  10.682  20.118  0.00  0.00    +0.000 A 
ATOM     17  C   UNL     1      10.303  11.725  20.621  0.00  0.00    +0.000 A 
ATOM     18  C   UNL     1      10.781  12.717  19.764  0.00  0.00    +0.000 A 
ATOM     19  C   UNL     1      10.480  12.665  18.400  0.00  0.00    +0.000 A 
ATOM     20  C   UNL     1       9.702  11.620  17.889  0.00  0.00    +0.000 A 
ENDBRANCH  14  15
ENDBRANCH  13  14
ENDBRANCH  12  13
ENDBRANCH  10  12
ENDBRANCH   7  10
ENDBRANCH   4   7
BRANCH   1  21
ATOM     21  O   UNL     1       1.435   4.261  18.059  0.00  0.00    +0.000 OA
BRANCH  21  22
ATOM     22  C   UNL     1       1.025   3.042  18.569  0.00  0.00    +0.000 C 
BRANCH  22  23
ATOM     23  C   UNL     1       0.836   3.144  20.088  0.00  0.00    +0.000 C 
BRANCH  23  24
ATOM     24  O   UNL     1       0.708   4.493  20.472  0.00  0.00    +0.000 OA
ATOM     25  H   UNL     1      -0.069   4.872  19.981  0.00  0.00    +0.000 HD
ENDBRANCH  23  24
BRANCH  23  26
ATOM     26  C   UNL     1       1.989   2.467  20.860  0.00  0.00    +0.000 C 
BRANCH  26  28
ATOM     27  C   UNL     1       4.336   2.208  20.247  0.00  0.00    +0.000 C 
ATOM     28  N   UNL     1       3.276   3.142  20.640  0.00  0.00    +0.000 NA
ATOM     29  H   UNL     1       3.144   3.816  19.848  0.00  0.00    +0.000 HD
ENDBRANCH  26  28
ENDBRANCH  23  26
ENDBRANCH  22  23
ENDBRANCH  21  22
ENDBRANCH   1  21
TORSDOF 12
ENDMDL
MODEL 5
REMARK VINA RESULT:      -7.3      1.686      2.347
REMARK  Name = 
REMARK  13 active torsions:
REMARK  status: ('A' for Active; 'I' for Inactive)
REMARK    1  A    between atoms: C_1  and  N_2
REMARK    2  A    between atoms: N_2  and  C_3
REMARK    3  A    between atoms: C_3  and  C_4
REMARK    4  A    between atoms: C_4  and  O_5
REMARK    5  A    between atoms: C_4  and  C_6
REMARK    6  A    between atoms: C_6  and  O_7
REMARK    7  A    between atoms: O_7  and  C_8
REMARK    8  A    between atoms: C_11  and  S_12
REMARK    9  A    between atoms: S_12  and  N_15
REMARK   10  A    between atoms: N_15  and  C_16
REMARK   11  A    between atoms: C_16  and  C_17
REMARK   12  A    between atoms: C_17  and  O_18
REMARK   13  A    between atoms: O_18  and  C_19
REMARK                            x       y       z     vdW  Elec       q    Type
REMARK                         _______ _______ _______ _____ _____    ______ ____
ROOT
ATOM      1  C   UNL     1       3.789   3.131  18.854  0.00  0.00    +0.000 A 
ATOM      2  C   UNL     1       3.528   3.165  17.469  0.00  0.00    +0.000 A 
ATOM      3  C   UNL     1       4.301   3.961  16.625  0.00  0.00    +0.000 A 
ATOM      4  C   UNL     1       5.339   4.740  17.147  0.00  0.00    +0.000 A 
ATOM      5  C   UNL     1       5.602   4.715  18.522  0.00  0.00    +0.000 A 
ATOM      6  C   UNL     1       4.830   3.911  19.372  0.00  0.00    +0.000 A 
ENDROOT
BRANCH   4   7
ATOM      7  S   UNL     1       6.305   5.799  16.061  0.00  0.00    +0.000 S 
ATOM      8  O   UNL     1       6.926   5.028  14.886  0.00  0.00    +0.000 OA
ATOM      9  O   UNL     1       5.461   6.861  15.337  0.00  0.00    +0.000 OA
BRANCH   7  10
ATOM     10  N   UNL     1       7.657   6.679  16.821  0.00  0.00    +0.000 NA
ATOM     11  H   UNL     1       8.416   6.800  16.111  0.00  0.00    +0.000 HD
BRANCH  10  12
ATOM     12  C   UNL     1       7.258   8.000  17.330  0.00  0.00    +0.000 C 
BRANCH  12  13
ATOM     13  C   UNL     1       8.353   8.603  18.211  0.00  0.00    +0.000 C 
BRANCH  13  14
ATOM     14  O   UNL     1       8.446   9.971  18.055  0.00  0.00    +0.000 OA
BRANCH  14  15
ATOM     15  C   UNL     1       9.419  10.724  18.638  0.00  0.00    +0.000 A 
ATOM     16  C   UNL     1      10.443  11.347  17.886  0.00  0.00    +0.000 A 
ATOM     17  C   UNL     1      11.428  12.103  18.521  0.00  0.00    +0.000 A 
ATOM     18  C   UNL     1      11.411  12.249  19.908  0.00  0.00    +0.000 A 
ATOM     19  C   UNL     1      10.406  11.638  20.663  0.00  0.00    +0.000 A 
ATOM     20  C   UNL     1       9.413  10.880  20.031  0.00  0.00    +0.000 A 
ENDBRANCH  14  15
ENDBRANCH  13  14
ENDBRANCH  12  13
ENDBRANCH  10  12
ENDBRANCH   7  10
ENDBRANCH   4   7
BRANCH   1  21
ATOM     21  O   UNL     1       3.059   2.368  19.707  0.00  0.00    +0.000 OA
BRANCH  21  22
ATOM     22  C   UNL     1       2.610   2.774  20.952  0.00  0.00    +0.000 C 
BRANCH  22  23
ATOM     23  C   UNL     1       1.182   3.324  20.841  0.00  0.00    +0.000 C 
BRANCH  23  24
ATOM     24  O   UNL     1       0.391   2.468  20.051  0.00  0.00    +0.000 OA
ATOM     25  H   UNL     1       0.372   1.580  20.498  0.00  0.00    +0.000 HD
ENDBRANCH  23  24
BRANCH  23  26
ATOM     26  C   UNL     1       1.159   4.760  20.276  0.00  0.00    +0.000 C 
BRANCH  26  28
ATOM     27  C   UNL     1       1.971   7.044  20.559  0.00  0.00    +0.000 C 
ATOM     28  N   UNL     1       2.125   5.639  20.952  0.00  0.00    +0.000 NA
ATOM     29  H   UNL     1       1.933   5.580  21.981  0.00  0.00    +0.000 HD
ENDBRANCH  26  28
ENDBRANCH  23  26
ENDBRANCH  22  23
ENDBRANCH  21  22
ENDBRANCH   1  21
TORSDOF 12
ENDMDL
MODEL 6
REMARK VINA RESULT:      -7.2      1.528      2.373
REMARK  Name = 
REMARK  13 active torsions:
REMARK  status: ('A' for Active; 'I' for Inactive)
REMARK    1  A    between atoms: C_1  and  N_2
REMARK    2  A    between atoms: N_2  and  C_3
REMARK    3  A    between atoms: C_3  and  C_4
REMARK    4  A    between atoms: C_4  and  O_5
REMARK    5  A    between atoms: C_4  and  C_6
REMARK    6  A    between atoms: C_6  and  O_7
REMARK    7  A    between atoms: O_7  and  C_8
REMARK    8  A    between atoms: C_11  and  S_12
REMARK    9  A    between atoms: S_12  and  N_15
REMARK   10  A    between atoms: N_15  and  C_16
REMARK   11  A    between atoms: C_16  and  C_17
REMARK   12  A    between atoms: C_17  and  O_18
REMARK   13  A    between atoms: O_18  and  C_19
REMARK                            x       y       z     vdW  Elec       q    Type
REMARK                         _______ _______ _______ _____ _____    ______ ____
ROOT
ATOM      1  C   UNL     1       3.937   3.142  19.146  0.00  0.00    +0.000 A 
ATOM      2  C   UNL     1       5.004   3.945  19.598  0.00  0.00    +0.000 A 
ATOM      3  C   UNL     1       5.706   4.753  18.704  0.00  0.00    +0.000 A 
ATOM      4  C   UNL     1       5.361   4.768  17.348  0.00  0.00    +0.000 A 
ATOM      5  C   UNL     1       4.306   3.970  16.891  0.00  0.00    +0.000 A 
ATOM      6  C   UNL     1       3.595   3.162  17.788  0.00  0.00    +0.000 A 
ENDROOT
BRANCH   4   7
ATOM      7  S   UNL     1       6.298   5.778  16.192  0.00  0.00    +0.000 S 
ATOM      8  O   UNL     1       7.695   5.205  15.907  0.00  0.00    +0.000 OA
ATOM      9  O   UNL     1       5.679   5.827  14.785  0.00  0.00    +0.000 OA
BRANCH   7  10
ATOM     10  N   UNL     1       6.567   7.475  16.671  0.00  0.00    +0.000 NA
ATOM     11  H   UNL     1       5.682   7.848  17.085  0.00  0.00    +0.000 HD
BRANCH  10  12
ATOM     12  C   UNL     1       7.656   7.621  17.649  0.00  0.00    +0.000 C 
BRANCH  12  13
ATOM     13  C   UNL     1       8.085   9.083  17.779  0.00  0.00    +0.000 C 
BRANCH  13  14
ATOM     14  O   UNL     1       8.933   9.279  18.850  0.00  0.00    +0.000 OA
BRANCH  14  15
ATOM     15  C   UNL     1       9.426  10.499  19.197  0.00  0.00    +0.000 A 
ATOM     16  C   UNL     1       9.823  11.455  18.232  0.00  0.00    +0.000 A 
ATOM     17  C   UNL     1      10.332  12.692  18.628  0.00  0.00    +0.000 A 
ATOM     18  C   UNL     1      10.455  12.996  19.984  0.00  0.00    +0.000 A 
ATOM     19  C   UNL     1      10.067  12.061  20.947  0.00  0.00    +0.000 A 
ATOM     20  C   UNL     1       9.554  10.818  20.557  0.00  0.00    +0.000 A 
ENDBRANCH  14  15
ENDBRANCH  13  14
ENDBRANCH  12  13
ENDBRANCH  10  12
ENDBRANCH   7  10
ENDBRANCH   4   7
BRANCH   1  21
ATOM     21  O   UNL     1       3.229   2.344  19.985  0.00  0.00    +0.000 OA
BRANCH  21  22
ATOM     22  C   UNL     1       2.552   2.777  21.112  0.00  0.00    +0.000 C 
BRANCH  22  23
ATOM     23  C   UNL     1       1.109   3.151  20.747  0.00  0.00    +0.000 C 
BRANCH  23  24
ATOM     24  O   UNL     1       0.676   2.397  19.639  0.00  0.00    +0.000 OA
ATOM     25  H   UNL     1       0.907   2.910  18.819  0.00  0.00    +0.000 HD
ENDBRANCH  23  24
BRANCH  23  26
ATOM     26  C   UNL     1       0.958   4.662  20.468  0.00  0.00    +0.000 C 
BRANCH  26  28
ATOM     27  C   UNL     1       2.414   6.520  19.851  0.00  0.00    +0.000 C 
ATOM     28  N   UNL     1       2.184   5.410  20.782  0.00  0.00    +0.000 NA
ATOM     29  H   UNL     1       2.061   5.824  21.738  0.00  0.00    +0.000 HD
ENDBRANCH  26  28
ENDBRANCH  23  26
ENDBRANCH  22  23
ENDBRANCH  21  22
ENDBRANCH   1  21
TORSDOF 12
ENDMDL
MODEL 7
REMARK VINA RESULT:      -7.2      0.695      1.192
REMARK  Name = 
REMARK  13 active torsions:
REMARK  status: ('A' for Active; 'I' for Inactive)
REMARK    1  A    between atoms: C_1  and  N_2
REMARK    2  A    between atoms: N_2  and  C_3
REMARK    3  A    between atoms: C_3  and  C_4
REMARK    4  A    between atoms: C_4  and  O_5
REMARK    5  A    between atoms: C_4  and  C_6
REMARK    6  A    between atoms: C_6  and  O_7
REMARK    7  A    between atoms: O_7  and  C_8
REMARK    8  A    between atoms: C_11  and  S_12
REMARK    9  A    between atoms: S_12  and  N_15
REMARK   10  A    between atoms: N_15  and  C_16
REMARK   11  A    between atoms: C_16  and  C_17
REMARK   12  A    between atoms: C_17  and  O_18
REMARK   13  A    between atoms: O_18  and  C_19
REMARK                            x       y       z     vdW  Elec       q    Type
REMARK                         _______ _______ _______ _____ _____    ______ ____
ROOT
ATOM      1  C   UNL     1       2.621   4.641  17.837  0.00  0.00    +0.000 A 
ATOM      2  C   UNL     1       3.277   3.760  16.954  0.00  0.00    +0.000 A 
ATOM      3  C   UNL     1       4.623   3.948  16.641  0.00  0.00    +0.000 A 
ATOM      4  C   UNL     1       5.332   5.020  17.195  0.00  0.00    +0.000 A 
ATOM      5  C   UNL     1       4.685   5.902  18.069  0.00  0.00    +0.000 A 
ATOM      6  C   UNL     1       3.335   5.712  18.390  0.00  0.00    +0.000 A 
ENDROOT
BRANCH   4   7
ATOM      7  S   UNL     1       7.055   5.285  16.753  0.00  0.00    +0.000 S 
ATOM      8  O   UNL     1       8.024   4.552  17.694  0.00  0.00    +0.000 OA
ATOM      9  O   UNL     1       7.431   4.694  15.384  0.00  0.00    +0.000 OA
BRANCH   7  10
ATOM     10  N   UNL     1       7.607   6.980  16.726  0.00  0.00    +0.000 NA
ATOM     11  H   UNL     1       6.852   7.569  16.305  0.00  0.00    +0.000 HD
BRANCH  10  12
ATOM     12  C   UNL     1       7.926   7.493  18.068  0.00  0.00    +0.000 C 
BRANCH  12  13
ATOM     13  C   UNL     1       8.324   8.968  18.011  0.00  0.00    +0.000 C 
BRANCH  13  14
ATOM     14  O   UNL     1       9.070   9.344  19.110  0.00  0.00    +0.000 OA
BRANCH  14  15
ATOM     15  C   UNL     1       9.560  10.602  19.284  0.00  0.00    +0.000 A 
ATOM     16  C   UNL     1      10.050  11.376  18.205  0.00  0.00    +0.000 A 
ATOM     17  C   UNL     1      10.554  12.658  18.424  0.00  0.00    +0.000 A 
ATOM     18  C   UNL     1      10.579  13.187  19.715  0.00  0.00    +0.000 A 
ATOM     19  C   UNL     1      10.099  12.433  20.789  0.00  0.00    +0.000 A 
ATOM     20  C   UNL     1       9.591  11.147  20.575  0.00  0.00    +0.000 A 
ENDBRANCH  14  15
ENDBRANCH  13  14
ENDBRANCH  12  13
ENDBRANCH  10  12
ENDBRANCH   7  10
ENDBRANCH   4   7
BRANCH   1  21
ATOM     21  O   UNL     1       1.313   4.490  18.168  0.00  0.00    +0.000 OA
BRANCH  21  22
ATOM     22  C   UNL     1       0.769   3.367  18.766  0.00  0.00    +0.000 C 
BRANCH  22  23
ATOM     23  C   UNL     1       1.879   2.524  19.409  0.00  0.00    +0.000 C 
BRANCH  23  24
ATOM     24  O   UNL     1       1.787   1.188  18.975  0.00  0.00    +0.000 OA
ATOM     25  H   UNL     1       2.666   0.755  19.149  0.00  0.00    +0.000 HD
ENDBRANCH  23  24
BRANCH  23  26
ATOM     26  C   UNL     1       1.839   2.598  20.951  0.00  0.00    +0.000 C 
BRANCH  26  28
ATOM     27  C   UNL     1       4.239   2.488  20.528  0.00  0.00    +0.000 C 
ATOM     28  N   UNL     1       3.184   2.556  21.544  0.00  0.00    +0.000 NA
ATOM     29  H   UNL     1       3.318   3.450  22.075  0.00  0.00    +0.000 HD
ENDBRANCH  26  28
ENDBRANCH  23  26
ENDBRANCH  22  23
ENDBRANCH  21  22
ENDBRANCH   1  21
TORSDOF 12
ENDMDL
MODEL 8
REMARK VINA RESULT:      -7.1      1.606      1.955
REMARK  Name = 
REMARK  13 active torsions:
REMARK  status: ('A' for Active; 'I' for Inactive)
REMARK    1  A    between atoms: C_1  and  N_2
REMARK    2  A    between atoms: N_2  and  C_3
REMARK    3  A    between atoms: C_3  and  C_4
REMARK    4  A    between atoms: C_4  and  O_5
REMARK    5  A    between atoms: C_4  and  C_6
REMARK    6  A    between atoms: C_6  and  O_7
REMARK    7  A    between atoms: O_7  and  C_8
REMARK    8  A    between atoms: C_11  and  S_12
REMARK    9  A    between atoms: S_12  and  N_15
REMARK   10  A    between atoms: N_15  and  C_16
REMARK   11  A    between atoms: C_16  and  C_17
REMARK   12  A    between atoms: C_17  and  O_18
REMARK   13  A    between atoms: O_18  and  C_19
REMARK                            x       y       z     vdW  Elec       q    Type
REMARK                         _______ _______ _______ _____ _____    ______ ____
ROOT
ATOM      1  C   UNL     1       3.035   5.317  19.770  0.00  0.00    +0.000 A 
ATOM      2  C   UNL     1       4.278   4.656  19.840  0.00  0.00    +0.000 A 
ATOM      3  C   UNL     1       5.289   4.958  18.930  0.00  0.00    +0.000 A 
ATOM      4  C   UNL     1       5.077   5.917  17.933  0.00  0.00    +0.000 A 
ATOM      5  C   UNL     1       3.844   6.575  17.854  0.00  0.00    +0.000 A 
ATOM      6  C   UNL     1       2.827   6.277  18.771  0.00  0.00    +0.000 A 
ENDROOT
BRANCH   4   7
ATOM      7  S   UNL     1       6.370   6.272  16.734  0.00  0.00    +0.000 S 
ATOM      8  O   UNL     1       7.529   5.266  16.803  0.00  0.00    +0.000 OA
ATOM      9  O   UNL     1       5.905   6.127  15.276  0.00  0.00    +0.000 OA
BRANCH   7  10
ATOM     10  N   UNL     1       7.129   7.882  16.850  0.00  0.00    +0.000 NA
ATOM     11  H   UNL     1       6.373   8.601  16.927  0.00  0.00    +0.000 HD
BRANCH  10  12
ATOM     12  C   UNL     1       8.026   8.002  18.010  0.00  0.00    +0.000 C 
BRANCH  12  13
ATOM     13  C   UNL     1       8.403   9.462  18.264  0.00  0.00    +0.000 C 
BRANCH  13  14
ATOM     14  O   UNL     1       9.307   9.589  19.298  0.00  0.00    +0.000 OA
BRANCH  14  15
ATOM     15  C   UNL     1       9.757  10.791  19.752  0.00  0.00    +0.000 A 
ATOM     16  C   UNL     1       9.237  11.400  20.919  0.00  0.00    +0.000 A 
ATOM     17  C   UNL     1       9.718  12.638  21.347  0.00  0.00    +0.000 A 
ATOM     18  C   UNL     1      10.718  13.287  20.623  0.00  0.00    +0.000 A 
ATOM     19  C   UNL     1      11.240  12.697  19.469  0.00  0.00    +0.000 A 
ATOM     20  C   UNL     1      10.763  11.454  19.035  0.00  0.00    +0.000 A 
ENDBRANCH  14  15
ENDBRANCH  13  14
ENDBRANCH  12  13
ENDBRANCH  10  12
ENDBRANCH   7  10
ENDBRANCH   4   7
BRANCH   1  21
ATOM     21  O   UNL     1       2.026   5.051  20.638  0.00  0.00    +0.000 OA
BRANCH  21  22
ATOM     22  C   UNL     1       0.789   4.539  20.287  0.00  0.00    +0.000 C 
BRANCH  22  23
ATOM     23  C   UNL     1       0.872   3.013  20.148  0.00  0.00    +0.000 C 
BRANCH  23  24
ATOM     24  O   UNL     1       1.719   2.480  21.138  0.00  0.00    +0.000 OA
ATOM     25  H   UNL     1       1.830   1.510  20.947  0.00  0.00    +0.000 HD
ENDBRANCH  23  24
BRANCH  23  26
ATOM     26  C   UNL     1       1.345   2.588  18.742  0.00  0.00    +0.000 C 
BRANCH  26  28
ATOM     27  C   UNL     1       3.488   1.675  18.017  0.00  0.00    +0.000 C 
ATOM     28  N   UNL     1       2.263   1.440  18.788  0.00  0.00    +0.000 NA
ATOM     29  H   UNL     1       2.544   1.306  19.789  0.00  0.00    +0.000 HD
ENDBRANCH  26  28
ENDBRANCH  23  26
ENDBRANCH  22  23
ENDBRANCH  21  22
ENDBRANCH   1  21
TORSDOF 12
ENDMDL
MODEL 9
REMARK VINA RESULT:      -6.9      4.764      8.028
REMARK  Name = 
REMARK  13 active torsions:
REMARK  status: ('A' for Active; 'I' for Inactive)
REMARK    1  A    between atoms: C_1  and  N_2
REMARK    2  A    between atoms: N_2  and  C_3
REMARK    3  A    between atoms: C_3  and  C_4
REMARK    4  A    between atoms: C_4  and  O_5
REMARK    5  A    between atoms: C_4  and  C_6
REMARK    6  A    between atoms: C_6  and  O_7
REMARK    7  A    between atoms: O_7  and  C_8
REMARK    8  A    between atoms: C_11  and  S_12
REMARK    9  A    between atoms: S_12  and  N_15
REMARK   10  A    between atoms: N_15  and  C_16
REMARK   11  A    between atoms: C_16  and  C_17
REMARK   12  A    between atoms: C_17  and  O_18
REMARK   13  A    between atoms: O_18  and  C_19
REMARK                            x       y       z     vdW  Elec       q    Type
REMARK                         _______ _______ _______ _____ _____    ______ ____
ROOT
ATOM      1  C   UNL     1       2.201   7.508  19.393  0.00  0.00    +0.000 A 
ATOM      2  C   UNL     1       2.577   8.079  18.160  0.00  0.00    +0.000 A 
ATOM      3  C   UNL     1       3.657   7.563  17.444  0.00  0.00    +0.000 A 
ATOM      4  C   UNL     1       4.382   6.477  17.948  0.00  0.00    +0.000 A 
ATOM      5  C   UNL     1       4.017   5.908  19.174  0.00  0.00    +0.000 A 
ATOM      6  C   UNL     1       2.928   6.421  19.893  0.00  0.00    +0.000 A 
ENDROOT
BRANCH   4   7
ATOM      7  S   UNL     1       5.801   5.843  17.043  0.00  0.00    +0.000 S 
ATOM      8  O   UNL     1       5.816   6.301  15.577  0.00  0.00    +0.000 OA
ATOM      9  O   UNL     1       7.144   6.383  17.562  0.00  0.00    +0.000 OA
BRANCH   7  10
ATOM     10  N   UNL     1       5.970   4.069  16.991  0.00  0.00    +0.000 NA
ATOM     11  H   UNL     1       5.826   3.693  17.956  0.00  0.00    +0.000 HD
BRANCH  10  12
ATOM     12  C   UNL     1       5.007   3.435  16.077  0.00  0.00    +0.000 C 
BRANCH  12  13
ATOM     13  C   UNL     1       3.686   3.143  16.789  0.00  0.00    +0.000 C 
BRANCH  13  14
ATOM     14  O   UNL     1       3.881   2.521  18.005  0.00  0.00    +0.000 OA
BRANCH  14  15
ATOM     15  C   UNL     1       3.048   2.685  19.069  0.00  0.00    +0.000 A 
ATOM     16  C   UNL     1       3.482   2.494  20.403  0.00  0.00    +0.000 A 
ATOM     17  C   UNL     1       2.596   2.663  21.467  0.00  0.00    +0.000 A 
ATOM     18  C   UNL     1       1.270   3.021  21.222  0.00  0.00    +0.000 A 
ATOM     19  C   UNL     1       0.829   3.211  19.910  0.00  0.00    +0.000 A 
ATOM     20  C   UNL     1       1.714   3.045  18.838  0.00  0.00    +0.000 A 
ENDBRANCH  14  15
ENDBRANCH  13  14
ENDBRANCH  12  13
ENDBRANCH  10  12
ENDBRANCH   7  10
ENDBRANCH   4   7
BRANCH   1  21
ATOM     21  O   UNL     1       1.155   7.981  20.118  0.00  0.00    +0.000 OA
BRANCH  21  22
ATOM     22  C   UNL     1       0.859   9.320  20.307  0.00  0.00    +0.000 C 
BRANCH  22  23
ATOM     23  C   UNL     1       0.979   9.680  21.793  0.00  0.00    +0.000 C 
BRANCH  23  24
ATOM     24  O   UNL     1       1.970   8.890  22.407  0.00  0.00    +0.000 OA
ATOM     25  H   UNL     1       1.751   7.937  22.222  0.00  0.00    +0.000 HD
ENDBRANCH  23  24
BRANCH  23  26
ATOM     26  C   UNL     1      -0.368   9.533  22.533  0.00  0.00    +0.000 C 
BRANCH  26  28
ATOM     27  C   UNL     1      -1.022  11.883  22.588  0.00  0.00    +0.000 C 
ATOM     28  N   UNL     1      -0.669  10.698  23.377  0.00  0.00    +0.000 NA
ATOM     29  H   UNL     1      -1.504  10.452  23.962  0.00  0.00    +0.000 HD
ENDBRANCH  26  28
ENDBRANCH  23  26
ENDBRANCH  22  23
ENDBRANCH  21  22
ENDBRANCH   1  21
TORSDOF 12
ENDMDL
