MODEL 1
REMARK VINA RESULT:      -6.8      0.000      0.000
REMARK  Name = 
REMARK  5 active torsions:
REMARK  status: ('A' for Active; 'I' for Inactive)
REMARK    1  A    between atoms: C_1  and  N_2
REMARK    2  A    between atoms: N_2  and  C_3
REMARK    3  A    between atoms: C_3  and  C_4
REMARK    4  A    between atoms: C_17  and  C_18
REMARK    5  A    between atoms: N_21  and  C_22
REMARK                            x       y       z     vdW  Elec       q    Type
REMARK                         _______ _______ _______ _____ _____    ______ ____
ROOT
ATOM      1  C   UNL     1       1.429   9.796  18.468  0.00  0.00    +0.000 C 
ATOM      2  O   UNL     1       1.932   9.820  17.339  0.00  0.00    +0.000 OA
ATOM      3  N   UNL     1       1.638   8.746  19.354  0.00  0.00    +0.000 N 
ATOM      4  C   UNL     1       1.140   8.695  20.741  0.00  0.00    +0.000 C 
ATOM      5  C   UNL     1       0.487   7.334  21.031  0.00  0.00    +0.000 C 
ATOM      6  C   UNL     1       1.456   6.285  20.620  0.00  0.00    +0.000 A 
ATOM      7  N   UNL     1       1.500   5.008  21.081  0.00  0.00    +0.000 N 
ATOM      8  C   UNL     1       2.570   4.352  20.500  0.00  0.00    +0.000 A 
ATOM      9  C   UNL     1       2.994   3.027  20.689  0.00  0.00    +0.000 A 
ATOM     10 CL   UNL     1       2.120   2.006  21.774  0.00  0.00    +0.000 Cl
ATOM     11  C   UNL     1       4.120   2.596  19.983  0.00  0.00    +0.000 A 
ATOM     12 CL   UNL     1       4.726   0.979  20.124  0.00  0.00    +0.000 Cl
ATOM     13  C   UNL     1       4.796   3.462  19.127  0.00  0.00    +0.000 A 
ATOM     14  C   UNL     1       4.376   4.793  18.935  0.00  0.00    +0.000 A 
ATOM     15  C   UNL     1       3.221   5.251  19.637  0.00  0.00    +0.000 A 
ATOM     16  C   UNL     1       2.472   6.473  19.703  0.00  0.00    +0.000 A 
ATOM     17  C   UNL     1       2.692   7.781  19.003  0.00  0.00    +0.000 C 
ATOM     18  H   UNL     1       0.871   4.589  21.756  0.00  0.00    +0.000 HD
ENDROOT
BRANCH  14  19
ATOM     19  C   UNL     1       5.120   5.649  18.008  0.00  0.00    +0.000 A 
ATOM     20  C   UNL     1       4.839   5.860  16.627  0.00  0.00    +0.000 A 
ATOM     21  C   UNL     1       5.796   6.737  16.176  0.00  0.00    +0.000 A 
ATOM     22  N   UNL     1       6.576   7.008  17.253  0.00  0.00    +0.000 N 
ATOM     23  C   UNL     1       7.688   7.929  17.306  0.00  0.00    +0.000 C 
ATOM     24  N   UNL     1       6.235   6.312  18.350  0.00  0.00    +0.000 NA
ENDBRANCH  14  19
BRANCH   1  25
ATOM     25  C   UNL     1       0.550  10.966  18.923  0.00  0.00    +0.000 C 
BRANCH  25  27
ATOM     26  C   UNL     1      -1.561  10.264  17.938  0.00  0.00    +0.000 C 
ATOM     27  N   UNL     1      -0.518  11.281  17.949  0.00  0.00    +0.000 NA
ATOM     28  H   UNL     1      -0.930  12.179  18.203  0.00  0.00    +0.000 HD
ENDBRANCH  25  27
ENDBRANCH   1  25
TORSDOF 3
ENDMDL
MODEL 2
REMARK VINA RESULT:      -6.2      9.276     10.540
REMARK  Name = 
REMARK  5 active torsions:
REMARK  status: ('A' for Active; 'I' for Inactive)
REMARK    1  A    between atoms: C_1  and  N_2
REMARK    2  A    between atoms: N_2  and  C_3
REMARK    3  A    between atoms: C_3  and  C_4
REMARK    4  A    between atoms: C_17  and  C_18
REMARK    5  A    between atoms: N_21  and  C_22
REMARK                            x       y       z     vdW  Elec       q    Type
REMARK                         _______ _______ _______ _____ _____    ______ ____
ROOT
ATOM      1  C   UNL     1       5.572  13.998  24.274  0.00  0.00    +0.000 C 
ATOM      2  O   UNL     1       4.624  14.397  23.591  0.00  0.00    +0.000 OA
ATOM      3  N   UNL     1       6.836  13.780  23.739  0.00  0.00    +0.000 N 
ATOM      4  C   UNL     1       8.029  13.388  24.512  0.00  0.00    +0.000 C 
ATOM      5  C   UNL     1       8.763  12.227  23.822  0.00  0.00    +0.000 C 
ATOM      6  C   UNL     1       8.973  12.620  22.405  0.00  0.00    +0.000 A 
ATOM      7  N   UNL     1       9.927  12.131  21.570  0.00  0.00    +0.000 N 
ATOM      8  C   UNL     1       9.836  12.777  20.350  0.00  0.00    +0.000 A 
ATOM      9  C   UNL     1      10.621  12.594  19.200  0.00  0.00    +0.000 A 
ATOM     10 CL   UNL     1      11.893  11.426  19.221  0.00  0.00    +0.000 Cl
ATOM     11  C   UNL     1      10.332  13.381  18.082  0.00  0.00    +0.000 A 
ATOM     12 CL   UNL     1      11.222  13.232  16.603  0.00  0.00    +0.000 Cl
ATOM     13  C   UNL     1       9.300  14.316  18.119  0.00  0.00    +0.000 A 
ATOM     14  C   UNL     1       8.511  14.504  19.271  0.00  0.00    +0.000 A 
ATOM     15  C   UNL     1       8.781  13.704  20.420  0.00  0.00    +0.000 A 
ATOM     16  C   UNL     1       8.221  13.563  21.734  0.00  0.00    +0.000 A 
ATOM     17  C   UNL     1       7.079  14.289  22.380  0.00  0.00    +0.000 C 
ATOM     18  H   UNL     1      10.616  11.422  21.791  0.00  0.00    +0.000 HD
ENDROOT
BRANCH  14  19
ATOM     19  C   UNL     1       7.430  15.493  19.240  0.00  0.00    +0.000 A 
ATOM     20  C   UNL     1       7.500  16.850  19.669  0.00  0.00    +0.000 A 
ATOM     21  C   UNL     1       6.253  17.382  19.447  0.00  0.00    +0.000 A 
ATOM     22  N   UNL     1       5.517  16.372  18.917  0.00  0.00    +0.000 N 
ATOM     23  C   UNL     1       4.151  16.449  18.453  0.00  0.00    +0.000 C 
ATOM     24  N   UNL     1       6.179  15.206  18.847  0.00  0.00    +0.000 NA
ENDBRANCH  14  19
BRANCH   1  25
ATOM     25  C   UNL     1       5.363  13.739  25.771  0.00  0.00    +0.000 C 
BRANCH  25  27
ATOM     26  C   UNL     1       4.789  12.105  27.479  0.00  0.00    +0.000 C 
ATOM     27  N   UNL     1       4.949  12.348  26.050  0.00  0.00    +0.000 NA
ATOM     28  H   UNL     1       4.059  12.177  25.582  0.00  0.00    +0.000 HD
ENDBRANCH  25  27
ENDBRANCH   1  25
TORSDOF 3
ENDMDL
MODEL 3
REMARK VINA RESULT:      -6.2      7.600      9.613
REMARK  Name = 
REMARK  5 active torsions:
REMARK  status: ('A' for Active; 'I' for Inactive)
REMARK    1  A    between atoms: C_1  and  N_2
REMARK    2  A    between atoms: N_2  and  C_3
REMARK    3  A    between atoms: C_3  and  C_4
REMARK    4  A    between atoms: C_17  and  C_18
REMARK    5  A    between atoms: N_21  and  C_22
REMARK                            x       y       z     vdW  Elec       q    Type
REMARK                         _______ _______ _______ _____ _____    ______ ____
ROOT
ATOM      1  C   UNL     1      -3.135  10.405  16.105  0.00  0.00    +0.000 C 
ATOM      2  O   UNL     1      -2.012   9.924  16.284  0.00  0.00    +0.000 OA
ATOM      3  N   UNL     1      -3.753  11.222  17.044  0.00  0.00    +0.000 N 
ATOM      4  C   UNL     1      -5.052  11.898  16.858  0.00  0.00    +0.000 C 
ATOM      5  C   UNL     1      -5.945  11.700  18.093  0.00  0.00    +0.000 C 
ATOM      6  C   UNL     1      -5.143  12.088  19.282  0.00  0.00    +0.000 A 
ATOM      7  N   UNL     1      -5.634  12.488  20.484  0.00  0.00    +0.000 N 
ATOM      8  C   UNL     1      -4.580  12.812  21.320  0.00  0.00    +0.000 A 
ATOM      9  C   UNL     1      -4.621  13.273  22.645  0.00  0.00    +0.000 A 
ATOM     10 CL   UNL     1      -6.151  13.496  23.416  0.00  0.00    +0.000 Cl
ATOM     11  C   UNL     1      -3.405  13.538  23.281  0.00  0.00    +0.000 A 
ATOM     12 CL   UNL     1      -3.331  14.096  24.919  0.00  0.00    +0.000 Cl
ATOM     13  C   UNL     1      -2.198  13.351  22.611  0.00  0.00    +0.000 A 
ATOM     14  C   UNL     1      -2.152  12.889  21.281  0.00  0.00    +0.000 A 
ATOM     15  C   UNL     1      -3.381  12.602  20.616  0.00  0.00    +0.000 A 
ATOM     16  C   UNL     1      -3.763  12.106  19.325  0.00  0.00    +0.000 A 
ATOM     17  C   UNL     1      -2.917  11.711  18.152  0.00  0.00    +0.000 C 
ATOM     18  H   UNL     1      -6.612  12.563  20.742  0.00  0.00    +0.000 HD
ENDROOT
BRANCH  14  19
ATOM     19  C   UNL     1      -0.849  12.697  20.638  0.00  0.00    +0.000 A 
ATOM     20  C   UNL     1      -0.004  11.555  20.744  0.00  0.00    +0.000 A 
ATOM     21  C   UNL     1       1.099  11.828  19.971  0.00  0.00    +0.000 A 
ATOM     22  N   UNL     1       0.883  13.064  19.454  0.00  0.00    +0.000 N 
ATOM     23  C   UNL     1       1.730  13.772  18.523  0.00  0.00    +0.000 C 
ATOM     24  N   UNL     1      -0.248  13.639  19.895  0.00  0.00    +0.000 NA
ENDBRANCH  14  19
BRANCH   1  25
ATOM     25  C   UNL     1      -3.882  10.107  14.800  0.00  0.00    +0.000 C 
BRANCH  25  27
ATOM     26  C   UNL     1      -3.704   9.823  12.390  0.00  0.00    +0.000 C 
ATOM     27  N   UNL     1      -2.992  10.151  13.619  0.00  0.00    +0.000 NA
ATOM     28  H   UNL     1      -2.607  11.091  13.540  0.00  0.00    +0.000 HD
ENDBRANCH  25  27
ENDBRANCH   1  25
TORSDOF 3
ENDMDL
MODEL 4
REMARK VINA RESULT:      -6.1      3.349      6.729
REMARK  Name = 
REMARK  5 active torsions:
REMARK  status: ('A' for Active; 'I' for Inactive)
REMARK    1  A    between atoms: C_1  and  N_2
REMARK    2  A    between atoms: N_2  and  C_3
REMARK    3  A    between atoms: C_3  and  C_4
REMARK    4  A    between atoms: C_17  and  C_18
REMARK    5  A    between atoms: N_21  and  C_22
REMARK                            x       y       z     vdW  Elec       q    Type
REMARK                         _______ _______ _______ _____ _____    ______ ____
ROOT
ATOM      1  C   UNL     1       5.285   3.980  15.943  0.00  0.00    +0.000 C 
ATOM      2  O   UNL     1       4.725   2.909  16.199  0.00  0.00    +0.000 OA
ATOM      3  N   UNL     1       4.980   5.158  16.613  0.00  0.00    +0.000 N 
ATOM      4  C   UNL     1       5.667   6.449  16.417  0.00  0.00    +0.000 C 
ATOM      5  C   UNL     1       4.647   7.587  16.263  0.00  0.00    +0.000 C 
ATOM      6  C   UNL     1       3.703   7.489  17.406  0.00  0.00    +0.000 A 
ATOM      7  N   UNL     1       2.947   8.499  17.911  0.00  0.00    +0.000 N 
ATOM      8  C   UNL     1       2.236   8.032  19.003  0.00  0.00    +0.000 A 
ATOM      9  C   UNL     1       1.339   8.728  19.827  0.00  0.00    +0.000 A 
ATOM     10 CL   UNL     1       1.018  10.395  19.511  0.00  0.00    +0.000 Cl
ATOM     11  C   UNL     1       0.745   8.027  20.881  0.00  0.00    +0.000 A 
ATOM     12 CL   UNL     1      -0.389   8.777  21.955  0.00  0.00    +0.000 Cl
ATOM     13  C   UNL     1       1.045   6.685  21.100  0.00  0.00    +0.000 A 
ATOM     14  C   UNL     1       1.946   5.982  20.275  0.00  0.00    +0.000 A 
ATOM     15  C   UNL     1       2.555   6.675  19.187  0.00  0.00    +0.000 A 
ATOM     16  C   UNL     1       3.470   6.339  18.134  0.00  0.00    +0.000 A 
ATOM     17  C   UNL     1       4.151   5.039  17.823  0.00  0.00    +0.000 C 
ATOM     18  H   UNL     1       2.909   9.453  17.570  0.00  0.00    +0.000 HD
ENDROOT
BRANCH  14  19
ATOM     19  C   UNL     1       2.207   4.567  20.548  0.00  0.00    +0.000 A 
ATOM     20  C   UNL     1       1.242   3.564  20.857  0.00  0.00    +0.000 A 
ATOM     21  C   UNL     1       1.950   2.399  21.027  0.00  0.00    +0.000 A 
ATOM     22  N   UNL     1       3.250   2.730  20.823  0.00  0.00    +0.000 N 
ATOM     23  C   UNL     1       4.382   1.833  20.830  0.00  0.00    +0.000 C 
ATOM     24  N   UNL     1       3.441   4.041  20.603  0.00  0.00    +0.000 NA
ENDBRANCH  14  19
BRANCH   1  25
ATOM     25  C   UNL     1       6.364   4.022  14.855  0.00  0.00    +0.000 C 
BRANCH  25  27
ATOM     26  C   UNL     1       6.683   3.773  12.456  0.00  0.00    +0.000 C 
ATOM     27  N   UNL     1       5.956   3.303  13.628  0.00  0.00    +0.000 NA
ATOM     28  H   UNL     1       6.144   2.309  13.760  0.00  0.00    +0.000 HD
ENDBRANCH  25  27
ENDBRANCH   1  25
TORSDOF 3
ENDMDL
MODEL 5
REMARK VINA RESULT:      -6.0      6.261      9.050
REMARK  Name = 
REMARK  5 active torsions:
REMARK  status: ('A' for Active; 'I' for Inactive)
REMARK    1  A    between atoms: C_1  and  N_2
REMARK    2  A    between atoms: N_2  and  C_3
REMARK    3  A    between atoms: C_3  and  C_4
REMARK    4  A    between atoms: C_17  and  C_18
REMARK    5  A    between atoms: N_21  and  C_22
REMARK                            x       y       z     vdW  Elec       q    Type
REMARK                         _______ _______ _______ _____ _____    ______ ____
ROOT
ATOM      1  C   UNL     1      -3.255  10.207  15.483  0.00  0.00    +0.000 C 
ATOM      2  O   UNL     1      -2.164   9.626  15.512  0.00  0.00    +0.000 OA
ATOM      3  N   UNL     1      -3.664  11.072  16.490  0.00  0.00    +0.000 N 
ATOM      4  C   UNL     1      -4.910  11.861  16.476  0.00  0.00    +0.000 C 
ATOM      5  C   UNL     1      -5.643  11.740  17.822  0.00  0.00    +0.000 C 
ATOM      6  C   UNL     1      -4.656  12.050  18.888  0.00  0.00    +0.000 A 
ATOM      7  N   UNL     1      -4.942  12.488  20.142  0.00  0.00    +0.000 N 
ATOM      8  C   UNL     1      -3.760  12.713  20.825  0.00  0.00    +0.000 A 
ATOM      9  C   UNL     1      -3.580  13.172  22.139  0.00  0.00    +0.000 A 
ATOM     10 CL   UNL     1      -4.965  13.527  23.108  0.00  0.00    +0.000 Cl
ATOM     11  C   UNL     1      -2.270  13.324  22.603  0.00  0.00    +0.000 A 
ATOM     12 CL   UNL     1      -1.925  13.868  24.211  0.00  0.00    +0.000 Cl
ATOM     13  C   UNL     1      -1.186  13.033  21.778  0.00  0.00    +0.000 A 
ATOM     14  C   UNL     1      -1.362  12.574  20.457  0.00  0.00    +0.000 A 
ATOM     15  C   UNL     1      -2.690  12.400  19.967  0.00  0.00    +0.000 A 
ATOM     16  C   UNL     1      -3.287  11.945  18.744  0.00  0.00    +0.000 A 
ATOM     17  C   UNL     1      -2.646  11.481  17.470  0.00  0.00    +0.000 C 
ATOM     18  H   UNL     1      -5.865  12.649  20.529  0.00  0.00    +0.000 HD
ENDROOT
BRANCH  14  19
ATOM     19  C   UNL     1      -0.181  12.268  19.646  0.00  0.00    +0.000 A 
ATOM     20  C   UNL     1       0.739  13.204  19.089  0.00  0.00    +0.000 A 
ATOM     21  C   UNL     1       1.677  12.458  18.417  0.00  0.00    +0.000 A 
ATOM     22  N   UNL     1       1.303  11.165  18.589  0.00  0.00    +0.000 N 
ATOM     23  C   UNL     1       2.006   9.992  18.122  0.00  0.00    +0.000 C 
ATOM     24  N   UNL     1       0.150  11.025  19.264  0.00  0.00    +0.000 NA
ENDBRANCH  14  19
BRANCH   1  25
ATOM     25  C   UNL     1      -4.194   9.981  14.293  0.00  0.00    +0.000 C 
BRANCH  25  27
ATOM     26  C   UNL     1      -4.378   9.800  11.874  0.00  0.00    +0.000 C 
ATOM     27  N   UNL     1      -3.504  10.128  12.994  0.00  0.00    +0.000 NA
ATOM     28  H   UNL     1      -3.193  11.094  12.902  0.00  0.00    +0.000 HD
ENDBRANCH  25  27
ENDBRANCH   1  25
TORSDOF 3
ENDMDL
MODEL 6
REMARK VINA RESULT:      -5.9      8.170     11.271
REMARK  Name = 
REMARK  5 active torsions:
REMARK  status: ('A' for Active; 'I' for Inactive)
REMARK    1  A    between atoms: C_1  and  N_2
REMARK    2  A    between atoms: N_2  and  C_3
REMARK    3  A    between atoms: C_3  and  C_4
REMARK    4  A    between atoms: C_17  and  C_18
REMARK    5  A    between atoms: N_21  and  C_22
REMARK                            x       y       z     vdW  Elec       q    Type
REMARK                         _______ _______ _______ _____ _____    ______ ____
ROOT
ATOM      1  C   UNL     1      -3.553  10.953  16.812  0.00  0.00    +0.000 C 
ATOM      2  O   UNL     1      -4.726  11.286  16.616  0.00  0.00    +0.000 OA
ATOM      3  N   UNL     1      -2.857  11.318  17.958  0.00  0.00    +0.000 N 
ATOM      4  C   UNL     1      -1.488  10.886  18.295  0.00  0.00    +0.000 C 
ATOM      5  C   UNL     1      -0.639  12.083  18.751  0.00  0.00    +0.000 C 
ATOM      6  C   UNL     1      -1.407  12.788  19.810  0.00  0.00    +0.000 A 
ATOM      7  N   UNL     1      -0.889  13.594  20.773  0.00  0.00    +0.000 N 
ATOM      8  C   UNL     1      -1.910  14.024  21.602  0.00  0.00    +0.000 A 
ATOM      9  C   UNL     1      -1.833  14.863  22.725  0.00  0.00    +0.000 A 
ATOM     10 CL   UNL     1      -0.298  15.491  23.209  0.00  0.00    +0.000 Cl
ATOM     11  C   UNL     1      -3.019  15.149  23.407  0.00  0.00    +0.000 A 
ATOM     12 CL   UNL     1      -3.050  16.184  24.796  0.00  0.00    +0.000 Cl
ATOM     13  C   UNL     1      -4.231  14.610  22.982  0.00  0.00    +0.000 A 
ATOM     14  C   UNL     1      -4.312  13.766  21.856  0.00  0.00    +0.000 A 
ATOM     15  C   UNL     1      -3.116  13.470  21.138  0.00  0.00    +0.000 A 
ATOM     16  C   UNL     1      -2.776  12.709  19.970  0.00  0.00    +0.000 A 
ATOM     17  C   UNL     1      -3.646  11.897  19.058  0.00  0.00    +0.000 C 
ATOM     18  H   UNL     1       0.087  13.839  20.895  0.00  0.00    +0.000 HD
ENDROOT
BRANCH  14  19
ATOM     19  C   UNL     1      -5.620  13.244  21.450  0.00  0.00    +0.000 A 
ATOM     20  C   UNL     1      -6.674  13.971  20.826  0.00  0.00    +0.000 A 
ATOM     21  C   UNL     1      -7.693  13.070  20.633  0.00  0.00    +0.000 A 
ATOM     22  N   UNL     1      -7.233  11.892  21.123  0.00  0.00    +0.000 N 
ATOM     23  C   UNL     1      -7.914  10.618  21.096  0.00  0.00    +0.000 C 
ATOM     24  N   UNL     1      -6.016  11.983  21.686  0.00  0.00    +0.000 NA
ENDBRANCH  14  19
BRANCH   1  25
ATOM     25  C   UNL     1      -2.829  10.098  15.766  0.00  0.00    +0.000 C 
BRANCH  25  27
ATOM     26  C   UNL     1      -3.871   9.909  13.575  0.00  0.00    +0.000 C 
ATOM     27  N   UNL     1      -2.937  10.663  14.404  0.00  0.00    +0.000 NA
ATOM     28  H   UNL     1      -3.262  11.626  14.479  0.00  0.00    +0.000 HD
ENDBRANCH  25  27
ENDBRANCH   1  25
TORSDOF 3
ENDMDL
MODEL 7
REMARK VINA RESULT:      -5.9      7.298      9.937
REMARK  Name = 
REMARK  5 active torsions:
REMARK  status: ('A' for Active; 'I' for Inactive)
REMARK    1  A    between atoms: C_1  and  N_2
REMARK    2  A    between atoms: N_2  and  C_3
REMARK    3  A    between atoms: C_3  and  C_4
REMARK    4  A    between atoms: C_17  and  C_18
REMARK    5  A    between atoms: N_21  and  C_22
REMARK                            x       y       z     vdW  Elec       q    Type
REMARK                         _______ _______ _______ _____ _____    ______ ____
ROOT
ATOM      1  C   UNL     1      -1.461  14.986  24.488  0.00  0.00    +0.000 C 
ATOM      2  O   UNL     1      -0.349  15.232  24.007  0.00  0.00    +0.000 OA
ATOM      3  N   UNL     1      -2.424  14.257  23.803  0.00  0.00    +0.000 N 
ATOM      4  C   UNL     1      -3.734  13.856  24.349  0.00  0.00    +0.000 C 
ATOM      5  C   UNL     1      -4.856  14.159  23.342  0.00  0.00    +0.000 C 
ATOM      6  C   UNL     1      -4.452  13.562  22.043  0.00  0.00    +0.000 A 
ATOM      7  N   UNL     1      -5.286  13.203  21.032  0.00  0.00    +0.000 N 
ATOM      8  C   UNL     1      -4.544  12.639  20.010  0.00  0.00    +0.000 A 
ATOM      9  C   UNL     1      -4.991  12.126  18.782  0.00  0.00    +0.000 A 
ATOM     10 CL   UNL     1      -6.678  12.164  18.412  0.00  0.00    +0.000 Cl
ATOM     11  C   UNL     1      -4.034  11.599  17.910  0.00  0.00    +0.000 A 
ATOM     12 CL   UNL     1      -4.465  10.952  16.361  0.00  0.00    +0.000 Cl
ATOM     13  C   UNL     1      -2.686  11.583  18.259  0.00  0.00    +0.000 A 
ATOM     14  C   UNL     1      -2.233  12.095  19.491  0.00  0.00    +0.000 A 
ATOM     15  C   UNL     1      -3.191  12.648  20.392  0.00  0.00    +0.000 A 
ATOM     16  C   UNL     1      -3.151  13.275  21.682  0.00  0.00    +0.000 A 
ATOM     17  C   UNL     1      -1.986  13.559  22.583  0.00  0.00    +0.000 C 
ATOM     18  H   UNL     1      -6.295  13.305  21.017  0.00  0.00    +0.000 HD
ENDROOT
BRANCH  14  19
ATOM     19  C   UNL     1      -0.800  12.064  19.792  0.00  0.00    +0.000 A 
ATOM     20  C   UNL     1      -0.111  11.093  20.574  0.00  0.00    +0.000 A 
ATOM     21  C   UNL     1       1.209  11.473  20.574  0.00  0.00    +0.000 A 
ATOM     22  N   UNL     1       1.260  12.605  19.826  0.00  0.00    +0.000 N 
ATOM     23  C   UNL     1       2.443  13.357  19.476  0.00  0.00    +0.000 C 
ATOM     24  N   UNL     1       0.056  13.022  19.403  0.00  0.00    +0.000 NA
ENDBRANCH  14  19
BRANCH   1  25
ATOM     25  C   UNL     1      -1.798  15.491  25.896  0.00  0.00    +0.000 C 
BRANCH  25  27
ATOM     26  C   UNL     1      -0.392  16.961  27.231  0.00  0.00    +0.000 C 
ATOM     27  N   UNL     1      -0.601  15.598  26.758  0.00  0.00    +0.000 NA
ATOM     28  H   UNL     1      -0.727  14.982  27.561  0.00  0.00    +0.000 HD
ENDBRANCH  25  27
ENDBRANCH   1  25
TORSDOF 3
ENDMDL
MODEL 8
REMARK VINA RESULT:      -5.9      2.806      4.844
REMARK  Name = 
REMARK  5 active torsions:
REMARK  status: ('A' for Active; 'I' for Inactive)
REMARK    1  A    between atoms: C_1  and  N_2
REMARK    2  A    between atoms: N_2  and  C_3
REMARK    3  A    between atoms: C_3  and  C_4
REMARK    4  A    between atoms: C_17  and  C_18
REMARK    5  A    between atoms: N_21  and  C_22
REMARK                            x       y       z     vdW  Elec       q    Type
REMARK                         _______ _______ _______ _____ _____    ______ ____
ROOT
ATOM      1  C   UNL     1       0.659   8.819  21.066  0.00  0.00    +0.000 C 
ATOM      2  O   UNL     1       0.650   7.974  21.967  0.00  0.00    +0.000 OA
ATOM      3  N   UNL     1       1.236   8.578  19.825  0.00  0.00    +0.000 N 
ATOM      4  C   UNL     1       1.207   9.507  18.679  0.00  0.00    +0.000 C 
ATOM      5  C   UNL     1       2.605   9.639  18.055  0.00  0.00    +0.000 C 
ATOM      6  C   UNL     1       3.104   8.263  17.799  0.00  0.00    +0.000 A 
ATOM      7  N   UNL     1       4.050   7.910  16.890  0.00  0.00    +0.000 N 
ATOM      8  C   UNL     1       4.208   6.536  16.911  0.00  0.00    +0.000 A 
ATOM      9  C   UNL     1       5.071   5.740  16.140  0.00  0.00    +0.000 A 
ATOM     10 CL   UNL     1       6.110   6.494  14.985  0.00  0.00    +0.000 Cl
ATOM     11  C   UNL     1       5.040   4.358  16.345  0.00  0.00    +0.000 A 
ATOM     12 CL   UNL     1       6.069   3.279  15.463  0.00  0.00    +0.000 Cl
ATOM     13  C   UNL     1       4.176   3.798  17.283  0.00  0.00    +0.000 A 
ATOM     14  C   UNL     1       3.308   4.592  18.058  0.00  0.00    +0.000 A 
ATOM     15  C   UNL     1       3.330   6.006  17.873  0.00  0.00    +0.000 A 
ATOM     16  C   UNL     1       2.657   7.133  18.454  0.00  0.00    +0.000 A 
ATOM     17  C   UNL     1       1.609   7.186  19.525  0.00  0.00    +0.000 C 
ATOM     18  H   UNL     1       4.558   8.534  16.274  0.00  0.00    +0.000 HD
ENDROOT
BRANCH  14  19
ATOM     19  C   UNL     1       2.434   3.944  19.040  0.00  0.00    +0.000 A 
ATOM     20  C   UNL     1       1.078   3.551  18.850  0.00  0.00    +0.000 A 
ATOM     21  C   UNL     1       0.678   2.985  20.036  0.00  0.00    +0.000 A 
ATOM     22  N   UNL     1       1.759   3.055  20.854  0.00  0.00    +0.000 N 
ATOM     23  C   UNL     1       1.862   2.535  22.198  0.00  0.00    +0.000 C 
ATOM     24  N   UNL     1       2.807   3.691  20.304  0.00  0.00    +0.000 NA
ENDBRANCH  14  19
BRANCH   1  25
ATOM     25  C   UNL     1       0.004  10.184  21.308  0.00  0.00    +0.000 C 
BRANCH  25  27
ATOM     26  C   UNL     1      -1.318  11.110  23.128  0.00  0.00    +0.000 C 
ATOM     27  N   UNL     1      -0.031  10.545  22.742  0.00  0.00    +0.000 NA
ATOM     28  H   UNL     1       0.141   9.704  23.290  0.00  0.00    +0.000 HD
ENDBRANCH  25  27
ENDBRANCH   1  25
TORSDOF 3
ENDMDL
MODEL 9
REMARK VINA RESULT:      -5.9      7.776      9.978
REMARK  Name = 
REMARK  5 active torsions:
REMARK  status: ('A' for Active; 'I' for Inactive)
REMARK    1  A    between atoms: C_1  and  N_2
REMARK    2  A    between atoms: N_2  and  C_3
REMARK    3  A    between atoms: C_3  and  C_4
REMARK    4  A    between atoms: C_17  and  C_18
REMARK    5  A    between atoms: N_21  and  C_22
REMARK                            x       y       z     vdW  Elec       q    Type
REMARK                         _______ _______ _______ _____ _____    ______ ____
ROOT
ATOM      1  C   UNL     1      -5.739  12.261  19.003  0.00  0.00    +0.000 C 
ATOM      2  O   UNL     1      -6.113  13.166  19.756  0.00  0.00    +0.000 OA
ATOM      3  N   UNL     1      -4.403  11.898  18.880  0.00  0.00    +0.000 N 
ATOM      4  C   UNL     1      -3.899  10.775  18.068  0.00  0.00    +0.000 C 
ATOM      5  C   UNL     1      -2.696  11.218  17.220  0.00  0.00    +0.000 C 
ATOM      6  C   UNL     1      -1.731  11.878  18.137  0.00  0.00    +0.000 A 
ATOM      7  N   UNL     1      -0.396  12.018  17.930  0.00  0.00    +0.000 N 
ATOM      8  C   UNL     1       0.171  12.640  19.028  0.00  0.00    +0.000 A 
ATOM      9  C   UNL     1       1.516  12.979  19.246  0.00  0.00    +0.000 A 
ATOM     10 CL   UNL     1       2.690  12.608  18.035  0.00  0.00    +0.000 Cl
ATOM     11  C   UNL     1       1.842  13.605  20.453  0.00  0.00    +0.000 A 
ATOM     12 CL   UNL     1       3.465  14.083  20.827  0.00  0.00    +0.000 Cl
ATOM     13  C   UNL     1       0.859  13.874  21.402  0.00  0.00    +0.000 A 
ATOM     14  C   UNL     1      -0.492  13.534  21.188  0.00  0.00    +0.000 A 
ATOM     15  C   UNL     1      -0.849  12.905  19.958  0.00  0.00    +0.000 A 
ATOM     16  C   UNL     1      -2.064  12.440  19.353  0.00  0.00    +0.000 A 
ATOM     17  C   UNL     1      -3.470  12.454  19.874  0.00  0.00    +0.000 C 
ATOM     18  H   UNL     1       0.125  11.707  17.117  0.00  0.00    +0.000 HD
ENDROOT
BRANCH  14  19
ATOM     19  C   UNL     1      -1.481  13.859  22.219  0.00  0.00    +0.000 A 
ATOM     20  C   UNL     1      -1.939  13.006  23.263  0.00  0.00    +0.000 A 
ATOM     21  C   UNL     1      -2.854  13.740  23.978  0.00  0.00    +0.000 A 
ATOM     22  N   UNL     1      -2.906  14.950  23.366  0.00  0.00    +0.000 N 
ATOM     23  C   UNL     1      -3.681  16.097  23.781  0.00  0.00    +0.000 C 
ATOM     24  N   UNL     1      -2.144  15.026  22.262  0.00  0.00    +0.000 NA
ENDBRANCH  14  19
BRANCH   1  25
ATOM     25  C   UNL     1      -6.777  11.495  18.175  0.00  0.00    +0.000 C 
BRANCH  25  27
ATOM     26  C   UNL     1      -7.346  10.250  20.186  0.00  0.00    +0.000 C 
ATOM     27  N   UNL     1      -7.093  10.171  18.753  0.00  0.00    +0.000 NA
ATOM     28  H   UNL     1      -7.925   9.807  18.288  0.00  0.00    +0.000 HD
ENDBRANCH  25  27
ENDBRANCH   1  25
TORSDOF 3
ENDMDL
