MODEL 1
REMARK VINA RESULT:      -8.6      0.000      0.000
REMARK  Name = 
REMARK  5 active torsions:
REMARK  status: ('A' for Active; 'I' for Inactive)
REMARK    1  A    between atoms: C_1  and  C_2
REMARK    2  A    between atoms: N_4  and  C_5
REMARK    3  A    between atoms: C_13  and  C_14
REMARK    4  A    between atoms: N_15  and  N_16
REMARK    5  A    between atoms: C_17  and  C_19
REMARK                            x       y       z     vdW  Elec       q    Type
REMARK                         _______ _______ _______ _____ _____    ______ ____
ROOT
ATOM      1  C   UNL     1       8.072   4.525  17.836  0.00  0.00    +0.000 C 
ATOM      2  C   UNL     1       6.663   4.969  18.052  0.00  0.00    +0.000 A 
ATOM      3  N   UNL     1       5.695   4.083  18.516  0.00  0.00    +0.000 N 
ATOM      4  N   UNL     1       4.469   4.757  18.413  0.00  0.00    +0.000 N 
ATOM      5  C   UNL     1       4.701   6.073  18.012  0.00  0.00    +0.000 A 
ATOM      6  O   UNL     1       3.934   7.008  17.848  0.00  0.00    +0.000 OA
ATOM      7  C   UNL     1       6.161   6.191  17.801  0.00  0.00    +0.000 A 
ATOM      8  H   UNL     1       5.718   3.185  18.030  0.00  0.00    +0.000 HD
ENDROOT
BRANCH   4   9
ATOM      9  C   UNL     1       3.265   4.180  18.867  0.00  0.00    +0.000 A 
ATOM     10  C   UNL     1       2.432   3.487  17.980  0.00  0.00    +0.000 A 
ATOM     11  C   UNL     1       1.209   2.960  18.401  0.00  0.00    +0.000 A 
ATOM     12  C   UNL     1       0.799   3.125  19.720  0.00  0.00    +0.000 A 
ATOM     13  C   UNL     1       1.624   3.792  20.622  0.00  0.00    +0.000 A 
ATOM     14  C   UNL     1       2.856   4.305  20.203  0.00  0.00    +0.000 A 
ENDBRANCH   4   9
BRANCH   7  15
ATOM     15  C   UNL     1       6.842   7.420  17.383  0.00  0.00    +0.000 C 
ATOM     16  N   UNL     1       7.745   7.981  18.112  0.00  0.00    +0.000 NA
BRANCH  16  17
ATOM     17  N   UNL     1       8.288   9.144  17.669  0.00  0.00    +0.000 N 
ATOM     18  C   UNL     1       8.895   9.963  18.609  0.00  0.00    +0.000 C 
ATOM     19  O   UNL     1       9.015   9.691  19.801  0.00  0.00    +0.000 OA
ATOM     20  H   UNL     1       8.287   9.358  16.678  0.00  0.00    +0.000 HD
BRANCH  18  21
ATOM     21  C   UNL     1       9.463  11.243  18.118  0.00  0.00    +0.000 A 
ATOM     22  C   UNL     1      10.812  11.243  17.729  0.00  0.00    +0.000 A 
ATOM     23  C   UNL     1      11.428  12.421  17.309  0.00  0.00    +0.000 A 
ATOM     24  C   UNL     1      10.698  13.607  17.285  0.00  0.00    +0.000 A 
ATOM     25  C   UNL     1       9.362  13.601  17.678  0.00  0.00    +0.000 A 
ATOM     26  F   UNL     1       8.672  14.749  17.668  0.00  0.00    +0.000 F 
ATOM     27  C   UNL     1       8.732  12.433  18.096  0.00  0.00    +0.000 A 
ENDBRANCH  18  21
ENDBRANCH  16  17
ENDBRANCH   7  15
TORSDOF 4
ENDMDL
MODEL 2
REMARK VINA RESULT:      -8.5      1.744      2.025
REMARK  Name = 
REMARK  5 active torsions:
REMARK  status: ('A' for Active; 'I' for Inactive)
REMARK    1  A    between atoms: C_1  and  C_2
REMARK    2  A    between atoms: N_4  and  C_5
REMARK    3  A    between atoms: C_13  and  C_14
REMARK    4  A    between atoms: N_15  and  N_16
REMARK    5  A    between atoms: C_17  and  C_19
REMARK                            x       y       z     vdW  Elec       q    Type
REMARK                         _______ _______ _______ _____ _____    ______ ____
ROOT
ATOM      1  C   UNL     1       7.324   5.136  15.442  0.00  0.00    +0.000 C 
ATOM      2  C   UNL     1       6.440   4.999  16.638  0.00  0.00    +0.000 A 
ATOM      3  N   UNL     1       5.338   4.149  16.621  0.00  0.00    +0.000 N 
ATOM      4  N   UNL     1       4.628   4.408  17.803  0.00  0.00    +0.000 N 
ATOM      5  C   UNL     1       5.352   5.309  18.584  0.00  0.00    +0.000 A 
ATOM      6  O   UNL     1       5.132   5.763  19.696  0.00  0.00    +0.000 OA
ATOM      7  C   UNL     1       6.555   5.666  17.800  0.00  0.00    +0.000 A 
ATOM      8  H   UNL     1       4.780   4.245  15.770  0.00  0.00    +0.000 HD
ENDROOT
BRANCH   4   9
ATOM      9  C   UNL     1       3.481   3.669  18.156  0.00  0.00    +0.000 A 
ATOM     10  C   UNL     1       3.559   2.283  18.344  0.00  0.00    +0.000 A 
ATOM     11  C   UNL     1       2.421   1.529  18.637  0.00  0.00    +0.000 A 
ATOM     12  C   UNL     1       1.182   2.153  18.740  0.00  0.00    +0.000 A 
ATOM     13  C   UNL     1       1.088   3.534  18.578  0.00  0.00    +0.000 A 
ATOM     14  C   UNL     1       2.231   4.290  18.301  0.00  0.00    +0.000 A 
ENDBRANCH   4   9
BRANCH   7  15
ATOM     15  C   UNL     1       7.601   6.584  18.257  0.00  0.00    +0.000 C 
ATOM     16  N   UNL     1       7.560   7.848  18.000  0.00  0.00    +0.000 NA
BRANCH  16  17
ATOM     17  N   UNL     1       8.598   8.616  18.421  0.00  0.00    +0.000 N 
ATOM     18  C   UNL     1       8.538   9.974  18.146  0.00  0.00    +0.000 C 
ATOM     19  O   UNL     1       7.596  10.534  17.590  0.00  0.00    +0.000 OA
ATOM     20  H   UNL     1       9.348   8.202  18.961  0.00  0.00    +0.000 HD
BRANCH  18  21
ATOM     21  C   UNL     1       9.688  10.800  18.587  0.00  0.00    +0.000 A 
ATOM     22  C   UNL     1       9.885  10.945  19.970  0.00  0.00    +0.000 A 
ATOM     23  C   UNL     1      10.913  11.750  20.459  0.00  0.00    +0.000 A 
ATOM     24  C   UNL     1      11.743  12.422  19.564  0.00  0.00    +0.000 A 
ATOM     25  C   UNL     1      11.539  12.279  18.194  0.00  0.00    +0.000 A 
ATOM     26  F   UNL     1      12.331  12.942  17.341  0.00  0.00    +0.000 F 
ATOM     27  C   UNL     1      10.520  11.475  17.691  0.00  0.00    +0.000 A 
ENDBRANCH  18  21
ENDBRANCH  16  17
ENDBRANCH   7  15
TORSDOF 4
ENDMDL
MODEL 3
REMARK VINA RESULT:      -8.5      0.921      1.006
REMARK  Name = 
REMARK  5 active torsions:
REMARK  status: ('A' for Active; 'I' for Inactive)
REMARK    1  A    between atoms: C_1  and  C_2
REMARK    2  A    between atoms: N_4  and  C_5
REMARK    3  A    between atoms: C_13  and  C_14
REMARK    4  A    between atoms: N_15  and  N_16
REMARK    5  A    between atoms: C_17  and  C_19
REMARK                            x       y       z     vdW  Elec       q    Type
REMARK                         _______ _______ _______ _____ _____    ______ ____
ROOT
ATOM      1  C   UNL     1       8.398   5.449  19.468  0.00  0.00    +0.000 C 
ATOM      2  C   UNL     1       7.034   5.559  18.869  0.00  0.00    +0.000 A 
ATOM      3  N   UNL     1       6.059   4.599  19.126  0.00  0.00    +0.000 N 
ATOM      4  N   UNL     1       4.989   4.891  18.267  0.00  0.00    +0.000 N 
ATOM      5  C   UNL     1       5.257   6.081  17.590  0.00  0.00    +0.000 A 
ATOM      6  O   UNL     1       4.585   6.720  16.795  0.00  0.00    +0.000 OA
ATOM      7  C   UNL     1       6.605   6.511  18.023  0.00  0.00    +0.000 A 
ATOM      8  H   UNL     1       6.414   3.645  19.039  0.00  0.00    +0.000 HD
ENDROOT
BRANCH   4   9
ATOM      9  C   UNL     1       3.786   4.158  18.305  0.00  0.00    +0.000 A 
ATOM     10  C   UNL     1       3.725   2.867  17.765  0.00  0.00    +0.000 A 
ATOM     11  C   UNL     1       2.526   2.150  17.743  0.00  0.00    +0.000 A 
ATOM     12  C   UNL     1       1.366   2.720  18.258  0.00  0.00    +0.000 A 
ATOM     13  C   UNL     1       1.413   3.995  18.819  0.00  0.00    +0.000 A 
ATOM     14  C   UNL     1       2.616   4.705  18.855  0.00  0.00    +0.000 A 
ENDBRANCH   4   9
BRANCH   7  15
ATOM     15  C   UNL     1       7.275   7.730  17.560  0.00  0.00    +0.000 C 
ATOM     16  N   UNL     1       8.084   8.392  18.316  0.00  0.00    +0.000 NA
BRANCH  16  17
ATOM     17  N   UNL     1       8.622   9.537  17.821  0.00  0.00    +0.000 N 
ATOM     18  C   UNL     1       9.184  10.421  18.730  0.00  0.00    +0.000 C 
ATOM     19  O   UNL     1       9.267  10.222  19.940  0.00  0.00    +0.000 OA
ATOM     20  H   UNL     1       8.651   9.691  16.821  0.00  0.00    +0.000 HD
BRANCH  18  21
ATOM     21  C   UNL     1       9.746  11.680  18.183  0.00  0.00    +0.000 A 
ATOM     22  C   UNL     1      11.060  11.638  17.691  0.00  0.00    +0.000 A 
ATOM     23  C   UNL     1      11.674  12.795  17.211  0.00  0.00    +0.000 A 
ATOM     24  C   UNL     1      10.976  14.001  17.230  0.00  0.00    +0.000 A 
ATOM     25  C   UNL     1       9.675  14.036  17.725  0.00  0.00    +0.000 A 
ATOM     26  F   UNL     1       9.018  15.203  17.755  0.00  0.00    +0.000 F 
ATOM     27  C   UNL     1       9.047  12.889  18.203  0.00  0.00    +0.000 A 
ENDBRANCH  18  21
ENDBRANCH  16  17
ENDBRANCH   7  15
TORSDOF 4
ENDMDL
MODEL 4
REMARK VINA RESULT:      -8.3      1.858      2.065
REMARK  Name = 
REMARK  5 active torsions:
REMARK  status: ('A' for Active; 'I' for Inactive)
REMARK    1  A    between atoms: C_1  and  C_2
REMARK    2  A    between atoms: N_4  and  C_5
REMARK    3  A    between atoms: C_13  and  C_14
REMARK    4  A    between atoms: N_15  and  N_16
REMARK    5  A    between atoms: C_17  and  C_19
REMARK                            x       y       z     vdW  Elec       q    Type
REMARK                         _______ _______ _______ _____ _____    ______ ____
ROOT
ATOM      1  C   UNL     1       7.454   4.913  15.517  0.00  0.00    +0.000 C 
ATOM      2  C   UNL     1       6.485   4.820  16.649  0.00  0.00    +0.000 A 
ATOM      3  N   UNL     1       5.393   3.960  16.589  0.00  0.00    +0.000 N 
ATOM      4  N   UNL     1       4.594   4.264  17.702  0.00  0.00    +0.000 N 
ATOM      5  C   UNL     1       5.252   5.206  18.493  0.00  0.00    +0.000 A 
ATOM      6  O   UNL     1       4.946   5.707  19.564  0.00  0.00    +0.000 OA
ATOM      7  C   UNL     1       6.508   5.540  17.785  0.00  0.00    +0.000 A 
ATOM      8  H   UNL     1       4.899   4.012  15.696  0.00  0.00    +0.000 HD
ENDROOT
BRANCH   4   9
ATOM      9  C   UNL     1       3.429   3.531  18.002  0.00  0.00    +0.000 A 
ATOM     10  C   UNL     1       2.169   4.137  17.920  0.00  0.00    +0.000 A 
ATOM     11  C   UNL     1       1.009   3.441  18.270  0.00  0.00    +0.000 A 
ATOM     12  C   UNL     1       1.096   2.126  18.713  0.00  0.00    +0.000 A 
ATOM     13  C   UNL     1       2.338   1.499  18.780  0.00  0.00    +0.000 A 
ATOM     14  C   UNL     1       3.496   2.191  18.414  0.00  0.00    +0.000 A 
ENDBRANCH   4   9
BRANCH   7  15
ATOM     15  C   UNL     1       7.511   6.488  18.277  0.00  0.00    +0.000 C 
ATOM     16  N   UNL     1       7.590   7.694  17.824  0.00  0.00    +0.000 NA
BRANCH  16  17
ATOM     17  N   UNL     1       8.583   8.488  18.302  0.00  0.00    +0.000 N 
ATOM     18  C   UNL     1       8.441   9.857  18.130  0.00  0.00    +0.000 C 
ATOM     19  O   UNL     1       7.466  10.401  17.618  0.00  0.00    +0.000 OA
ATOM     20  H   UNL     1       9.358   8.079  18.810  0.00  0.00    +0.000 HD
BRANCH  18  21
ATOM     21  C   UNL     1       9.543  10.714  18.633  0.00  0.00    +0.000 A 
ATOM     22  C   UNL     1      10.567  11.043  17.731  0.00  0.00    +0.000 A 
ATOM     23  C   UNL     1      11.662  11.799  18.147  0.00  0.00    +0.000 A 
ATOM     24  C   UNL     1      11.740  12.223  19.471  0.00  0.00    +0.000 A 
ATOM     25  C   UNL     1      10.724  11.888  20.363  0.00  0.00    +0.000 A 
ATOM     26  F   UNL     1      10.815  12.285  21.639  0.00  0.00    +0.000 F 
ATOM     27  C   UNL     1       9.622  11.137  19.962  0.00  0.00    +0.000 A 
ENDBRANCH  18  21
ENDBRANCH  16  17
ENDBRANCH   7  15
TORSDOF 4
ENDMDL
MODEL 5
REMARK VINA RESULT:      -8.3      1.783      2.106
REMARK  Name = 
REMARK  5 active torsions:
REMARK  status: ('A' for Active; 'I' for Inactive)
REMARK    1  A    between atoms: C_1  and  C_2
REMARK    2  A    between atoms: N_4  and  C_5
REMARK    3  A    between atoms: C_13  and  C_14
REMARK    4  A    between atoms: N_15  and  N_16
REMARK    5  A    between atoms: C_17  and  C_19
REMARK                            x       y       z     vdW  Elec       q    Type
REMARK                         _______ _______ _______ _____ _____    ______ ____
ROOT
ATOM      1  C   UNL     1       7.080   5.561  14.911  0.00  0.00    +0.000 C 
ATOM      2  C   UNL     1       6.303   5.288  16.156  0.00  0.00    +0.000 A 
ATOM      3  N   UNL     1       5.206   4.431  16.144  0.00  0.00    +0.000 N 
ATOM      4  N   UNL     1       4.600   4.556  17.403  0.00  0.00    +0.000 N 
ATOM      5  C   UNL     1       5.385   5.379  18.210  0.00  0.00    +0.000 A 
ATOM      6  O   UNL     1       5.259   5.711  19.378  0.00  0.00    +0.000 OA
ATOM      7  C   UNL     1       6.515   5.831  17.368  0.00  0.00    +0.000 A 
ATOM      8  H   UNL     1       4.577   4.609  15.358  0.00  0.00    +0.000 HD
ENDROOT
BRANCH   4   9
ATOM      9  C   UNL     1       3.489   3.770  17.772  0.00  0.00    +0.000 A 
ATOM     10  C   UNL     1       2.195   4.303  17.720  0.00  0.00    +0.000 A 
ATOM     11  C   UNL     1       1.090   3.558  18.138  0.00  0.00    +0.000 A 
ATOM     12  C   UNL     1       1.267   2.265  18.619  0.00  0.00    +0.000 A 
ATOM     13  C   UNL     1       2.544   1.710  18.657  0.00  0.00    +0.000 A 
ATOM     14  C   UNL     1       3.647   2.451  18.224  0.00  0.00    +0.000 A 
ENDBRANCH   4   9
BRANCH   7  15
ATOM     15  C   UNL     1       7.593   6.709  17.829  0.00  0.00    +0.000 C 
ATOM     16  N   UNL     1       7.467   7.993  17.850  0.00  0.00    +0.000 NA
BRANCH  16  17
ATOM     17  N   UNL     1       8.536   8.730  18.245  0.00  0.00    +0.000 N 
ATOM     18  C   UNL     1       8.467  10.103  18.059  0.00  0.00    +0.000 C 
ATOM     19  O   UNL     1       7.494  10.699  17.603  0.00  0.00    +0.000 OA
ATOM     20  H   UNL     1       9.318   8.281  18.708  0.00  0.00    +0.000 HD
BRANCH  18  21
ATOM     21  C   UNL     1       9.650  10.897  18.471  0.00  0.00    +0.000 A 
ATOM     22  C   UNL     1       9.881  11.041  19.849  0.00  0.00    +0.000 A 
ATOM     23  C   UNL     1      10.942  11.819  20.312  0.00  0.00    +0.000 A 
ATOM     24  C   UNL     1      11.772  12.462  19.397  0.00  0.00    +0.000 A 
ATOM     25  C   UNL     1      11.534  12.320  18.032  0.00  0.00    +0.000 A 
ATOM     26  F   UNL     1      12.326  12.956  17.159  0.00  0.00    +0.000 F 
ATOM     27  C   UNL     1      10.482  11.544  17.554  0.00  0.00    +0.000 A 
ENDBRANCH  18  21
ENDBRANCH  16  17
ENDBRANCH   7  15
TORSDOF 4
ENDMDL
MODEL 6
REMARK VINA RESULT:      -8.2      1.234      1.780
REMARK  Name = 
REMARK  5 active torsions:
REMARK  status: ('A' for Active; 'I' for Inactive)
REMARK    1  A    between atoms: C_1  and  C_2
REMARK    2  A    between atoms: N_4  and  C_5
REMARK    3  A    between atoms: C_13  and  C_14
REMARK    4  A    between atoms: N_15  and  N_16
REMARK    5  A    between atoms: C_17  and  C_19
REMARK                            x       y       z     vdW  Elec       q    Type
REMARK                         _______ _______ _______ _____ _____    ______ ____
ROOT
ATOM      1  C   UNL     1       7.032   4.662  15.786  0.00  0.00    +0.000 C 
ATOM      2  C   UNL     1       5.925   4.952  16.744  0.00  0.00    +0.000 A 
ATOM      3  N   UNL     1       5.111   3.933  17.230  0.00  0.00    +0.000 N 
ATOM      4  N   UNL     1       4.071   4.564  17.929  0.00  0.00    +0.000 N 
ATOM      5  C   UNL     1       4.317   5.936  17.976  0.00  0.00    +0.000 A 
ATOM      6  O   UNL     1       3.705   6.842  18.519  0.00  0.00    +0.000 OA
ATOM      7  C   UNL     1       5.559   6.162  17.204  0.00  0.00    +0.000 A 
ATOM      8  H   UNL     1       4.792   3.299  16.493  0.00  0.00    +0.000 HD
ENDROOT
BRANCH   4   9
ATOM      9  C   UNL     1       3.089   3.827  18.622  0.00  0.00    +0.000 A 
ATOM     10  C   UNL     1       3.321   3.393  19.934  0.00  0.00    +0.000 A 
ATOM     11  C   UNL     1       2.382   2.613  20.612  0.00  0.00    +0.000 A 
ATOM     12  C   UNL     1       1.196   2.250  19.983  0.00  0.00    +0.000 A 
ATOM     13  C   UNL     1       0.938   2.691  18.687  0.00  0.00    +0.000 A 
ATOM     14  C   UNL     1       1.871   3.485  18.015  0.00  0.00    +0.000 A 
ENDBRANCH   4   9
BRANCH   7  15
ATOM     15  C   UNL     1       6.187   7.471  17.007  0.00  0.00    +0.000 C 
ATOM     16  N   UNL     1       7.361   7.741  17.470  0.00  0.00    +0.000 NA
BRANCH  16  17
ATOM     17  N   UNL     1       7.844   8.997  17.283  0.00  0.00    +0.000 N 
ATOM     18  C   UNL     1       8.661   9.518  18.275  0.00  0.00    +0.000 C 
ATOM     19  O   UNL     1       9.012   8.911  19.284  0.00  0.00    +0.000 OA
ATOM     20  H   UNL     1       7.649   9.491  16.421  0.00  0.00    +0.000 HD
BRANCH  18  21
ATOM     21  C   UNL     1       9.163  10.900  18.074  0.00  0.00    +0.000 A 
ATOM     22  C   UNL     1       8.218  11.889  17.757  0.00  0.00    +0.000 A 
ATOM     23  C   UNL     1       8.623  13.199  17.501  0.00  0.00    +0.000 A 
ATOM     24  C   UNL     1       9.977  13.521  17.552  0.00  0.00    +0.000 A 
ATOM     25  C   UNL     1      10.909  12.534  17.860  0.00  0.00    +0.000 A 
ATOM     26  F   UNL     1      12.211  12.849  17.890  0.00  0.00    +0.000 F 
ATOM     27  C   UNL     1      10.521  11.223  18.122  0.00  0.00    +0.000 A 
ENDBRANCH  18  21
ENDBRANCH  16  17
ENDBRANCH   7  15
TORSDOF 4
ENDMDL
MODEL 7
REMARK VINA RESULT:      -8.1      5.844      7.554
REMARK  Name = 
REMARK  5 active torsions:
REMARK  status: ('A' for Active; 'I' for Inactive)
REMARK    1  A    between atoms: C_1  and  C_2
REMARK    2  A    between atoms: N_4  and  C_5
REMARK    3  A    between atoms: C_13  and  C_14
REMARK    4  A    between atoms: N_15  and  N_16
REMARK    5  A    between atoms: C_17  and  C_19
REMARK                            x       y       z     vdW  Elec       q    Type
REMARK                         _______ _______ _______ _____ _____    ______ ____
ROOT
ATOM      1  C   UNL     1       2.974   4.931  20.097  0.00  0.00    +0.000 C 
ATOM      2  C   UNL     1       2.547   6.337  19.830  0.00  0.00    +0.000 A 
ATOM      3  N   UNL     1       1.920   7.095  20.815  0.00  0.00    +0.000 N 
ATOM      4  N   UNL     1       1.482   8.269  20.183  0.00  0.00    +0.000 N 
ATOM      5  C   UNL     1       1.943   8.280  18.867  0.00  0.00    +0.000 A 
ATOM      6  O   UNL     1       1.838   9.122  17.988  0.00  0.00    +0.000 OA
ATOM      7  C   UNL     1       2.662   7.002  18.667  0.00  0.00    +0.000 A 
ATOM      8  H   UNL     1       1.181   6.580  21.297  0.00  0.00    +0.000 HD
ENDROOT
BRANCH   4   9
ATOM      9  C   UNL     1       0.860   9.310  20.902  0.00  0.00    +0.000 A 
ATOM     10  C   UNL     1       0.272   9.059  22.148  0.00  0.00    +0.000 A 
ATOM     11  C   UNL     1      -0.398  10.066  22.846  0.00  0.00    +0.000 A 
ATOM     12  C   UNL     1      -0.493  11.343  22.301  0.00  0.00    +0.000 A 
ATOM     13  C   UNL     1       0.105  11.617  21.073  0.00  0.00    +0.000 A 
ATOM     14  C   UNL     1       0.789  10.612  20.383  0.00  0.00    +0.000 A 
ENDBRANCH   4   9
BRANCH   7  15
ATOM     15  C   UNL     1       3.321   6.607  17.419  0.00  0.00    +0.000 C 
ATOM     16  N   UNL     1       4.604   6.610  17.295  0.00  0.00    +0.000 NA
BRANCH  16  17
ATOM     17  N   UNL     1       5.126   6.276  16.086  0.00  0.00    +0.000 N 
ATOM     18  C   UNL     1       5.416   4.938  15.865  0.00  0.00    +0.000 C 
ATOM     19  O   UNL     1       5.196   4.033  16.666  0.00  0.00    +0.000 OA
ATOM     20  H   UNL     1       5.236   6.984  15.369  0.00  0.00    +0.000 HD
BRANCH  18  21
ATOM     21  C   UNL     1       6.009   4.587  14.551  0.00  0.00    +0.000 A 
ATOM     22  C   UNL     1       7.192   5.247  14.181  0.00  0.00    +0.000 A 
ATOM     23  C   UNL     1       7.777   5.009  12.937  0.00  0.00    +0.000 A 
ATOM     24  C   UNL     1       7.174   4.115  12.055  0.00  0.00    +0.000 A 
ATOM     25  C   UNL     1       5.998   3.469  12.426  0.00  0.00    +0.000 A 
ATOM     26  F   UNL     1       5.415   2.624  11.565  0.00  0.00    +0.000 F 
ATOM     27  C   UNL     1       5.404   3.693  13.665  0.00  0.00    +0.000 A 
ENDBRANCH  18  21
ENDBRANCH  16  17
ENDBRANCH   7  15
TORSDOF 4
ENDMDL
MODEL 8
REMARK VINA RESULT:      -8.1      5.552      7.361
REMARK  Name = 
REMARK  5 active torsions:
REMARK  status: ('A' for Active; 'I' for Inactive)
REMARK    1  A    between atoms: C_1  and  C_2
REMARK    2  A    between atoms: N_4  and  C_5
REMARK    3  A    between atoms: C_13  and  C_14
REMARK    4  A    between atoms: N_15  and  N_16
REMARK    5  A    between atoms: C_17  and  C_19
REMARK                            x       y       z     vdW  Elec       q    Type
REMARK                         _______ _______ _______ _____ _____    ______ ____
ROOT
ATOM      1  C   UNL     1       4.800   3.566  18.981  0.00  0.00    +0.000 C 
ATOM      2  C   UNL     1       4.954   4.306  17.693  0.00  0.00    +0.000 A 
ATOM      3  N   UNL     1       5.523   3.696  16.579  0.00  0.00    +0.000 N 
ATOM      4  N   UNL     1       5.697   4.711  15.626  0.00  0.00    +0.000 N 
ATOM      5  C   UNL     1       5.129   5.892  16.104  0.00  0.00    +0.000 A 
ATOM      6  O   UNL     1       5.012   6.992  15.587  0.00  0.00    +0.000 OA
ATOM      7  C   UNL     1       4.626   5.590  17.463  0.00  0.00    +0.000 A 
ATOM      8  H   UNL     1       6.379   3.185  16.804  0.00  0.00    +0.000 HD
ENDROOT
BRANCH   4   9
ATOM      9  C   UNL     1       6.189   4.438  14.333  0.00  0.00    +0.000 A 
ATOM     10  C   UNL     1       7.327   5.099  13.853  0.00  0.00    +0.000 A 
ATOM     11  C   UNL     1       7.793   4.882  12.555  0.00  0.00    +0.000 A 
ATOM     12  C   UNL     1       7.121   4.002  11.713  0.00  0.00    +0.000 A 
ATOM     13  C   UNL     1       6.001   3.319  12.180  0.00  0.00    +0.000 A 
ATOM     14  C   UNL     1       5.544   3.524  13.486  0.00  0.00    +0.000 A 
ENDBRANCH   4   9
BRANCH   7  15
ATOM     15  C   UNL     1       3.941   6.555  18.327  0.00  0.00    +0.000 C 
ATOM     16  N   UNL     1       2.655   6.634  18.375  0.00  0.00    +0.000 NA
BRANCH  16  17
ATOM     17  N   UNL     1       2.106   7.592  19.167  0.00  0.00    +0.000 N 
ATOM     18  C   UNL     1       1.782   8.801  18.572  0.00  0.00    +0.000 C 
ATOM     19  O   UNL     1       1.915   9.051  17.376  0.00  0.00    +0.000 OA
ATOM     20  H   UNL     1       1.899   7.389  20.138  0.00  0.00    +0.000 HD
BRANCH  18  21
ATOM     21  C   UNL     1       1.207   9.849  19.450  0.00  0.00    +0.000 A 
ATOM     22  C   UNL     1       1.211  11.168  18.968  0.00  0.00    +0.000 A 
ATOM     23  C   UNL     1       0.737  12.214  19.759  0.00  0.00    +0.000 A 
ATOM     24  C   UNL     1       0.264  11.944  21.041  0.00  0.00    +0.000 A 
ATOM     25  C   UNL     1       0.268  10.635  21.516  0.00  0.00    +0.000 A 
ATOM     26  F   UNL     1      -0.172  10.387  22.757  0.00  0.00    +0.000 F 
ATOM     27  C   UNL     1       0.735   9.580  20.737  0.00  0.00    +0.000 A 
ENDBRANCH  18  21
ENDBRANCH  16  17
ENDBRANCH   7  15
TORSDOF 4
ENDMDL
MODEL 9
REMARK VINA RESULT:      -8.1      1.362      1.756
REMARK  Name = 
REMARK  5 active torsions:
REMARK  status: ('A' for Active; 'I' for Inactive)
REMARK    1  A    between atoms: C_1  and  C_2
REMARK    2  A    between atoms: N_4  and  C_5
REMARK    3  A    between atoms: C_13  and  C_14
REMARK    4  A    between atoms: N_15  and  N_16
REMARK    5  A    between atoms: C_17  and  C_19
REMARK                            x       y       z     vdW  Elec       q    Type
REMARK                         _______ _______ _______ _____ _____    ______ ____
ROOT
ATOM      1  C   UNL     1       8.575   5.393  19.322  0.00  0.00    +0.000 C 
ATOM      2  C   UNL     1       7.182   5.565  18.812  0.00  0.00    +0.000 A 
ATOM      3  N   UNL     1       6.202   4.610  19.067  0.00  0.00    +0.000 N 
ATOM      4  N   UNL     1       5.091   4.975  18.291  0.00  0.00    +0.000 N 
ATOM      5  C   UNL     1       5.346   6.199  17.673  0.00  0.00    +0.000 A 
ATOM      6  O   UNL     1       4.645   6.897  16.958  0.00  0.00    +0.000 OA
ATOM      7  C   UNL     1       6.726   6.576  18.051  0.00  0.00    +0.000 A 
ATOM      8  H   UNL     1       6.530   3.656  18.902  0.00  0.00    +0.000 HD
ENDROOT
BRANCH   4   9
ATOM      9  C   UNL     1       3.876   4.263  18.355  0.00  0.00    +0.000 A 
ATOM     10  C   UNL     1       3.823   3.005  18.968  0.00  0.00    +0.000 A 
ATOM     11  C   UNL     1       2.640   2.262  18.988  0.00  0.00    +0.000 A 
ATOM     12  C   UNL     1       1.492   2.768  18.388  0.00  0.00    +0.000 A 
ATOM     13  C   UNL     1       1.520   4.027  17.793  0.00  0.00    +0.000 A 
ATOM     14  C   UNL     1       2.700   4.776  17.787  0.00  0.00    +0.000 A 
ENDBRANCH   4   9
BRANCH   7  15
ATOM     15  C   UNL     1       7.396   7.808  17.625  0.00  0.00    +0.000 C 
ATOM     16  N   UNL     1       8.206   8.447  18.399  0.00  0.00    +0.000 NA
BRANCH  16  17
ATOM     17  N   UNL     1       8.743   9.607  17.939  0.00  0.00    +0.000 N 
ATOM     18  C   UNL     1       9.217  10.507  18.881  0.00  0.00    +0.000 C 
ATOM     19  O   UNL     1       9.225  10.311  20.094  0.00  0.00    +0.000 OA
ATOM     20  H   UNL     1       8.834   9.761  16.942  0.00  0.00    +0.000 HD
BRANCH  18  21
ATOM     21  C   UNL     1       9.779  11.781  18.369  0.00  0.00    +0.000 A 
ATOM     22  C   UNL     1       9.124  12.968  18.736  0.00  0.00    +0.000 A 
ATOM     23  C   UNL     1       9.562  14.198  18.249  0.00  0.00    +0.000 A 
ATOM     24  C   UNL     1      10.654  14.246  17.385  0.00  0.00    +0.000 A 
ATOM     25  C   UNL     1      11.295  13.065  17.020  0.00  0.00    +0.000 A 
ATOM     26  F   UNL     1      12.333  13.117  16.175  0.00  0.00    +0.000 F 
ATOM     27  C   UNL     1      10.872  11.829  17.501  0.00  0.00    +0.000 A 
ENDBRANCH  18  21
ENDBRANCH  16  17
ENDBRANCH   7  15
TORSDOF 4
ENDMDL
