MODEL 1
REMARK VINA RESULT:      -6.2      0.000      0.000
REMARK  Name = 
REMARK  7 active torsions:
REMARK  status: ('A' for Active; 'I' for Inactive)
REMARK    1  A    between atoms: C_1  and  C_2
REMARK    2  A    between atoms: C_2  and  C_3
REMARK    3  A    between atoms: C_2  and  C_4
REMARK    4  A    between atoms: C_4  and  O_5
REMARK    5  A    between atoms: O_5  and  C_6
REMARK    6  A    between atoms: C_10  and  S_11
REMARK    7  A    between atoms: S_11  and  N_12
REMARK                            x       y       z     vdW  Elec       q    Type
REMARK                         _______ _______ _______ _____ _____    ______ ____
ROOT
ATOM      1  C   UNL     1       5.625   4.521  17.681  0.00  0.00    +0.000 A 
ATOM      2  N   UNL     1       6.212   4.327  18.864  0.00  0.00    +0.000 NA
ATOM      3  O   UNL     1       7.579   4.409  18.594  0.00  0.00    +0.000 OA
ATOM      4  N   UNL     1       7.816   4.650  17.238  0.00  0.00    +0.000 NA
ATOM      5  C   UNL     1       6.590   4.702  16.700  0.00  0.00    +0.000 A 
ENDROOT
BRANCH   5   6
ATOM      6  S   UNL     1       6.300   5.008  15.044  0.00  0.00    +0.000 S 
ATOM      7  O   UNL     1       5.892   3.738  14.493  0.00  0.00    +0.000 OA
ATOM      8  O   UNL     1       5.480   6.196  15.025  0.00  0.00    +0.000 OA
BRANCH   6   9
ATOM      9  N   UNL     1       7.772   5.423  14.323  0.00  0.00    +0.000 NA
ATOM     10  H   UNL     1       7.753   5.254  13.317  0.00  0.00    +0.000 HD
ATOM     11  H   UNL     1       8.551   4.962  14.794  0.00  0.00    +0.000 HD
ENDBRANCH   6   9
ENDBRANCH   5   6
BRANCH   1  12
ATOM     12  O   UNL     1       4.279   4.472  17.556  0.00  0.00    +0.000 OA
BRANCH  12  13
ATOM     13  C   UNL     1       3.632   5.692  17.931  0.00  0.00    +0.000 C 
BRANCH  13  15
ATOM     14  C   UNL     1       1.629   4.197  17.737  0.00  0.00    +0.000 C 
ATOM     15  C   UNL     1       2.222   5.403  18.468  0.00  0.00    +0.000 C 
ATOM     16  C   UNL     1       2.222   5.165  19.978  0.00  0.00    +0.000 C 
ENDBRANCH  13  15
ENDBRANCH  12  13
ENDBRANCH   1  12
TORSDOF 5
ENDMDL
MODEL 2
REMARK VINA RESULT:      -6.1      1.047      1.272
REMARK  Name = 
REMARK  7 active torsions:
REMARK  status: ('A' for Active; 'I' for Inactive)
REMARK    1  A    between atoms: C_1  and  C_2
REMARK    2  A    between atoms: C_2  and  C_3
REMARK    3  A    between atoms: C_2  and  C_4
REMARK    4  A    between atoms: C_4  and  O_5
REMARK    5  A    between atoms: O_5  and  C_6
REMARK    6  A    between atoms: C_10  and  S_11
REMARK    7  A    between atoms: S_11  and  N_12
REMARK                            x       y       z     vdW  Elec       q    Type
REMARK                         _______ _______ _______ _____ _____    ______ ____
ROOT
ATOM      1  C   UNL     1       5.758   4.870  17.938  0.00  0.00    +0.000 A 
ATOM      2  N   UNL     1       6.277   4.797  19.165  0.00  0.00    +0.000 NA
ATOM      3  O   UNL     1       7.653   4.699  18.958  0.00  0.00    +0.000 OA
ATOM      4  N   UNL     1       7.966   4.709  17.596  0.00  0.00    +0.000 NA
ATOM      5  C   UNL     1       6.773   4.804  16.993  0.00  0.00    +0.000 A 
ENDROOT
BRANCH   5   6
ATOM      6  S   UNL     1       6.579   4.887  15.298  0.00  0.00    +0.000 S 
ATOM      7  O   UNL     1       7.828   5.415  14.802  0.00  0.00    +0.000 OA
ATOM      8  O   UNL     1       6.043   3.600  14.922  0.00  0.00    +0.000 OA
BRANCH   6   9
ATOM      9  N   UNL     1       5.378   6.030  14.963  0.00  0.00    +0.000 NA
ATOM     10  H   UNL     1       5.661   6.963  15.261  0.00  0.00    +0.000 HD
ATOM     11  H   UNL     1       4.480   5.737  15.349  0.00  0.00    +0.000 HD
ENDBRANCH   6   9
ENDBRANCH   5   6
BRANCH   1  12
ATOM     12  O   UNL     1       4.420   4.938  17.751  0.00  0.00    +0.000 OA
BRANCH  12  13
ATOM     13  C   UNL     1       3.784   5.921  18.574  0.00  0.00    +0.000 C 
BRANCH  13  15
ATOM     14  C   UNL     1       1.865   4.489  17.831  0.00  0.00    +0.000 C 
ATOM     15  C   UNL     1       2.335   5.508  18.872  0.00  0.00    +0.000 C 
ATOM     16  C   UNL     1       2.178   4.941  20.282  0.00  0.00    +0.000 C 
ENDBRANCH  13  15
ENDBRANCH  12  13
ENDBRANCH   1  12
TORSDOF 5
ENDMDL
MODEL 3
REMARK VINA RESULT:      -6.1      1.354      1.736
REMARK  Name = 
REMARK  7 active torsions:
REMARK  status: ('A' for Active; 'I' for Inactive)
REMARK    1  A    between atoms: C_1  and  C_2
REMARK    2  A    between atoms: C_2  and  C_3
REMARK    3  A    between atoms: C_2  and  C_4
REMARK    4  A    between atoms: C_4  and  O_5
REMARK    5  A    between atoms: O_5  and  C_6
REMARK    6  A    between atoms: C_10  and  S_11
REMARK    7  A    between atoms: S_11  and  N_12
REMARK                            x       y       z     vdW  Elec       q    Type
REMARK                         _______ _______ _______ _____ _____    ______ ____
ROOT
ATOM      1  C   UNL     1       5.637   4.589  17.606  0.00  0.00    +0.000 A 
ATOM      2  N   UNL     1       6.109   4.406  18.841  0.00  0.00    +0.000 NA
ATOM      3  O   UNL     1       7.495   4.481  18.701  0.00  0.00    +0.000 OA
ATOM      4  N   UNL     1       7.861   4.706  17.371  0.00  0.00    +0.000 NA
ATOM      5  C   UNL     1       6.691   4.756  16.718  0.00  0.00    +0.000 A 
ENDROOT
BRANCH   5   6
ATOM      6  S   UNL     1       6.560   5.046  15.040  0.00  0.00    +0.000 S 
ATOM      7  O   UNL     1       5.418   5.917  14.897  0.00  0.00    +0.000 OA
ATOM      8  O   UNL     1       7.896   5.394  14.618  0.00  0.00    +0.000 OA
BRANCH   6   9
ATOM      9  N   UNL     1       6.178   3.582  14.284  0.00  0.00    +0.000 NA
ATOM     10  H   UNL     1       6.905   3.304  13.625  0.00  0.00    +0.000 HD
ATOM     11  H   UNL     1       5.248   3.621  13.867  0.00  0.00    +0.000 HD
ENDBRANCH   6   9
ENDBRANCH   5   6
BRANCH   1  12
ATOM     12  O   UNL     1       4.309   4.543  17.355  0.00  0.00    +0.000 OA
BRANCH  12  13
ATOM     13  C   UNL     1       3.813   3.211  17.180  0.00  0.00    +0.000 C 
BRANCH  13  15
ATOM     14  C   UNL     1       2.541   2.613  19.255  0.00  0.00    +0.000 C 
ATOM     15  C   UNL     1       2.415   3.079  17.803  0.00  0.00    +0.000 C 
ATOM     16  C   UNL     1       1.627   4.386  17.728  0.00  0.00    +0.000 C 
ENDBRANCH  13  15
ENDBRANCH  12  13
ENDBRANCH   1  12
TORSDOF 5
ENDMDL
MODEL 4
REMARK VINA RESULT:      -6.1      1.200      1.656
REMARK  Name = 
REMARK  7 active torsions:
REMARK  status: ('A' for Active; 'I' for Inactive)
REMARK    1  A    between atoms: C_1  and  C_2
REMARK    2  A    between atoms: C_2  and  C_3
REMARK    3  A    between atoms: C_2  and  C_4
REMARK    4  A    between atoms: C_4  and  O_5
REMARK    5  A    between atoms: O_5  and  C_6
REMARK    6  A    between atoms: C_10  and  S_11
REMARK    7  A    between atoms: S_11  and  N_12
REMARK                            x       y       z     vdW  Elec       q    Type
REMARK                         _______ _______ _______ _____ _____    ______ ____
ROOT
ATOM      1  C   UNL     1       5.744   4.782  18.070  0.00  0.00    +0.000 A 
ATOM      2  N   UNL     1       6.282   4.743  19.290  0.00  0.00    +0.000 NA
ATOM      3  O   UNL     1       7.659   4.778  19.069  0.00  0.00    +0.000 OA
ATOM      4  N   UNL     1       7.953   4.835  17.704  0.00  0.00    +0.000 NA
ATOM      5  C   UNL     1       6.750   4.824  17.113  0.00  0.00    +0.000 A 
ENDROOT
BRANCH   5   6
ATOM      6  S   UNL     1       6.530   4.910  15.422  0.00  0.00    +0.000 S 
ATOM      7  O   UNL     1       7.792   5.382  14.902  0.00  0.00    +0.000 OA
ATOM      8  O   UNL     1       5.932   3.647  15.060  0.00  0.00    +0.000 OA
BRANCH   6   9
ATOM      9  N   UNL     1       5.375   6.103  15.103  0.00  0.00    +0.000 NA
ATOM     10  H   UNL     1       4.849   6.344  15.943  0.00  0.00    +0.000 HD
ATOM     11  H   UNL     1       4.781   5.834  14.319  0.00  0.00    +0.000 HD
ENDBRANCH   6   9
ENDBRANCH   5   6
BRANCH   1  12
ATOM     12  O   UNL     1       4.404   4.727  17.897  0.00  0.00    +0.000 OA
BRANCH  12  13
ATOM     13  C   UNL     1       3.670   4.920  19.110  0.00  0.00    +0.000 C 
BRANCH  13  15
ATOM     14  C   UNL     1       1.486   4.496  20.267  0.00  0.00    +0.000 C 
ATOM     15  C   UNL     1       2.364   4.112  19.074  0.00  0.00    +0.000 C 
ATOM     16  C   UNL     1       1.601   4.311  17.765  0.00  0.00    +0.000 C 
ENDBRANCH  13  15
ENDBRANCH  12  13
ENDBRANCH   1  12
TORSDOF 5
ENDMDL
MODEL 5
REMARK VINA RESULT:      -6.0      1.706      1.973
REMARK  Name = 
REMARK  7 active torsions:
REMARK  status: ('A' for Active; 'I' for Inactive)
REMARK    1  A    between atoms: C_1  and  C_2
REMARK    2  A    between atoms: C_2  and  C_3
REMARK    3  A    between atoms: C_2  and  C_4
REMARK    4  A    between atoms: C_4  and  O_5
REMARK    5  A    between atoms: O_5  and  C_6
REMARK    6  A    between atoms: C_10  and  S_11
REMARK    7  A    between atoms: S_11  and  N_12
REMARK                            x       y       z     vdW  Elec       q    Type
REMARK                         _______ _______ _______ _____ _____    ______ ____
ROOT
ATOM      1  C   UNL     1       6.311   4.870  18.649  0.00  0.00    +0.000 A 
ATOM      2  N   UNL     1       6.923   5.366  19.726  0.00  0.00    +0.000 NA
ATOM      3  O   UNL     1       7.876   6.247  19.214  0.00  0.00    +0.000 OA
ATOM      4  N   UNL     1       7.841   6.278  17.817  0.00  0.00    +0.000 NA
ATOM      5  C   UNL     1       6.872   5.409  17.499  0.00  0.00    +0.000 A 
ENDROOT
BRANCH   5   6
ATOM      6  S   UNL     1       6.388   5.083  15.893  0.00  0.00    +0.000 S 
ATOM      7  O   UNL     1       5.145   5.797  15.724  0.00  0.00    +0.000 OA
ATOM      8  O   UNL     1       7.567   5.320  15.095  0.00  0.00    +0.000 OA
BRANCH   6   9
ATOM      9  N   UNL     1       6.044   3.432  15.775  0.00  0.00    +0.000 NA
ATOM     10  H   UNL     1       6.893   2.885  15.630  0.00  0.00    +0.000 HD
ATOM     11  H   UNL     1       5.328   3.260  15.068  0.00  0.00    +0.000 HD
ENDBRANCH   6   9
ENDBRANCH   5   6
BRANCH   1  12
ATOM     12  O   UNL     1       5.336   3.941  18.769  0.00  0.00    +0.000 OA
BRANCH  12  13
ATOM     13  C   UNL     1       4.019   4.501  18.780  0.00  0.00    +0.000 C 
BRANCH  13  15
ATOM     14  C   UNL     1       3.324   2.243  17.941  0.00  0.00    +0.000 C 
ATOM     15  C   UNL     1       3.114   3.751  17.791  0.00  0.00    +0.000 C 
ATOM     16  C   UNL     1       1.640   4.106  17.980  0.00  0.00    +0.000 C 
ENDBRANCH  13  15
ENDBRANCH  12  13
ENDBRANCH   1  12
TORSDOF 5
ENDMDL
MODEL 6
REMARK VINA RESULT:      -6.0      2.639      3.851
REMARK  Name = 
REMARK  7 active torsions:
REMARK  status: ('A' for Active; 'I' for Inactive)
REMARK    1  A    between atoms: C_1  and  C_2
REMARK    2  A    between atoms: C_2  and  C_3
REMARK    3  A    between atoms: C_2  and  C_4
REMARK    4  A    between atoms: C_4  and  O_5
REMARK    5  A    between atoms: O_5  and  C_6
REMARK    6  A    between atoms: C_10  and  S_11
REMARK    7  A    between atoms: S_11  and  N_12
REMARK                            x       y       z     vdW  Elec       q    Type
REMARK                         _______ _______ _______ _____ _____    ______ ____
ROOT
ATOM      1  C   UNL     1       3.346   5.878  19.266  0.00  0.00    +0.000 A 
ATOM      2  N   UNL     1       2.567   6.870  18.831  0.00  0.00    +0.000 NA
ATOM      3  O   UNL     1       3.262   7.413  17.750  0.00  0.00    +0.000 OA
ATOM      4  N   UNL     1       4.470   6.744  17.534  0.00  0.00    +0.000 NA
ATOM      5  C   UNL     1       4.498   5.810  18.494  0.00  0.00    +0.000 A 
ENDROOT
BRANCH   5   6
ATOM      6  S   UNL     1       5.764   4.678  18.670  0.00  0.00    +0.000 S 
ATOM      7  O   UNL     1       6.260   4.456  17.332  0.00  0.00    +0.000 OA
ATOM      8  O   UNL     1       6.571   5.188  19.753  0.00  0.00    +0.000 OA
BRANCH   6   9
ATOM      9  N   UNL     1       5.094   3.221  19.209  0.00  0.00    +0.000 NA
ATOM     10  H   UNL     1       5.254   3.086  20.207  0.00  0.00    +0.000 HD
ATOM     11  H   UNL     1       5.418   2.439  18.639  0.00  0.00    +0.000 HD
ENDBRANCH   6   9
ENDBRANCH   5   6
BRANCH   1  12
ATOM     12  O   UNL     1       2.998   5.142  20.346  0.00  0.00    +0.000 OA
BRANCH  12  13
ATOM     13  C   UNL     1       1.581   5.030  20.520  0.00  0.00    +0.000 C 
BRANCH  13  15
ATOM     14  C   UNL     1       1.121   2.924  19.240  0.00  0.00    +0.000 C 
ATOM     15  C   UNL     1       1.176   3.552  20.634  0.00  0.00    +0.000 C 
ATOM     16  C   UNL     1       2.124   2.765  21.537  0.00  0.00    +0.000 C 
ENDBRANCH  13  15
ENDBRANCH  12  13
ENDBRANCH   1  12
TORSDOF 5
ENDMDL
MODEL 7
REMARK VINA RESULT:      -6.0      1.557      2.987
REMARK  Name = 
REMARK  7 active torsions:
REMARK  status: ('A' for Active; 'I' for Inactive)
REMARK    1  A    between atoms: C_1  and  C_2
REMARK    2  A    between atoms: C_2  and  C_3
REMARK    3  A    between atoms: C_2  and  C_4
REMARK    4  A    between atoms: C_4  and  O_5
REMARK    5  A    between atoms: O_5  and  C_6
REMARK    6  A    between atoms: C_10  and  S_11
REMARK    7  A    between atoms: S_11  and  N_12
REMARK                            x       y       z     vdW  Elec       q    Type
REMARK                         _______ _______ _______ _____ _____    ______ ____
ROOT
ATOM      1  C   UNL     1       5.543   5.791  16.291  0.00  0.00    +0.000 A 
ATOM      2  N   UNL     1       5.401   5.999  14.981  0.00  0.00    +0.000 NA
ATOM      3  O   UNL     1       6.658   5.718  14.444  0.00  0.00    +0.000 OA
ATOM      4  N   UNL     1       7.564   5.341  15.439  0.00  0.00    +0.000 NA
ATOM      5  C   UNL     1       6.848   5.408  16.569  0.00  0.00    +0.000 A 
ENDROOT
BRANCH   5   6
ATOM      6  S   UNL     1       7.477   5.011  18.107  0.00  0.00    +0.000 S 
ATOM      7  O   UNL     1       8.519   4.046  17.850  0.00  0.00    +0.000 OA
ATOM      8  O   UNL     1       7.698   6.281  18.757  0.00  0.00    +0.000 OA
BRANCH   6   9
ATOM      9  N   UNL     1       6.263   4.223  18.982  0.00  0.00    +0.000 NA
ATOM     10  H   UNL     1       5.423   4.092  18.418  0.00  0.00    +0.000 HD
ATOM     11  H   UNL     1       6.084   4.699  19.866  0.00  0.00    +0.000 HD
ENDBRANCH   6   9
ENDBRANCH   5   6
BRANCH   1  12
ATOM     12  O   UNL     1       4.516   6.005  17.145  0.00  0.00    +0.000 OA
BRANCH  12  13
ATOM     13  C   UNL     1       3.602   4.906  17.217  0.00  0.00    +0.000 C 
BRANCH  13  15
ATOM     14  C   UNL     1       1.525   4.033  18.316  0.00  0.00    +0.000 C 
ATOM     15  C   UNL     1       2.410   5.265  18.117  0.00  0.00    +0.000 C 
ATOM     16  C   UNL     1       2.857   5.825  19.466  0.00  0.00    +0.000 C 
ENDBRANCH  13  15
ENDBRANCH  12  13
ENDBRANCH   1  12
TORSDOF 5
ENDMDL
MODEL 8
REMARK VINA RESULT:      -5.9      1.165      1.376
REMARK  Name = 
REMARK  7 active torsions:
REMARK  status: ('A' for Active; 'I' for Inactive)
REMARK    1  A    between atoms: C_1  and  C_2
REMARK    2  A    between atoms: C_2  and  C_3
REMARK    3  A    between atoms: C_2  and  C_4
REMARK    4  A    between atoms: C_4  and  O_5
REMARK    5  A    between atoms: O_5  and  C_6
REMARK    6  A    between atoms: C_10  and  S_11
REMARK    7  A    between atoms: S_11  and  N_12
REMARK                            x       y       z     vdW  Elec       q    Type
REMARK                         _______ _______ _______ _____ _____    ______ ____
ROOT
ATOM      1  C   UNL     1       5.776   5.079  18.493  0.00  0.00    +0.000 A 
ATOM      2  N   UNL     1       6.504   5.057  19.612  0.00  0.00    +0.000 NA
ATOM      3  O   UNL     1       7.827   5.103  19.171  0.00  0.00    +0.000 OA
ATOM      4  N   UNL     1       7.897   5.149  17.776  0.00  0.00    +0.000 NA
ATOM      5  C   UNL     1       6.615   5.121  17.388  0.00  0.00    +0.000 A 
ENDROOT
BRANCH   5   6
ATOM      6  S   UNL     1       6.125   5.188  15.752  0.00  0.00    +0.000 S 
ATOM      7  O   UNL     1       5.509   3.909  15.492  0.00  0.00    +0.000 OA
ATOM      8  O   UNL     1       5.440   6.453  15.622  0.00  0.00    +0.000 OA
BRANCH   6   9
ATOM      9  N   UNL     1       7.514   5.286  14.793  0.00  0.00    +0.000 NA
ATOM     10  H   UNL     1       7.789   6.256  14.636  0.00  0.00    +0.000 HD
ATOM     11  H   UNL     1       7.397   4.755  13.929  0.00  0.00    +0.000 HD
ENDBRANCH   6   9
ENDBRANCH   5   6
BRANCH   1  12
ATOM     12  O   UNL     1       4.427   5.009  18.539  0.00  0.00    +0.000 OA
BRANCH  12  13
ATOM     13  C   UNL     1       3.934   3.672  18.677  0.00  0.00    +0.000 C 
BRANCH  13  15
ATOM     14  C   UNL     1       1.925   2.232  18.263  0.00  0.00    +0.000 C 
ATOM     15  C   UNL     1       2.692   3.470  17.796  0.00  0.00    +0.000 C 
ATOM     16  C   UNL     1       1.780   4.696  17.800  0.00  0.00    +0.000 C 
ENDBRANCH  13  15
ENDBRANCH  12  13
ENDBRANCH   1  12
TORSDOF 5
ENDMDL
MODEL 9
REMARK VINA RESULT:      -5.8      1.387      1.660
REMARK  Name = 
REMARK  7 active torsions:
REMARK  status: ('A' for Active; 'I' for Inactive)
REMARK    1  A    between atoms: C_1  and  C_2
REMARK    2  A    between atoms: C_2  and  C_3
REMARK    3  A    between atoms: C_2  and  C_4
REMARK    4  A    between atoms: C_4  and  O_5
REMARK    5  A    between atoms: O_5  and  C_6
REMARK    6  A    between atoms: C_10  and  S_11
REMARK    7  A    between atoms: S_11  and  N_12
REMARK                            x       y       z     vdW  Elec       q    Type
REMARK                         _______ _______ _______ _____ _____    ______ ____
ROOT
ATOM      1  C   UNL     1       5.368   4.417  17.967  0.00  0.00    +0.000 A 
ATOM      2  N   UNL     1       5.796   4.270  19.223  0.00  0.00    +0.000 NA
ATOM      3  O   UNL     1       7.096   4.775  19.211  0.00  0.00    +0.000 OA
ATOM      4  N   UNL     1       7.456   5.227  17.938  0.00  0.00    +0.000 NA
ATOM      5  C   UNL     1       6.371   4.981  17.191  0.00  0.00    +0.000 A 
ENDROOT
BRANCH   5   6
ATOM      6  S   UNL     1       6.261   5.375  15.532  0.00  0.00    +0.000 S 
ATOM      7  O   UNL     1       5.415   6.544  15.479  0.00  0.00    +0.000 OA
ATOM      8  O   UNL     1       7.622   5.344  15.052  0.00  0.00    +0.000 OA
BRANCH   6   9
ATOM      9  N   UNL     1       5.441   4.121  14.748  0.00  0.00    +0.000 NA
ATOM     10  H   UNL     1       6.061   3.604  14.125  0.00  0.00    +0.000 HD
ATOM     11  H   UNL     1       4.602   4.469  14.285  0.00  0.00    +0.000 HD
ENDBRANCH   6   9
ENDBRANCH   5   6
BRANCH   1  12
ATOM     12  O   UNL     1       4.138   3.994  17.597  0.00  0.00    +0.000 OA
BRANCH  12  13
ATOM     13  C   UNL     1       3.451   3.281  18.631  0.00  0.00    +0.000 C 
BRANCH  13  15
ATOM     14  C   UNL     1       1.056   2.546  18.724  0.00  0.00    +0.000 C 
ATOM     15  C   UNL     1       1.993   3.755  18.725  0.00  0.00    +0.000 C 
ATOM     16  C   UNL     1       1.750   4.619  19.961  0.00  0.00    +0.000 C 
ENDBRANCH  13  15
ENDBRANCH  12  13
ENDBRANCH   1  12
TORSDOF 5
ENDMDL
