MODEL 1
REMARK VINA RESULT:      -7.3      0.000      0.000
REMARK  Name = 
REMARK  7 active torsions:
REMARK  status: ('A' for Active; 'I' for Inactive)
REMARK    1  A    between atoms: C_1  and  N_2
REMARK    2  A    between atoms: N_2  and  C_3
REMARK    3  A    between atoms: N_2  and  C_4
REMARK    4  A    between atoms: C_8  and  C_9
REMARK    5  A    between atoms: C_9  and  C_10
REMARK    6  A    between atoms: C_13  and  C_14
REMARK    7  A    between atoms: N_16  and  O_17
REMARK                            x       y       z     vdW  Elec       q    Type
REMARK                         _______ _______ _______ _____ _____    ______ ____
ROOT
ATOM      1  C   UNL     1       5.351   4.043  17.979  0.00  0.00    +0.000 A 
ATOM      2  C   UNL     1       6.681   4.442  17.803  0.00  0.00    +0.000 A 
ATOM      3  C   UNL     1       7.195   4.655  16.519  0.00  0.00    +0.000 A 
ATOM      4  C   UNL     1       6.388   4.484  15.386  0.00  0.00    +0.000 A 
ATOM      5  C   UNL     1       5.045   4.128  15.562  0.00  0.00    +0.000 A 
ATOM      6  C   UNL     1       4.533   3.910  16.848  0.00  0.00    +0.000 A 
ENDROOT
BRANCH   4   7
ATOM      7  C   UNL     1       7.011   4.694  14.045  0.00  0.00    +0.000 C 
ATOM      8  O   UNL     1       6.643   4.047  13.064  0.00  0.00    +0.000 OA
ATOM      9  N   UNL     1       7.994   5.650  13.931  0.00  0.00    +0.000 N 
ATOM     10  H   UNL     1       8.205   6.364  14.615  0.00  0.00    +0.000 HD
BRANCH   9  11
ATOM     11  O   UNL     1       8.477   5.880  12.621  0.00  0.00    +0.000 OA
ATOM     12  H   UNL     1       7.856   6.566  12.292  0.00  0.00    +0.000 HD
ENDBRANCH   9  11
ENDBRANCH   4   7
BRANCH   1  13
ATOM     13  C   UNL     1       4.825   3.704  19.355  0.00  0.00    +0.000 C 
BRANCH  13  18
ATOM     14  C   UNL     1       2.115   6.338  20.100  0.00  0.00    +0.000 A 
ATOM     15  C   UNL     1       1.139   5.493  20.649  0.00  0.00    +0.000 A 
ATOM     16  C   UNL     1       1.302   4.103  20.707  0.00  0.00    +0.000 A 
ATOM     17  C   UNL     1       2.476   3.518  20.248  0.00  0.00    +0.000 A 
ATOM     18  C   UNL     1       3.496   4.315  19.728  0.00  0.00    +0.000 A 
ATOM     19  C   UNL     1       3.291   5.708  19.638  0.00  0.00    +0.000 A 
BRANCH  14  21
ATOM     20  C   UNL     1       1.261   8.411  21.142  0.00  0.00    +0.000 C 
ATOM     21  N   UNL     1       1.964   7.728  20.061  0.00  0.00    +0.000 N 
ATOM     22  C   UNL     1       1.955   8.386  18.757  0.00  0.00    +0.000 C 
ENDBRANCH  14  21
ENDBRANCH  13  18
ENDBRANCH   1  13
TORSDOF 5
ENDMDL
MODEL 2
REMARK VINA RESULT:      -7.2      3.995      5.245
REMARK  Name = 
REMARK  7 active torsions:
REMARK  status: ('A' for Active; 'I' for Inactive)
REMARK    1  A    between atoms: C_1  and  N_2
REMARK    2  A    between atoms: N_2  and  C_3
REMARK    3  A    between atoms: N_2  and  C_4
REMARK    4  A    between atoms: C_8  and  C_9
REMARK    5  A    between atoms: C_9  and  C_10
REMARK    6  A    between atoms: C_13  and  C_14
REMARK    7  A    between atoms: N_16  and  O_17
REMARK                            x       y       z     vdW  Elec       q    Type
REMARK                         _______ _______ _______ _____ _____    ______ ____
ROOT
ATOM      1  C   UNL     1       3.057   6.594  18.054  0.00  0.00    +0.000 A 
ATOM      2  C   UNL     1       4.331   6.200  18.480  0.00  0.00    +0.000 A 
ATOM      3  C   UNL     1       4.593   4.862  18.795  0.00  0.00    +0.000 A 
ATOM      4  C   UNL     1       3.589   3.890  18.682  0.00  0.00    +0.000 A 
ATOM      5  C   UNL     1       2.327   4.275  18.213  0.00  0.00    +0.000 A 
ATOM      6  C   UNL     1       2.065   5.615  17.903  0.00  0.00    +0.000 A 
ENDROOT
BRANCH   4   7
ATOM      7  C   UNL     1       3.927   2.487  19.069  0.00  0.00    +0.000 C 
ATOM      8  O   UNL     1       3.291   1.533  18.622  0.00  0.00    +0.000 OA
ATOM      9  N   UNL     1       4.988   2.290  19.923  0.00  0.00    +0.000 N 
ATOM     10  H   UNL     1       5.689   2.979  20.163  0.00  0.00    +0.000 HD
BRANCH   9  11
ATOM     11  O   UNL     1       5.330   0.941  20.175  0.00  0.00    +0.000 OA
ATOM     12  H   UNL     1       5.607   0.973  21.118  0.00  0.00    +0.000 HD
ENDBRANCH   9  11
ENDBRANCH   4   7
BRANCH   1  13
ATOM     13  C   UNL     1       2.742   8.054  17.821  0.00  0.00    +0.000 C 
BRANCH  13  18
ATOM     14  C   UNL     1      -0.223  10.226  18.973  0.00  0.00    +0.000 A 
ATOM     15  C   UNL     1      -0.162   9.961  20.350  0.00  0.00    +0.000 A 
ATOM     16  C   UNL     1       0.751   9.048  20.894  0.00  0.00    +0.000 A 
ATOM     17  C   UNL     1       1.661   8.396  20.072  0.00  0.00    +0.000 A 
ATOM     18  C   UNL     1       1.670   8.652  18.701  0.00  0.00    +0.000 A 
ATOM     19  C   UNL     1       0.713   9.541  18.169  0.00  0.00    +0.000 A 
BRANCH  14  21
ATOM     20  C   UNL     1      -1.720  12.168  19.289  0.00  0.00    +0.000 C 
ATOM     21  N   UNL     1      -1.117  11.154  18.431  0.00  0.00    +0.000 N 
ATOM     22  C   UNL     1      -1.875  10.771  17.242  0.00  0.00    +0.000 C 
ENDBRANCH  14  21
ENDBRANCH  13  18
ENDBRANCH   1  13
TORSDOF 5
ENDMDL
MODEL 3
REMARK VINA RESULT:      -7.2      4.215      7.266
REMARK  Name = 
REMARK  7 active torsions:
REMARK  status: ('A' for Active; 'I' for Inactive)
REMARK    1  A    between atoms: C_1  and  N_2
REMARK    2  A    between atoms: N_2  and  C_3
REMARK    3  A    between atoms: N_2  and  C_4
REMARK    4  A    between atoms: C_8  and  C_9
REMARK    5  A    between atoms: C_9  and  C_10
REMARK    6  A    between atoms: C_13  and  C_14
REMARK    7  A    between atoms: N_16  and  O_17
REMARK                            x       y       z     vdW  Elec       q    Type
REMARK                         _______ _______ _______ _____ _____    ______ ____
ROOT
ATOM      1  C   UNL     1       2.142   7.442  19.599  0.00  0.00    +0.000 A 
ATOM      2  C   UNL     1       1.396   8.196  20.512  0.00  0.00    +0.000 A 
ATOM      3  C   UNL     1       0.861   9.435  20.142  0.00  0.00    +0.000 A 
ATOM      4  C   UNL     1       1.053   9.940  18.848  0.00  0.00    +0.000 A 
ATOM      5  C   UNL     1       1.761   9.167  17.920  0.00  0.00    +0.000 A 
ATOM      6  C   UNL     1       2.300   7.929  18.294  0.00  0.00    +0.000 A 
ENDROOT
BRANCH   4   7
ATOM      7  C   UNL     1       0.485  11.284  18.531  0.00  0.00    +0.000 C 
ATOM      8  O   UNL     1       1.107  12.315  18.788  0.00  0.00    +0.000 OA
ATOM      9  N   UNL     1      -0.748  11.338  17.920  0.00  0.00    +0.000 N 
ATOM     10  H   UNL     1      -1.225  10.561  17.484  0.00  0.00    +0.000 HD
BRANCH   9  11
ATOM     11  O   UNL     1      -1.192  12.629  17.550  0.00  0.00    +0.000 OA
ATOM     12  H   UNL     1      -2.103  12.447  17.227  0.00  0.00    +0.000 HD
ENDBRANCH   9  11
ENDBRANCH   4   7
BRANCH   1  13
ATOM     13  C   UNL     1       2.814   6.158  20.030  0.00  0.00    +0.000 C 
BRANCH  13  18
ATOM     14  C   UNL     1       5.151   4.651  17.364  0.00  0.00    +0.000 A 
ATOM     15  C   UNL     1       4.225   3.824  16.708  0.00  0.00    +0.000 A 
ATOM     16  C   UNL     1       2.904   3.684  17.153  0.00  0.00    +0.000 A 
ATOM     17  C   UNL     1       2.458   4.404  18.255  0.00  0.00    +0.000 A 
ATOM     18  C   UNL     1       3.326   5.270  18.920  0.00  0.00    +0.000 A 
ATOM     19  C   UNL     1       4.663   5.362  18.482  0.00  0.00    +0.000 A 
BRANCH  14  21
ATOM     20  C   UNL     1       6.794   4.491  15.523  0.00  0.00    +0.000 C 
ATOM     21  N   UNL     1       6.463   4.810  16.908  0.00  0.00    +0.000 N 
ATOM     22  C   UNL     1       7.549   4.708  17.880  0.00  0.00    +0.000 C 
ENDBRANCH  14  21
ENDBRANCH  13  18
ENDBRANCH   1  13
TORSDOF 5
ENDMDL
MODEL 4
REMARK VINA RESULT:      -7.1      4.254      7.194
REMARK  Name = 
REMARK  7 active torsions:
REMARK  status: ('A' for Active; 'I' for Inactive)
REMARK    1  A    between atoms: C_1  and  N_2
REMARK    2  A    between atoms: N_2  and  C_3
REMARK    3  A    between atoms: N_2  and  C_4
REMARK    4  A    between atoms: C_8  and  C_9
REMARK    5  A    between atoms: C_9  and  C_10
REMARK    6  A    between atoms: C_13  and  C_14
REMARK    7  A    between atoms: N_16  and  O_17
REMARK                            x       y       z     vdW  Elec       q    Type
REMARK                         _______ _______ _______ _____ _____    ______ ____
ROOT
ATOM      1  C   UNL     1       1.906   7.527  19.920  0.00  0.00    +0.000 A 
ATOM      2  C   UNL     1       2.176   7.987  18.626  0.00  0.00    +0.000 A 
ATOM      3  C   UNL     1       1.737   9.250  18.213  0.00  0.00    +0.000 A 
ATOM      4  C   UNL     1       1.027  10.083  19.090  0.00  0.00    +0.000 A 
ATOM      5  C   UNL     1       0.794   9.642  20.399  0.00  0.00    +0.000 A 
ATOM      6  C   UNL     1       1.230   8.375  20.808  0.00  0.00    +0.000 A 
ENDROOT
BRANCH   4   7
ATOM      7  C   UNL     1       0.557  11.403  18.574  0.00  0.00    +0.000 C 
ATOM      8  O   UNL     1       1.286  12.394  18.604  0.00  0.00    +0.000 OA
ATOM      9  N   UNL     1      -0.710  11.475  18.040  0.00  0.00    +0.000 N 
ATOM     10  H   UNL     1      -1.287  10.686  17.780  0.00  0.00    +0.000 HD
BRANCH   9  11
ATOM     11  O   UNL     1      -1.066  12.721  17.473  0.00  0.00    +0.000 OA
ATOM     12  H   UNL     1      -0.488  13.344  17.968  0.00  0.00    +0.000 HD
ENDBRANCH   9  11
ENDBRANCH   4   7
BRANCH   1  13
ATOM     13  C   UNL     1       2.281   6.121  20.330  0.00  0.00    +0.000 C 
BRANCH  13  18
ATOM     14  C   UNL     1       5.206   4.709  18.261  0.00  0.00    +0.000 A 
ATOM     15  C   UNL     1       4.468   4.029  17.279  0.00  0.00    +0.000 A 
ATOM     16  C   UNL     1       3.070   3.951  17.319  0.00  0.00    +0.000 A 
ATOM     17  C   UNL     1       2.362   4.590  18.330  0.00  0.00    +0.000 A 
ATOM     18  C   UNL     1       3.045   5.312  19.309  0.00  0.00    +0.000 A 
ATOM     19  C   UNL     1       4.455   5.340  19.275  0.00  0.00    +0.000 A 
BRANCH  14  21
ATOM     20  C   UNL     1       7.301   5.671  19.156  0.00  0.00    +0.000 C 
ATOM     21  N   UNL     1       6.600   4.807  18.211  0.00  0.00    +0.000 N 
ATOM     22  C   UNL     1       7.265   4.562  16.933  0.00  0.00    +0.000 C 
ENDBRANCH  14  21
ENDBRANCH  13  18
ENDBRANCH   1  13
TORSDOF 5
ENDMDL
MODEL 5
REMARK VINA RESULT:      -7.0      1.949      3.208
REMARK  Name = 
REMARK  7 active torsions:
REMARK  status: ('A' for Active; 'I' for Inactive)
REMARK    1  A    between atoms: C_1  and  N_2
REMARK    2  A    between atoms: N_2  and  C_3
REMARK    3  A    between atoms: N_2  and  C_4
REMARK    4  A    between atoms: C_8  and  C_9
REMARK    5  A    between atoms: C_9  and  C_10
REMARK    6  A    between atoms: C_13  and  C_14
REMARK    7  A    between atoms: N_16  and  O_17
REMARK                            x       y       z     vdW  Elec       q    Type
REMARK                         _______ _______ _______ _____ _____    ______ ____
ROOT
ATOM      1  C   UNL     1       3.838   5.796  17.920  0.00  0.00    +0.000 A 
ATOM      2  C   UNL     1       4.614   6.740  17.237  0.00  0.00    +0.000 A 
ATOM      3  C   UNL     1       5.404   6.357  16.147  0.00  0.00    +0.000 A 
ATOM      4  C   UNL     1       5.425   5.025  15.712  0.00  0.00    +0.000 A 
ATOM      5  C   UNL     1       4.616   4.087  16.366  0.00  0.00    +0.000 A 
ATOM      6  C   UNL     1       3.831   4.472  17.460  0.00  0.00    +0.000 A 
ENDROOT
BRANCH   4   7
ATOM      7  C   UNL     1       6.317   4.679  14.565  0.00  0.00    +0.000 C 
ATOM      8  O   UNL     1       7.407   5.232  14.416  0.00  0.00    +0.000 OA
ATOM      9  N   UNL     1       5.896   3.704  13.690  0.00  0.00    +0.000 N 
ATOM     10  H   UNL     1       5.136   3.056  13.848  0.00  0.00    +0.000 HD
BRANCH   9  11
ATOM     11  O   UNL     1       6.822   3.343  12.682  0.00  0.00    +0.000 OA
ATOM     12  H   UNL     1       7.379   4.150  12.617  0.00  0.00    +0.000 HD
ENDBRANCH   9  11
ENDBRANCH   4   7
BRANCH   1  13
ATOM     13  C   UNL     1       3.073   6.185  19.165  0.00  0.00    +0.000 C 
BRANCH  13  18
ATOM     14  C   UNL     1       0.928   9.199  20.235  0.00  0.00    +0.000 A 
ATOM     15  C   UNL     1       0.793   9.823  18.985  0.00  0.00    +0.000 A 
ATOM     16  C   UNL     1       1.438   9.342  17.839  0.00  0.00    +0.000 A 
ATOM     17  C   UNL     1       2.213   8.191  17.904  0.00  0.00    +0.000 A 
ATOM     18  C   UNL     1       2.349   7.509  19.113  0.00  0.00    +0.000 A 
ATOM     19  C   UNL     1       1.727   8.036  20.264  0.00  0.00    +0.000 A 
BRANCH  14  21
ATOM     20  C   UNL     1      -0.528  10.886  21.308  0.00  0.00    +0.000 C 
ATOM     21  N   UNL     1       0.266   9.664  21.376  0.00  0.00    +0.000 N 
ATOM     22  C   UNL     1       0.816   9.315  22.684  0.00  0.00    +0.000 C 
ENDBRANCH  14  21
ENDBRANCH  13  18
ENDBRANCH   1  13
TORSDOF 5
ENDMDL
MODEL 6
REMARK VINA RESULT:      -7.0      4.279      7.290
REMARK  Name = 
REMARK  7 active torsions:
REMARK  status: ('A' for Active; 'I' for Inactive)
REMARK    1  A    between atoms: C_1  and  N_2
REMARK    2  A    between atoms: N_2  and  C_3
REMARK    3  A    between atoms: N_2  and  C_4
REMARK    4  A    between atoms: C_8  and  C_9
REMARK    5  A    between atoms: C_9  and  C_10
REMARK    6  A    between atoms: C_13  and  C_14
REMARK    7  A    between atoms: N_16  and  O_17
REMARK                            x       y       z     vdW  Elec       q    Type
REMARK                         _______ _______ _______ _____ _____    ______ ____
ROOT
ATOM      1  C   UNL     1       1.975   7.560  19.914  0.00  0.00    +0.000 A 
ATOM      2  C   UNL     1       2.155   8.035  18.611  0.00  0.00    +0.000 A 
ATOM      3  C   UNL     1       1.592   9.254  18.214  0.00  0.00    +0.000 A 
ATOM      4  C   UNL     1       0.847  10.026  19.116  0.00  0.00    +0.000 A 
ATOM      5  C   UNL     1       0.703   9.573  20.434  0.00  0.00    +0.000 A 
ATOM      6  C   UNL     1       1.262   8.350  20.826  0.00  0.00    +0.000 A 
ENDROOT
BRANCH   4   7
ATOM      7  C   UNL     1       0.245  11.298  18.617  0.00  0.00    +0.000 C 
ATOM      8  O   UNL     1       0.761  12.387  18.868  0.00  0.00    +0.000 OA
ATOM      9  N   UNL     1      -0.892  11.217  17.847  0.00  0.00    +0.000 N 
ATOM     10  H   UNL     1      -1.256  10.377  17.417  0.00  0.00    +0.000 HD
BRANCH   9  11
ATOM     11  O   UNL     1      -1.362  12.441  17.315  0.00  0.00    +0.000 OA
ATOM     12  H   UNL     1      -2.329  12.277  17.246  0.00  0.00    +0.000 HD
ENDBRANCH   9  11
ENDBRANCH   4   7
BRANCH   1  13
ATOM     13  C   UNL     1       2.485   6.193  20.311  0.00  0.00    +0.000 C 
BRANCH  13  18
ATOM     14  C   UNL     1       4.553   4.527  17.521  0.00  0.00    +0.000 A 
ATOM     15  C   UNL     1       3.535   3.765  16.925  0.00  0.00    +0.000 A 
ATOM     16  C   UNL     1       2.236   3.716  17.447  0.00  0.00    +0.000 A 
ATOM     17  C   UNL     1       1.906   4.466  18.569  0.00  0.00    +0.000 A 
ATOM     18  C   UNL     1       2.869   5.272  19.178  0.00  0.00    +0.000 A 
ATOM     19  C   UNL     1       4.182   5.270  18.662  0.00  0.00    +0.000 A 
BRANCH  14  21
ATOM     20  C   UNL     1       6.135   3.957  15.709  0.00  0.00    +0.000 C 
ATOM     21  N   UNL     1       5.844   4.594  16.988  0.00  0.00    +0.000 N 
ATOM     22  C   UNL     1       6.965   4.747  17.912  0.00  0.00    +0.000 C 
ENDBRANCH  14  21
ENDBRANCH  13  18
ENDBRANCH   1  13
TORSDOF 5
ENDMDL
MODEL 7
REMARK VINA RESULT:      -7.0      3.982      7.539
REMARK  Name = 
REMARK  7 active torsions:
REMARK  status: ('A' for Active; 'I' for Inactive)
REMARK    1  A    between atoms: C_1  and  N_2
REMARK    2  A    between atoms: N_2  and  C_3
REMARK    3  A    between atoms: N_2  and  C_4
REMARK    4  A    between atoms: C_8  and  C_9
REMARK    5  A    between atoms: C_9  and  C_10
REMARK    6  A    between atoms: C_13  and  C_14
REMARK    7  A    between atoms: N_16  and  O_17
REMARK                            x       y       z     vdW  Elec       q    Type
REMARK                         _______ _______ _______ _____ _____    ______ ____
ROOT
ATOM      1  C   UNL     1       2.697   5.472  18.609  0.00  0.00    +0.000 A 
ATOM      2  C   UNL     1       2.179   5.288  19.896  0.00  0.00    +0.000 A 
ATOM      3  C   UNL     1       1.716   6.379  20.640  0.00  0.00    +0.000 A 
ATOM      4  C   UNL     1       1.751   7.675  20.107  0.00  0.00    +0.000 A 
ATOM      5  C   UNL     1       2.228   7.856  18.803  0.00  0.00    +0.000 A 
ATOM      6  C   UNL     1       2.697   6.763  18.063  0.00  0.00    +0.000 A 
ENDROOT
BRANCH   4   7
ATOM      7  C   UNL     1       1.274   8.798  20.969  0.00  0.00    +0.000 C 
ATOM      8  O   UNL     1       0.579   9.703  20.507  0.00  0.00    +0.000 OA
ATOM      9  N   UNL     1       1.615   8.780  22.302  0.00  0.00    +0.000 N 
ATOM     10  H   UNL     1       1.990   7.988  22.805  0.00  0.00    +0.000 HD
BRANCH   9  11
ATOM     11  O   UNL     1       1.053   9.811  23.092  0.00  0.00    +0.000 OA
ATOM     12  H   UNL     1       1.805  10.053  23.678  0.00  0.00    +0.000 HD
ENDBRANCH   9  11
ENDBRANCH   4   7
BRANCH   1  13
ATOM     13  C   UNL     1       3.300   4.313  17.850  0.00  0.00    +0.000 C 
BRANCH  13  18
ATOM     14  C   UNL     1       6.378   4.438  15.537  0.00  0.00    +0.000 A 
ATOM     15  C   UNL     1       7.377   4.576  16.514  0.00  0.00    +0.000 A 
ATOM     16  C   UNL     1       7.074   4.709  17.876  0.00  0.00    +0.000 A 
ATOM     17  C   UNL     1       5.754   4.669  18.305  0.00  0.00    +0.000 A 
ATOM     18  C   UNL     1       4.724   4.495  17.380  0.00  0.00    +0.000 A 
ATOM     19  C   UNL     1       5.049   4.407  16.010  0.00  0.00    +0.000 A 
BRANCH  14  21
ATOM     20  C   UNL     1       7.645   5.170  13.544  0.00  0.00    +0.000 C 
ATOM     21  N   UNL     1       6.679   4.281  14.181  0.00  0.00    +0.000 N 
ATOM     22  C   UNL     1       5.663   3.691  13.312  0.00  0.00    +0.000 C 
ENDBRANCH  14  21
ENDBRANCH  13  18
ENDBRANCH   1  13
TORSDOF 5
ENDMDL
MODEL 8
REMARK VINA RESULT:      -7.0      1.742      3.122
REMARK  Name = 
REMARK  7 active torsions:
REMARK  status: ('A' for Active; 'I' for Inactive)
REMARK    1  A    between atoms: C_1  and  N_2
REMARK    2  A    between atoms: N_2  and  C_3
REMARK    3  A    between atoms: N_2  and  C_4
REMARK    4  A    between atoms: C_8  and  C_9
REMARK    5  A    between atoms: C_9  and  C_10
REMARK    6  A    between atoms: C_13  and  C_14
REMARK    7  A    between atoms: N_16  and  O_17
REMARK                            x       y       z     vdW  Elec       q    Type
REMARK                         _______ _______ _______ _____ _____    ______ ____
ROOT
ATOM      1  C   UNL     1       3.829   5.737  18.022  0.00  0.00    +0.000 A 
ATOM      2  C   UNL     1       3.823   4.491  17.386  0.00  0.00    +0.000 A 
ATOM      3  C   UNL     1       4.686   4.236  16.315  0.00  0.00    +0.000 A 
ATOM      4  C   UNL     1       5.579   5.218  15.864  0.00  0.00    +0.000 A 
ATOM      5  C   UNL     1       5.617   6.451  16.528  0.00  0.00    +0.000 A 
ATOM      6  C   UNL     1       4.748   6.706  17.597  0.00  0.00    +0.000 A 
ENDROOT
BRANCH   4   7
ATOM      7  C   UNL     1       6.447   4.891  14.694  0.00  0.00    +0.000 C 
ATOM      8  O   UNL     1       6.114   4.034  13.875  0.00  0.00    +0.000 OA
ATOM      9  N   UNL     1       7.621   5.594  14.542  0.00  0.00    +0.000 N 
ATOM     10  H   UNL     1       7.867   6.445  15.030  0.00  0.00    +0.000 HD
BRANCH   9  11
ATOM     11  O   UNL     1       8.353   5.317  13.364  0.00  0.00    +0.000 OA
ATOM     12  H   UNL     1       8.688   6.208  13.117  0.00  0.00    +0.000 HD
ENDBRANCH   9  11
ENDBRANCH   4   7
BRANCH   1  13
ATOM     13  C   UNL     1       2.821   6.052  19.105  0.00  0.00    +0.000 C 
BRANCH  13  18
ATOM     14  C   UNL     1       1.028   9.265  20.244  0.00  0.00    +0.000 A 
ATOM     15  C   UNL     1       0.891   9.890  18.995  0.00  0.00    +0.000 A 
ATOM     16  C   UNL     1       1.429   9.342  17.824  0.00  0.00    +0.000 A 
ATOM     17  C   UNL     1       2.093   8.122  17.864  0.00  0.00    +0.000 A 
ATOM     18  C   UNL     1       2.224   7.439  19.073  0.00  0.00    +0.000 A 
ATOM     19  C   UNL     1       1.714   8.031  20.248  0.00  0.00    +0.000 A 
BRANCH  14  21
ATOM     20  C   UNL     1      -0.289   8.940  22.311  0.00  0.00    +0.000 C 
ATOM     21  N   UNL     1       0.473   9.799  21.411  0.00  0.00    +0.000 N 
ATOM     22  C   UNL     1       0.141  11.222  21.430  0.00  0.00    +0.000 C 
ENDBRANCH  14  21
ENDBRANCH  13  18
ENDBRANCH   1  13
TORSDOF 5
ENDMDL
MODEL 9
REMARK VINA RESULT:      -7.0      4.988      8.163
REMARK  Name = 
REMARK  7 active torsions:
REMARK  status: ('A' for Active; 'I' for Inactive)
REMARK    1  A    between atoms: C_1  and  N_2
REMARK    2  A    between atoms: N_2  and  C_3
REMARK    3  A    between atoms: N_2  and  C_4
REMARK    4  A    between atoms: C_8  and  C_9
REMARK    5  A    between atoms: C_9  and  C_10
REMARK    6  A    between atoms: C_13  and  C_14
REMARK    7  A    between atoms: N_16  and  O_17
REMARK                            x       y       z     vdW  Elec       q    Type
REMARK                         _______ _______ _______ _____ _____    ______ ____
ROOT
ATOM      1  C   UNL     1       1.854   8.366  18.915  0.00  0.00    +0.000 A 
ATOM      2  C   UNL     1       1.873   7.721  20.157  0.00  0.00    +0.000 A 
ATOM      3  C   UNL     1       1.277   8.313  21.275  0.00  0.00    +0.000 A 
ATOM      4  C   UNL     1       0.641   9.559  21.173  0.00  0.00    +0.000 A 
ATOM      5  C   UNL     1       0.583  10.186  19.922  0.00  0.00    +0.000 A 
ATOM      6  C   UNL     1       1.186   9.593  18.805  0.00  0.00    +0.000 A 
ENDROOT
BRANCH   4   7
ATOM      7  C   UNL     1       0.057  10.150  22.414  0.00  0.00    +0.000 C 
ATOM      8  O   UNL     1       0.381   9.739  23.528  0.00  0.00    +0.000 OA
ATOM      9  N   UNL     1      -0.838  11.187  22.276  0.00  0.00    +0.000 N 
ATOM     10  H   UNL     1      -0.995  11.723  21.434  0.00  0.00    +0.000 HD
BRANCH   9  11
ATOM     11  O   UNL     1      -1.282  11.777  23.483  0.00  0.00    +0.000 OA
ATOM     12  H   UNL     1      -1.185  12.736  23.289  0.00  0.00    +0.000 HD
ENDBRANCH   9  11
ENDBRANCH   4   7
BRANCH   1  13
ATOM     13  C   UNL     1       2.594   7.781  17.733  0.00  0.00    +0.000 C 
BRANCH  13  18
ATOM     14  C   UNL     1       5.237   5.010  18.146  0.00  0.00    +0.000 A 
ATOM     15  C   UNL     1       4.390   3.892  18.078  0.00  0.00    +0.000 A 
ATOM     16  C   UNL     1       2.998   4.016  17.984  0.00  0.00    +0.000 A 
ATOM     17  C   UNL     1       2.411   5.274  17.918  0.00  0.00    +0.000 A 
ATOM     18  C   UNL     1       3.209   6.418  17.943  0.00  0.00    +0.000 A 
ATOM     19  C   UNL     1       4.605   6.270  18.082  0.00  0.00    +0.000 A 
BRANCH  14  21
ATOM     20  C   UNL     1       7.378   5.685  19.182  0.00  0.00    +0.000 C 
ATOM     21  N   UNL     1       6.628   4.889  18.216  0.00  0.00    +0.000 N 
ATOM     22  C   UNL     1       7.347   4.473  17.014  0.00  0.00    +0.000 C 
ENDBRANCH  14  21
ENDBRANCH  13  18
ENDBRANCH   1  13
TORSDOF 5
ENDMDL
