MODEL 1
REMARK VINA RESULT:      -8.4      0.000      0.000
REMARK  Name = 
REMARK  5 active torsions:
REMARK  status: ('A' for Active; 'I' for Inactive)
REMARK    1  A    between atoms: C_1  and  C_2
REMARK    2  A    between atoms: C_2  and  N_3
REMARK    3  A    between atoms: C_11  and  C_12
REMARK    4  A    between atoms: N_14  and  C_15
REMARK    5  A    between atoms: C_15  and  C_16
REMARK                            x       y       z     vdW  Elec       q    Type
REMARK                         _______ _______ _______ _____ _____    ______ ____
ROOT
ATOM      1  N   UNL     1       0.569  10.786  20.075  0.00  0.00    +0.000 N 
ATOM      2  C   UNL     1       0.184  10.968  21.413  0.00  0.00    +0.000 A 
ATOM      3  O   UNL     1      -0.350  11.990  21.835  0.00  0.00    +0.000 OA
ATOM      4  C   UNL     1       0.445   9.812  22.392  0.00  0.00    +0.000 A 
ATOM      5  O   UNL     1       0.181   9.911  23.583  0.00  0.00    +0.000 OA
ATOM      6  N   UNL     1       0.978   8.660  21.876  0.00  0.00    +0.000 N 
ATOM      7  C   UNL     1       1.347   8.513  20.539  0.00  0.00    +0.000 A 
ATOM      8  C   UNL     1       1.913   7.296  20.142  0.00  0.00    +0.000 A 
ATOM      9  C   UNL     1       2.343   7.120  18.823  0.00  0.00    +0.000 A 
ATOM     10  C   UNL     1       2.164   8.155  17.903  0.00  0.00    +0.000 A 
ATOM     11  C   UNL     1       1.571   9.362  18.302  0.00  0.00    +0.000 A 
ATOM     12  C   UNL     1       1.161   9.565  19.629  0.00  0.00    +0.000 A 
ATOM     13  H   UNL     1       1.118   7.910  22.540  0.00  0.00    +0.000 HD
ENDROOT
BRANCH   9  14
ATOM     14  C   UNL     1       2.946   5.814  18.436  0.00  0.00    +0.000 C 
ATOM     15  O   UNL     1       2.246   4.960  17.900  0.00  0.00    +0.000 OA
ATOM     16  N   UNL     1       4.277   5.638  18.741  0.00  0.00    +0.000 N 
ATOM     17  H   UNL     1       4.767   6.326  19.292  0.00  0.00    +0.000 HD
BRANCH  16  18
ATOM     18  C   UNL     1       4.991   4.424  18.412  0.00  0.00    +0.000 C 
BRANCH  18  19
ATOM     19  C   UNL     1       5.640   4.540  17.055  0.00  0.00    +0.000 A 
ATOM     20  C   UNL     1       6.947   5.036  16.916  0.00  0.00    +0.000 A 
ATOM     21  C   UNL     1       7.522   5.158  15.647  0.00  0.00    +0.000 A 
ATOM     22  C   UNL     1       6.794   4.790  14.523  0.00  0.00    +0.000 A 
ATOM     23  F   UNL     1       7.346   4.914  13.308  0.00  0.00    +0.000 F 
ATOM     24  C   UNL     1       5.499   4.299  14.639  0.00  0.00    +0.000 A 
ATOM     25  C   UNL     1       4.922   4.178  15.904  0.00  0.00    +0.000 A 
ENDBRANCH  18  19
ENDBRANCH  16  18
ENDBRANCH   9  14
BRANCH   1  27
ATOM     26  C   UNL     1      -1.152  11.657  18.531  0.00  0.00    +0.000 C 
ATOM     27  C   UNL     1       0.227  11.858  19.142  0.00  0.00    +0.000 C 
ENDBRANCH   1  27
TORSDOF 4
ENDMDL
MODEL 2
REMARK VINA RESULT:      -8.2      3.650      8.394
REMARK  Name = 
REMARK  5 active torsions:
REMARK  status: ('A' for Active; 'I' for Inactive)
REMARK    1  A    between atoms: C_1  and  C_2
REMARK    2  A    between atoms: C_2  and  N_3
REMARK    3  A    between atoms: C_11  and  C_12
REMARK    4  A    between atoms: N_14  and  C_15
REMARK    5  A    between atoms: C_15  and  C_16
REMARK                            x       y       z     vdW  Elec       q    Type
REMARK                         _______ _______ _______ _____ _____    ______ ____
ROOT
ATOM      1  N   UNL     1       3.781   4.166  18.880  0.00  0.00    +0.000 N 
ATOM      2  C   UNL     1       3.690   3.154  19.848  0.00  0.00    +0.000 A 
ATOM      3  O   UNL     1       4.247   2.063  19.748  0.00  0.00    +0.000 OA
ATOM      4  C   UNL     1       2.848   3.441  21.102  0.00  0.00    +0.000 A 
ATOM      5  O   UNL     1       2.682   2.592  21.969  0.00  0.00    +0.000 OA
ATOM      6  N   UNL     1       2.298   4.691  21.216  0.00  0.00    +0.000 N 
ATOM      7  C   UNL     1       2.410   5.675  20.235  0.00  0.00    +0.000 A 
ATOM      8  C   UNL     1       1.773   6.901  20.456  0.00  0.00    +0.000 A 
ATOM      9  C   UNL     1       1.818   7.900  19.479  0.00  0.00    +0.000 A 
ATOM     10  C   UNL     1       2.538   7.674  18.303  0.00  0.00    +0.000 A 
ATOM     11  C   UNL     1       3.197   6.452  18.101  0.00  0.00    +0.000 A 
ATOM     12  C   UNL     1       3.137   5.429  19.059  0.00  0.00    +0.000 A 
ATOM     13  H   UNL     1       1.768   4.857  22.062  0.00  0.00    +0.000 HD
ENDROOT
BRANCH   9  14
ATOM     14  C   UNL     1       1.125   9.191  19.744  0.00  0.00    +0.000 C 
ATOM     15  O   UNL     1       0.879   9.520  20.901  0.00  0.00    +0.000 OA
ATOM     16  N   UNL     1       0.769   9.935  18.641  0.00  0.00    +0.000 N 
ATOM     17  H   UNL     1       0.886   9.556  17.713  0.00  0.00    +0.000 HD
BRANCH  16  18
ATOM     18  C   UNL     1       0.100  11.213  18.753  0.00  0.00    +0.000 C 
BRANCH  18  19
ATOM     19  C   UNL     1      -1.365  11.076  18.423  0.00  0.00    +0.000 A 
ATOM     20  C   UNL     1      -1.815  10.118  17.498  0.00  0.00    +0.000 A 
ATOM     21  C   UNL     1      -3.175  10.023  17.188  0.00  0.00    +0.000 A 
ATOM     22  C   UNL     1      -4.081  10.883  17.796  0.00  0.00    +0.000 A 
ATOM     23  F   UNL     1      -5.383  10.793  17.492  0.00  0.00    +0.000 F 
ATOM     24  C   UNL     1      -3.657  11.838  18.712  0.00  0.00    +0.000 A 
ATOM     25  C   UNL     1      -2.300  11.937  19.022  0.00  0.00    +0.000 A 
ENDBRANCH  18  19
ENDBRANCH  16  18
ENDBRANCH   9  14
BRANCH   1  27
ATOM     26  C   UNL     1       6.047   4.501  17.954  0.00  0.00    +0.000 C 
ATOM     27  C   UNL     1       4.661   3.909  17.742  0.00  0.00    +0.000 C 
ENDBRANCH   1  27
TORSDOF 4
ENDMDL
MODEL 3
REMARK VINA RESULT:      -8.1      3.973      8.616
REMARK  Name = 
REMARK  5 active torsions:
REMARK  status: ('A' for Active; 'I' for Inactive)
REMARK    1  A    between atoms: C_1  and  C_2
REMARK    2  A    between atoms: C_2  and  N_3
REMARK    3  A    between atoms: C_11  and  C_12
REMARK    4  A    between atoms: N_14  and  C_15
REMARK    5  A    between atoms: C_15  and  C_16
REMARK                            x       y       z     vdW  Elec       q    Type
REMARK                         _______ _______ _______ _____ _____    ______ ____
ROOT
ATOM      1  N   UNL     1       3.108   4.080  20.059  0.00  0.00    +0.000 N 
ATOM      2  C   UNL     1       3.819   3.276  19.154  0.00  0.00    +0.000 A 
ATOM      3  O   UNL     1       4.177   2.127  19.401  0.00  0.00    +0.000 OA
ATOM      4  C   UNL     1       4.154   3.876  17.779  0.00  0.00    +0.000 A 
ATOM      5  O   UNL     1       4.811   3.255  16.954  0.00  0.00    +0.000 OA
ATOM      6  N   UNL     1       3.679   5.133  17.511  0.00  0.00    +0.000 N 
ATOM      7  C   UNL     1       2.974   5.905  18.434  0.00  0.00    +0.000 A 
ATOM      8  C   UNL     1       2.572   7.189  18.049  0.00  0.00    +0.000 A 
ATOM      9  C   UNL     1       1.905   8.016  18.957  0.00  0.00    +0.000 A 
ATOM     10  C   UNL     1       1.611   7.531  20.234  0.00  0.00    +0.000 A 
ATOM     11  C   UNL     1       1.993   6.233  20.603  0.00  0.00    +0.000 A 
ATOM     12  C   UNL     1       2.689   5.401  19.713  0.00  0.00    +0.000 A 
ATOM     13  H   UNL     1       3.898   5.493  16.590  0.00  0.00    +0.000 HD
ENDROOT
BRANCH   9  14
ATOM     14  C   UNL     1       1.497   9.379  18.516  0.00  0.00    +0.000 C 
ATOM     15  O   UNL     1       2.083   9.914  17.580  0.00  0.00    +0.000 OA
ATOM     16  N   UNL     1       0.480   9.975  19.228  0.00  0.00    +0.000 N 
ATOM     17  H   UNL     1       0.121   9.539  20.064  0.00  0.00    +0.000 HD
BRANCH  16  18
ATOM     18  C   UNL     1      -0.023  11.292  18.902  0.00  0.00    +0.000 C 
BRANCH  18  19
ATOM     19  C   UNL     1      -1.463  11.215  18.460  0.00  0.00    +0.000 A 
ATOM     20  C   UNL     1      -2.459  11.976  19.096  0.00  0.00    +0.000 A 
ATOM     21  C   UNL     1      -3.792  11.874  18.686  0.00  0.00    +0.000 A 
ATOM     22  C   UNL     1      -4.130  11.013  17.650  0.00  0.00    +0.000 A 
ATOM     23  F   UNL     1      -5.409  10.912  17.264  0.00  0.00    +0.000 F 
ATOM     24  C   UNL     1      -3.160  10.251  17.009  0.00  0.00    +0.000 A 
ATOM     25  C   UNL     1      -1.829  10.349  17.417  0.00  0.00    +0.000 A 
ENDBRANCH  18  19
ENDBRANCH  16  18
ENDBRANCH   9  14
BRANCH   1  27
ATOM     26  C   UNL     1       1.351   2.796  21.229  0.00  0.00    +0.000 C 
ATOM     27  C   UNL     1       2.718   3.459  21.323  0.00  0.00    +0.000 C 
ENDBRANCH   1  27
TORSDOF 4
ENDMDL
MODEL 4
REMARK VINA RESULT:      -8.1      3.607      8.308
REMARK  Name = 
REMARK  5 active torsions:
REMARK  status: ('A' for Active; 'I' for Inactive)
REMARK    1  A    between atoms: C_1  and  C_2
REMARK    2  A    between atoms: C_2  and  N_3
REMARK    3  A    between atoms: C_11  and  C_12
REMARK    4  A    between atoms: N_14  and  C_15
REMARK    5  A    between atoms: C_15  and  C_16
REMARK                            x       y       z     vdW  Elec       q    Type
REMARK                         _______ _______ _______ _____ _____    ______ ____
ROOT
ATOM      1  N   UNL     1       3.903   4.319  19.008  0.00  0.00    +0.000 N 
ATOM      2  C   UNL     1       3.769   3.277  19.940  0.00  0.00    +0.000 A 
ATOM      3  O   UNL     1       4.362   2.205  19.853  0.00  0.00    +0.000 OA
ATOM      4  C   UNL     1       2.829   3.508  21.135  0.00  0.00    +0.000 A 
ATOM      5  O   UNL     1       2.623   2.631  21.964  0.00  0.00    +0.000 OA
ATOM      6  N   UNL     1       2.238   4.739  21.240  0.00  0.00    +0.000 N 
ATOM      7  C   UNL     1       2.395   5.753  20.296  0.00  0.00    +0.000 A 
ATOM      8  C   UNL     1       1.709   6.956  20.500  0.00  0.00    +0.000 A 
ATOM      9  C   UNL     1       1.799   7.983  19.555  0.00  0.00    +0.000 A 
ATOM     10  C   UNL     1       2.609   7.808  18.431  0.00  0.00    +0.000 A 
ATOM     11  C   UNL     1       3.315   6.610  18.247  0.00  0.00    +0.000 A 
ATOM     12  C   UNL     1       3.213   5.559  19.171  0.00  0.00    +0.000 A 
ATOM     13  H   UNL     1       1.642   4.868  22.048  0.00  0.00    +0.000 HD
ENDROOT
BRANCH   9  14
ATOM     14  C   UNL     1       1.052   9.247  19.801  0.00  0.00    +0.000 C 
ATOM     15  O   UNL     1       0.626   9.490  20.927  0.00  0.00    +0.000 OA
ATOM     16  N   UNL     1       0.857  10.068  18.713  0.00  0.00    +0.000 N 
ATOM     17  H   UNL     1       1.122   9.758  17.790  0.00  0.00    +0.000 HD
BRANCH  16  18
ATOM     18  C   UNL     1       0.159  11.331  18.811  0.00  0.00    +0.000 C 
BRANCH  18  19
ATOM     19  C   UNL     1      -1.297  11.161  18.454  0.00  0.00    +0.000 A 
ATOM     20  C   UNL     1      -2.287  11.971  19.038  0.00  0.00    +0.000 A 
ATOM     21  C   UNL     1      -3.633  11.782  18.711  0.00  0.00    +0.000 A 
ATOM     22  C   UNL     1      -3.990  10.788  17.809  0.00  0.00    +0.000 A 
ATOM     23  F   UNL     1      -5.281  10.607  17.503  0.00  0.00    +0.000 F 
ATOM     24  C   UNL     1      -3.027   9.977  17.222  0.00  0.00    +0.000 A 
ATOM     25  C   UNL     1      -1.682  10.161  17.547  0.00  0.00    +0.000 A 
ENDBRANCH  18  19
ENDBRANCH  16  18
ENDBRANCH   9  14
BRANCH   1  27
ATOM     26  C   UNL     1       4.200   3.644  16.649  0.00  0.00    +0.000 C 
ATOM     27  C   UNL     1       4.871   4.116  17.932  0.00  0.00    +0.000 C 
ENDBRANCH   1  27
TORSDOF 4
ENDMDL
MODEL 5
REMARK VINA RESULT:      -8.1      3.506      8.643
REMARK  Name = 
REMARK  5 active torsions:
REMARK  status: ('A' for Active; 'I' for Inactive)
REMARK    1  A    between atoms: C_1  and  C_2
REMARK    2  A    between atoms: C_2  and  N_3
REMARK    3  A    between atoms: C_11  and  C_12
REMARK    4  A    between atoms: N_14  and  C_15
REMARK    5  A    between atoms: C_15  and  C_16
REMARK                            x       y       z     vdW  Elec       q    Type
REMARK                         _______ _______ _______ _____ _____    ______ ____
ROOT
ATOM      1  N   UNL     1       4.292   4.221  17.761  0.00  0.00    +0.000 N 
ATOM      2  C   UNL     1       5.121   4.396  16.642  0.00  0.00    +0.000 A 
ATOM      3  O   UNL     1       5.743   3.482  16.105  0.00  0.00    +0.000 OA
ATOM      4  C   UNL     1       5.243   5.814  16.061  0.00  0.00    +0.000 A 
ATOM      5  O   UNL     1       5.982   6.057  15.115  0.00  0.00    +0.000 OA
ATOM      6  N   UNL     1       4.482   6.797  16.639  0.00  0.00    +0.000 N 
ATOM      7  C   UNL     1       3.667   6.587  17.750  0.00  0.00    +0.000 A 
ATOM      8  C   UNL     1       2.966   7.681  18.269  0.00  0.00    +0.000 A 
ATOM      9  C   UNL     1       2.174   7.529  19.411  0.00  0.00    +0.000 A 
ATOM     10  C   UNL     1       2.061   6.267  20.001  0.00  0.00    +0.000 A 
ATOM     11  C   UNL     1       2.746   5.169  19.458  0.00  0.00    +0.000 A 
ATOM     12  C   UNL     1       3.567   5.312  18.330  0.00  0.00    +0.000 A 
ATOM     13  H   UNL     1       4.567   7.714  16.221  0.00  0.00    +0.000 HD
ENDROOT
BRANCH   9  14
ATOM     14  C   UNL     1       1.445   8.715  19.940  0.00  0.00    +0.000 C 
ATOM     15  O   UNL     1       1.378   8.894  21.153  0.00  0.00    +0.000 OA
ATOM     16  N   UNL     1       0.854   9.539  19.008  0.00  0.00    +0.000 N 
ATOM     17  H   UNL     1       0.838   9.274  18.034  0.00  0.00    +0.000 HD
BRANCH  16  18
ATOM     18  C   UNL     1       0.125  10.731  19.381  0.00  0.00    +0.000 C 
BRANCH  18  19
ATOM     19  C   UNL     1      -1.192  10.798  18.650  0.00  0.00    +0.000 A 
ATOM     20  C   UNL     1      -2.214  11.667  19.072  0.00  0.00    +0.000 A 
ATOM     21  C   UNL     1      -3.436  11.697  18.394  0.00  0.00    +0.000 A 
ATOM     22  C   UNL     1      -3.639  10.863  17.303  0.00  0.00    +0.000 A 
ATOM     23  F   UNL     1      -4.814  10.890  16.660  0.00  0.00    +0.000 F 
ATOM     24  C   UNL     1      -2.643   9.996  16.870  0.00  0.00    +0.000 A 
ATOM     25  C   UNL     1      -1.422   9.961  17.545  0.00  0.00    +0.000 A 
ENDBRANCH  18  19
ENDBRANCH  16  18
ENDBRANCH   9  14
BRANCH   1  27
ATOM     26  C   UNL     1       2.864   2.207  17.662  0.00  0.00    +0.000 C 
ATOM     27  C   UNL     1       4.117   2.851  18.240  0.00  0.00    +0.000 C 
ENDBRANCH   1  27
TORSDOF 4
ENDMDL
MODEL 6
REMARK VINA RESULT:      -8.1      0.869      1.287
REMARK  Name = 
REMARK  5 active torsions:
REMARK  status: ('A' for Active; 'I' for Inactive)
REMARK    1  A    between atoms: C_1  and  C_2
REMARK    2  A    between atoms: C_2  and  N_3
REMARK    3  A    between atoms: C_11  and  C_12
REMARK    4  A    between atoms: N_14  and  C_15
REMARK    5  A    between atoms: C_15  and  C_16
REMARK                            x       y       z     vdW  Elec       q    Type
REMARK                         _______ _______ _______ _____ _____    ______ ____
ROOT
ATOM      1  N   UNL     1       0.154  10.530  19.869  0.00  0.00    +0.000 N 
ATOM      2  C   UNL     1      -0.236  10.821  21.186  0.00  0.00    +0.000 A 
ATOM      3  O   UNL     1      -0.940  11.781  21.491  0.00  0.00    +0.000 OA
ATOM      4  C   UNL     1       0.246   9.875  22.298  0.00  0.00    +0.000 A 
ATOM      5  O   UNL     1      -0.013  10.088  23.475  0.00  0.00    +0.000 OA
ATOM      6  N   UNL     1       0.970   8.776  21.916  0.00  0.00    +0.000 N 
ATOM      7  C   UNL     1       1.339   8.516  20.597  0.00  0.00    +0.000 A 
ATOM      8  C   UNL     1       2.110   7.375  20.341  0.00  0.00    +0.000 A 
ATOM      9  C   UNL     1       2.543   7.100  19.041  0.00  0.00    +0.000 A 
ATOM     10  C   UNL     1       2.164   7.952  18.000  0.00  0.00    +0.000 A 
ATOM     11  C   UNL     1       1.369   9.077  18.261  0.00  0.00    +0.000 A 
ATOM     12  C   UNL     1       0.950   9.383  19.564  0.00  0.00    +0.000 A 
ATOM     13  H   UNL     1       1.254   8.161  22.668  0.00  0.00    +0.000 HD
ENDROOT
BRANCH   9  14
ATOM     14  C   UNL     1       3.366   5.882  18.804  0.00  0.00    +0.000 C 
ATOM     15  O   UNL     1       4.162   5.513  19.663  0.00  0.00    +0.000 OA
ATOM     16  N   UNL     1       3.195   5.250  17.593  0.00  0.00    +0.000 N 
ATOM     17  H   UNL     1       2.618   5.670  16.879  0.00  0.00    +0.000 HD
BRANCH  16  18
ATOM     18  C   UNL     1       3.921   4.051  17.236  0.00  0.00    +0.000 C 
BRANCH  18  19
ATOM     19  C   UNL     1       5.027   4.371  16.261  0.00  0.00    +0.000 A 
ATOM     20  C   UNL     1       4.885   4.104  14.888  0.00  0.00    +0.000 A 
ATOM     21  C   UNL     1       5.930   4.386  14.004  0.00  0.00    +0.000 A 
ATOM     22  C   UNL     1       7.114   4.928  14.489  0.00  0.00    +0.000 A 
ATOM     23  F   UNL     1       8.116   5.191  13.640  0.00  0.00    +0.000 F 
ATOM     24  C   UNL     1       7.275   5.198  15.842  0.00  0.00    +0.000 A 
ATOM     25  C   UNL     1       6.234   4.916  16.728  0.00  0.00    +0.000 A 
ENDBRANCH  18  19
ENDBRANCH  16  18
ENDBRANCH   9  14
BRANCH   1  27
ATOM     26  C   UNL     1      -1.700  10.839  18.265  0.00  0.00    +0.000 C 
ATOM     27  C   UNL     1      -0.391  11.386  18.818  0.00  0.00    +0.000 C 
ENDBRANCH   1  27
TORSDOF 4
ENDMDL
MODEL 7
REMARK VINA RESULT:      -8.0      0.768      1.221
REMARK  Name = 
REMARK  5 active torsions:
REMARK  status: ('A' for Active; 'I' for Inactive)
REMARK    1  A    between atoms: C_1  and  C_2
REMARK    2  A    between atoms: C_2  and  N_3
REMARK    3  A    between atoms: C_11  and  C_12
REMARK    4  A    between atoms: N_14  and  C_15
REMARK    5  A    between atoms: C_15  and  C_16
REMARK                            x       y       z     vdW  Elec       q    Type
REMARK                         _______ _______ _______ _____ _____    ______ ____
ROOT
ATOM      1  N   UNL     1       0.165  11.244  19.885  0.00  0.00    +0.000 N 
ATOM      2  C   UNL     1      -0.296  11.501  21.186  0.00  0.00    +0.000 A 
ATOM      3  O   UNL     1      -0.889  12.528  21.508  0.00  0.00    +0.000 OA
ATOM      4  C   UNL     1      -0.046  10.425  22.256  0.00  0.00    +0.000 A 
ATOM      5  O   UNL     1      -0.376  10.595  23.422  0.00  0.00    +0.000 OA
ATOM      6  N   UNL     1       0.554   9.263  21.848  0.00  0.00    +0.000 N 
ATOM      7  C   UNL     1       0.999   9.040  20.546  0.00  0.00    +0.000 A 
ATOM      8  C   UNL     1       1.628   7.822  20.264  0.00  0.00    +0.000 A 
ATOM      9  C   UNL     1       2.133   7.574  18.984  0.00  0.00    +0.000 A 
ATOM     10  C   UNL     1       1.966   8.537  17.985  0.00  0.00    +0.000 A 
ATOM     11  C   UNL     1       1.309   9.743  18.269  0.00  0.00    +0.000 A 
ATOM     12  C   UNL     1       0.823  10.020  19.556  0.00  0.00    +0.000 A 
ATOM     13  H   UNL     1       0.686   8.566  22.570  0.00  0.00    +0.000 HD
ENDROOT
BRANCH   9  14
ATOM     14  C   UNL     1       2.802   6.270  18.719  0.00  0.00    +0.000 C 
ATOM     15  O   UNL     1       2.299   5.482  17.924  0.00  0.00    +0.000 OA
ATOM     16  N   UNL     1       3.955   6.017  19.427  0.00  0.00    +0.000 N 
ATOM     17  H   UNL     1       4.252   6.648  20.157  0.00  0.00    +0.000 HD
BRANCH  16  18
ATOM     18  C   UNL     1       4.713   4.796  19.261  0.00  0.00    +0.000 C 
BRANCH  18  19
ATOM     19  C   UNL     1       5.456   4.806  17.949  0.00  0.00    +0.000 A 
ATOM     20  C   UNL     1       5.156   3.879  16.936  0.00  0.00    +0.000 A 
ATOM     21  C   UNL     1       5.873   3.891  15.736  0.00  0.00    +0.000 A 
ATOM     22  C   UNL     1       6.888   4.821  15.549  0.00  0.00    +0.000 A 
ATOM     23  F   UNL     1       7.577   4.825  14.400  0.00  0.00    +0.000 F 
ATOM     24  C   UNL     1       7.201   5.745  16.539  0.00  0.00    +0.000 A 
ATOM     25  C   UNL     1       6.489   5.735  17.738  0.00  0.00    +0.000 A 
ENDBRANCH  18  19
ENDBRANCH  16  18
ENDBRANCH   9  14
BRANCH   1  27
ATOM     26  C   UNL     1      -1.505  11.943  18.204  0.00  0.00    +0.000 C 
ATOM     27  C   UNL     1      -0.165  12.236  18.864  0.00  0.00    +0.000 C 
ENDBRANCH   1  27
TORSDOF 4
ENDMDL
MODEL 8
REMARK VINA RESULT:      -7.9      4.110      8.683
REMARK  Name = 
REMARK  5 active torsions:
REMARK  status: ('A' for Active; 'I' for Inactive)
REMARK    1  A    between atoms: C_1  and  C_2
REMARK    2  A    between atoms: C_2  and  N_3
REMARK    3  A    between atoms: C_11  and  C_12
REMARK    4  A    between atoms: N_14  and  C_15
REMARK    5  A    between atoms: C_15  and  C_16
REMARK                            x       y       z     vdW  Elec       q    Type
REMARK                         _______ _______ _______ _____ _____    ______ ____
ROOT
ATOM      1  N   UNL     1       3.866   4.403  19.061  0.00  0.00    +0.000 N 
ATOM      2  C   UNL     1       3.478   3.602  20.146  0.00  0.00    +0.000 A 
ATOM      3  O   UNL     1       3.924   2.475  20.354  0.00  0.00    +0.000 OA
ATOM      4  C   UNL     1       2.444   4.179  21.126  0.00  0.00    +0.000 A 
ATOM      5  O   UNL     1       2.021   3.524  22.069  0.00  0.00    +0.000 OA
ATOM      6  N   UNL     1       2.020   5.464  20.905  0.00  0.00    +0.000 N 
ATOM      7  C   UNL     1       2.427   6.234  19.816  0.00  0.00    +0.000 A 
ATOM      8  C   UNL     1       1.894   7.521  19.683  0.00  0.00    +0.000 A 
ATOM      9  C   UNL     1       2.237   8.311  18.582  0.00  0.00    +0.000 A 
ATOM     10  C   UNL     1       3.144   7.816  17.642  0.00  0.00    +0.000 A 
ATOM     11  C   UNL     1       3.694   6.535  17.797  0.00  0.00    +0.000 A 
ATOM     12  C   UNL     1       3.339   5.719  18.881  0.00  0.00    +0.000 A 
ATOM     13  H   UNL     1       1.355   5.824  21.578  0.00  0.00    +0.000 HD
ENDROOT
BRANCH   9  14
ATOM     14  C   UNL     1       1.648   9.674  18.469  0.00  0.00    +0.000 C 
ATOM     15  O   UNL     1       2.067  10.446  17.611  0.00  0.00    +0.000 OA
ATOM     16  N   UNL     1       0.667   9.997  19.380  0.00  0.00    +0.000 N 
ATOM     17  H   UNL     1       0.452   9.368  20.139  0.00  0.00    +0.000 HD
BRANCH  16  18
ATOM     18  C   UNL     1       0.002  11.281  19.378  0.00  0.00    +0.000 C 
BRANCH  18  19
ATOM     19  C   UNL     1      -0.777  11.478  20.654  0.00  0.00    +0.000 A 
ATOM     20  C   UNL     1      -0.468  10.747  21.814  0.00  0.00    +0.000 A 
ATOM     21  C   UNL     1      -1.217  10.927  22.981  0.00  0.00    +0.000 A 
ATOM     22  C   UNL     1      -2.273  11.830  22.989  0.00  0.00    +0.000 A 
ATOM     23  F   UNL     1      -2.992  11.995  24.106  0.00  0.00    +0.000 F 
ATOM     24  C   UNL     1      -2.596  12.562  21.852  0.00  0.00    +0.000 A 
ATOM     25  C   UNL     1      -1.851  12.383  20.686  0.00  0.00    +0.000 A 
ENDBRANCH  18  19
ENDBRANCH  16  18
ENDBRANCH   9  14
BRANCH   1  27
ATOM     26  C   UNL     1       4.370   3.431  16.846  0.00  0.00    +0.000 C 
ATOM     27  C   UNL     1       4.918   3.874  18.196  0.00  0.00    +0.000 C 
ENDBRANCH   1  27
TORSDOF 4
ENDMDL
MODEL 9
REMARK VINA RESULT:      -7.8      1.185      1.282
REMARK  Name = 
REMARK  5 active torsions:
REMARK  status: ('A' for Active; 'I' for Inactive)
REMARK    1  A    between atoms: C_1  and  C_2
REMARK    2  A    between atoms: C_2  and  N_3
REMARK    3  A    between atoms: C_11  and  C_12
REMARK    4  A    between atoms: N_14  and  C_15
REMARK    5  A    between atoms: C_15  and  C_16
REMARK                            x       y       z     vdW  Elec       q    Type
REMARK                         _______ _______ _______ _____ _____    ______ ____
ROOT
ATOM      1  N   UNL     1       0.060  11.355  19.948  0.00  0.00    +0.000 N 
ATOM      2  C   UNL     1      -0.566  11.845  21.105  0.00  0.00    +0.000 A 
ATOM      3  O   UNL     1      -1.129  12.936  21.165  0.00  0.00    +0.000 OA
ATOM      4  C   UNL     1      -0.546  10.954  22.358  0.00  0.00    +0.000 A 
ATOM      5  O   UNL     1      -1.030  11.330  23.418  0.00  0.00    +0.000 OA
ATOM      6  N   UNL     1       0.027   9.715  22.237  0.00  0.00    +0.000 N 
ATOM      7  C   UNL     1       0.640   9.259  21.071  0.00  0.00    +0.000 A 
ATOM      8  C   UNL     1       1.221   7.986  21.086  0.00  0.00    +0.000 A 
ATOM      9  C   UNL     1       1.887   7.506  19.955  0.00  0.00    +0.000 A 
ATOM     10  C   UNL     1       1.931   8.295  18.802  0.00  0.00    +0.000 A 
ATOM     11  C   UNL     1       1.323   9.559  18.787  0.00  0.00    +0.000 A 
ATOM     12  C   UNL     1       0.676  10.066  19.923  0.00  0.00    +0.000 A 
ATOM     13  H   UNL     1       0.006   9.144  23.072  0.00  0.00    +0.000 HD
ENDROOT
BRANCH   9  14
ATOM     14  C   UNL     1       2.499   6.149  20.007  0.00  0.00    +0.000 C 
ATOM     15  O   UNL     1       1.984   5.279  20.704  0.00  0.00    +0.000 OA
ATOM     16  N   UNL     1       3.649   5.965  19.273  0.00  0.00    +0.000 N 
ATOM     17  H   UNL     1       4.093   6.749  18.819  0.00  0.00    +0.000 HD
BRANCH  16  18
ATOM     18  C   UNL     1       4.340   4.695  19.224  0.00  0.00    +0.000 C 
BRANCH  18  19
ATOM     19  C   UNL     1       5.173   4.592  17.971  0.00  0.00    +0.000 A 
ATOM     20  C   UNL     1       6.573   4.706  18.018  0.00  0.00    +0.000 A 
ATOM     21  C   UNL     1       7.326   4.630  16.842  0.00  0.00    +0.000 A 
ATOM     22  C   UNL     1       6.683   4.446  15.624  0.00  0.00    +0.000 A 
ATOM     23  F   UNL     1       7.407   4.380  14.499  0.00  0.00    +0.000 F 
ATOM     24  C   UNL     1       5.300   4.332  15.556  0.00  0.00    +0.000 A 
ATOM     25  C   UNL     1       4.546   4.409  16.727  0.00  0.00    +0.000 A 
ENDBRANCH  18  19
ENDBRANCH  16  18
ENDBRANCH   9  14
BRANCH   1  27
ATOM     26  C   UNL     1      -1.366  11.933  18.015  0.00  0.00    +0.000 C 
ATOM     27  C   UNL     1      -0.051  12.176  18.744  0.00  0.00    +0.000 C 
ENDBRANCH   1  27
TORSDOF 4
ENDMDL
