MODEL 1
REMARK VINA RESULT:      -9.1      0.000      0.000
REMARK  Name = 
REMARK  4 active torsions:
REMARK  status: ('A' for Active; 'I' for Inactive)
REMARK    1  A    between atoms: C_1  and  C_2
REMARK    2  A    between atoms: C_10  and  C_11
REMARK    3  A    between atoms: C_17  and  C_18
REMARK    4  A    between atoms: N_20  and  C_21
REMARK                            x       y       z     vdW  Elec       q    Type
REMARK                         _______ _______ _______ _____ _____    ______ ____
ROOT
ATOM      1  C   UNL     1       2.596   9.459  17.987  0.00  0.00    +0.000 C 
ATOM      2  C   UNL     1       2.951   7.998  17.924  0.00  0.00    +0.000 A 
ATOM      3  N   UNL     1       3.852   7.705  16.952  0.00  0.00    +0.000 NA
ATOM      4  C   UNL     1       4.272   6.446  16.798  0.00  0.00    +0.000 A 
ATOM      5  C   UNL     1       5.250   6.239  15.837  0.00  0.00    +0.000 A 
ATOM      6  C   UNL     1       5.768   4.975  15.566  0.00  0.00    +0.000 A 
ATOM      7  C   UNL     1       5.255   3.882  16.238  0.00  0.00    +0.000 A 
ATOM      8  C   UNL     1       4.255   4.075  17.193  0.00  0.00    +0.000 A 
ATOM      9  C   UNL     1       3.775   5.374  17.564  0.00  0.00    +0.000 A 
ATOM     10  C   UNL     1       2.848   5.670  18.643  0.00  0.00    +0.000 A 
ATOM     11  C   UNL     1       2.437   7.033  18.789  0.00  0.00    +0.000 A 
ENDROOT
BRANCH  10  12
ATOM     12  C   UNL     1       2.374   4.577  19.561  0.00  0.00    +0.000 A 
ATOM     13  C   UNL     1       1.227   3.805  19.262  0.00  0.00    +0.000 A 
ATOM     14  C   UNL     1       0.689   2.883  20.165  0.00  0.00    +0.000 A 
ATOM     15  C   UNL     1       1.350   2.614  21.355  0.00  0.00    +0.000 A 
ATOM     16  C   UNL     1       2.533   3.285  21.641  0.00  0.00    +0.000 A 
ATOM     17  C   UNL     1       3.018   4.273  20.773  0.00  0.00    +0.000 A 
ENDBRANCH  10  12
BRANCH  11  18
ATOM     18  C   UNL     1       1.630   7.509  19.957  0.00  0.00    +0.000 C 
ATOM     19  O   UNL     1       1.127   6.659  20.682  0.00  0.00    +0.000 OA
ATOM     20  N   UNL     1       1.461   8.883  20.078  0.00  0.00    +0.000 N 
ATOM     21  H   UNL     1       1.710   9.473  19.290  0.00  0.00    +0.000 HD
BRANCH  20  22
ATOM     22  C   UNL     1       0.672   9.501  21.088  0.00  0.00    +0.000 A 
ATOM     23  C   UNL     1       0.738   9.108  22.429  0.00  0.00    +0.000 A 
ATOM     24  C   UNL     1      -0.094   9.693  23.394  0.00  0.00    +0.000 A 
ATOM     25  C   UNL     1      -1.011  10.676  23.025  0.00  0.00    +0.000 A 
ATOM     26  C   UNL     1      -1.074  11.097  21.700  0.00  0.00    +0.000 A 
ATOM     27  C   UNL     1      -0.228  10.524  20.745  0.00  0.00    +0.000 A 
ATOM     28 CL   UNL     1      -0.367  11.068  19.102  0.00  0.00    +0.000 Cl
ENDBRANCH  20  22
ENDBRANCH  11  18
TORSDOF 3
ENDMDL
MODEL 2
REMARK VINA RESULT:      -8.8      6.711     10.737
REMARK  Name = 
REMARK  4 active torsions:
REMARK  status: ('A' for Active; 'I' for Inactive)
REMARK    1  A    between atoms: C_1  and  C_2
REMARK    2  A    between atoms: C_10  and  C_11
REMARK    3  A    between atoms: C_17  and  C_18
REMARK    4  A    between atoms: N_20  and  C_21
REMARK                            x       y       z     vdW  Elec       q    Type
REMARK                         _______ _______ _______ _____ _____    ______ ____
ROOT
ATOM      1  C   UNL     1      -6.569  14.643  20.186  0.00  0.00    +0.000 C 
ATOM      2  C   UNL     1      -5.468  14.639  21.211  0.00  0.00    +0.000 A 
ATOM      3  N   UNL     1      -5.629  15.579  22.176  0.00  0.00    +0.000 NA
ATOM      4  C   UNL     1      -4.732  15.672  23.163  0.00  0.00    +0.000 A 
ATOM      5  C   UNL     1      -5.005  16.604  24.153  0.00  0.00    +0.000 A 
ATOM      6  C   UNL     1      -4.150  16.812  25.233  0.00  0.00    +0.000 A 
ATOM      7  C   UNL     1      -2.963  16.107  25.293  0.00  0.00    +0.000 A 
ATOM      8  C   UNL     1      -2.667  15.181  24.291  0.00  0.00    +0.000 A 
ATOM      9  C   UNL     1      -3.574  14.874  23.224  0.00  0.00    +0.000 A 
ATOM     10  C   UNL     1      -3.406  13.827  22.230  0.00  0.00    +0.000 A 
ATOM     11  C   UNL     1      -4.397  13.745  21.200  0.00  0.00    +0.000 A 
ENDROOT
BRANCH  10  12
ATOM     12  C   UNL     1      -2.245  12.876  22.315  0.00  0.00    +0.000 A 
ATOM     13  C   UNL     1      -1.067  13.076  21.558  0.00  0.00    +0.000 A 
ATOM     14  C   UNL     1      -0.036  12.132  21.514  0.00  0.00    +0.000 A 
ATOM     15  C   UNL     1      -0.095  11.005  22.323  0.00  0.00    +0.000 A 
ATOM     16  C   UNL     1      -1.194  10.821  23.152  0.00  0.00    +0.000 A 
ATOM     17  C   UNL     1      -2.265  11.725  23.123  0.00  0.00    +0.000 A 
ENDBRANCH  10  12
BRANCH  11  18
ATOM     18  C   UNL     1      -4.447  12.616  20.220  0.00  0.00    +0.000 C 
ATOM     19  O   UNL     1      -5.171  11.664  20.488  0.00  0.00    +0.000 OA
ATOM     20  N   UNL     1      -3.610  12.713  19.115  0.00  0.00    +0.000 N 
ATOM     21  H   UNL     1      -2.880  13.418  19.121  0.00  0.00    +0.000 HD
BRANCH  20  22
ATOM     22  C   UNL     1      -3.484  11.701  18.122  0.00  0.00    +0.000 A 
ATOM     23  C   UNL     1      -2.431  10.780  18.127  0.00  0.00    +0.000 A 
ATOM     24  C   UNL     1      -2.299   9.831  17.103  0.00  0.00    +0.000 A 
ATOM     25  C   UNL     1      -3.217   9.798  16.055  0.00  0.00    +0.000 A 
ATOM     26  C   UNL     1      -4.286  10.690  16.047  0.00  0.00    +0.000 A 
ATOM     27  C   UNL     1      -4.424  11.622  17.081  0.00  0.00    +0.000 A 
ATOM     28 CL   UNL     1      -5.760  12.729  17.007  0.00  0.00    +0.000 Cl
ENDBRANCH  20  22
ENDBRANCH  11  18
TORSDOF 3
ENDMDL
MODEL 3
REMARK VINA RESULT:      -8.8      6.851      8.877
REMARK  Name = 
REMARK  4 active torsions:
REMARK  status: ('A' for Active; 'I' for Inactive)
REMARK    1  A    between atoms: C_1  and  C_2
REMARK    2  A    between atoms: C_10  and  C_11
REMARK    3  A    between atoms: C_17  and  C_18
REMARK    4  A    between atoms: N_20  and  C_21
REMARK                            x       y       z     vdW  Elec       q    Type
REMARK                         _______ _______ _______ _____ _____    ______ ____
ROOT
ATOM      1  C   UNL     1      -6.370  12.589  20.936  0.00  0.00    +0.000 C 
ATOM      2  C   UNL     1      -5.160  12.286  20.096  0.00  0.00    +0.000 A 
ATOM      3  N   UNL     1      -5.466  11.905  18.830  0.00  0.00    +0.000 NA
ATOM      4  C   UNL     1      -4.483  11.625  17.969  0.00  0.00    +0.000 A 
ATOM      5  C   UNL     1      -4.873  11.319  16.673  0.00  0.00    +0.000 A 
ATOM      6  C   UNL     1      -3.952  10.998  15.678  0.00  0.00    +0.000 A 
ATOM      7  C   UNL     1      -2.611  10.928  16.002  0.00  0.00    +0.000 A 
ATOM      8  C   UNL     1      -2.209  11.215  17.309  0.00  0.00    +0.000 A 
ATOM      9  C   UNL     1      -3.121  11.646  18.326  0.00  0.00    +0.000 A 
ATOM     10  C   UNL     1      -2.767  12.099  19.661  0.00  0.00    +0.000 A 
ATOM     11  C   UNL     1      -3.846  12.408  20.549  0.00  0.00    +0.000 A 
ENDROOT
BRANCH  10  12
ATOM     12  C   UNL     1      -1.324  12.245  20.057  0.00  0.00    +0.000 A 
ATOM     13  C   UNL     1      -0.567  13.381  19.688  0.00  0.00    +0.000 A 
ATOM     14  C   UNL     1       0.809  13.473  19.924  0.00  0.00    +0.000 A 
ATOM     15  C   UNL     1       1.455  12.478  20.646  0.00  0.00    +0.000 A 
ATOM     16  C   UNL     1       0.723  11.391  21.107  0.00  0.00    +0.000 A 
ATOM     17  C   UNL     1      -0.636  11.262  20.790  0.00  0.00    +0.000 A 
ENDBRANCH  10  12
BRANCH  11  18
ATOM     18  C   UNL     1      -3.631  13.049  21.884  0.00  0.00    +0.000 C 
ATOM     19  O   UNL     1      -3.650  12.324  22.871  0.00  0.00    +0.000 OA
ATOM     20  N   UNL     1      -3.496  14.433  21.896  0.00  0.00    +0.000 N 
ATOM     21  H   UNL     1      -3.743  14.951  21.058  0.00  0.00    +0.000 HD
BRANCH  20  22
ATOM     22  C   UNL     1      -3.351  15.207  23.081  0.00  0.00    +0.000 A 
ATOM     23  C   UNL     1      -4.424  15.894  23.657  0.00  0.00    +0.000 A 
ATOM     24  C   UNL     1      -4.240  16.697  24.792  0.00  0.00    +0.000 A 
ATOM     25  C   UNL     1      -2.975  16.828  25.359  0.00  0.00    +0.000 A 
ATOM     26  C   UNL     1      -1.899  16.132  24.815  0.00  0.00    +0.000 A 
ATOM     27  C   UNL     1      -2.093  15.317  23.695  0.00  0.00    +0.000 A 
ATOM     28 CL   UNL     1      -0.712  14.492  23.040  0.00  0.00    +0.000 Cl
ENDBRANCH  20  22
ENDBRANCH  11  18
TORSDOF 3
ENDMDL
MODEL 4
REMARK VINA RESULT:      -8.6      6.773      9.209
REMARK  Name = 
REMARK  4 active torsions:
REMARK  status: ('A' for Active; 'I' for Inactive)
REMARK    1  A    between atoms: C_1  and  C_2
REMARK    2  A    between atoms: C_10  and  C_11
REMARK    3  A    between atoms: C_17  and  C_18
REMARK    4  A    between atoms: N_20  and  C_21
REMARK                            x       y       z     vdW  Elec       q    Type
REMARK                         _______ _______ _______ _____ _____    ______ ____
ROOT
ATOM      1  C   UNL     1      -0.161  11.922  20.820  0.00  0.00    +0.000 C 
ATOM      2  C   UNL     1      -1.408  11.849  19.982  0.00  0.00    +0.000 A 
ATOM      3  N   UNL     1      -1.230  11.190  18.809  0.00  0.00    +0.000 NA
ATOM      4  C   UNL     1      -2.264  11.033  17.976  0.00  0.00    +0.000 A 
ATOM      5  C   UNL     1      -2.023  10.281  16.837  0.00  0.00    +0.000 A 
ATOM      6  C   UNL     1      -3.009  10.050  15.879  0.00  0.00    +0.000 A 
ATOM      7  C   UNL     1      -4.251  10.631  16.041  0.00  0.00    +0.000 A 
ATOM      8  C   UNL     1      -4.499  11.408  17.175  0.00  0.00    +0.000 A 
ATOM      9  C   UNL     1      -3.538  11.579  18.225  0.00  0.00    +0.000 A 
ATOM     10  C   UNL     1      -3.765  12.247  19.495  0.00  0.00    +0.000 A 
ATOM     11  C   UNL     1      -2.639  12.377  20.370  0.00  0.00    +0.000 A 
ENDROOT
BRANCH  10  12
ATOM     12  C   UNL     1      -5.135  12.750  19.857  0.00  0.00    +0.000 A 
ATOM     13  C   UNL     1      -6.040  11.961  20.604  0.00  0.00    +0.000 A 
ATOM     14  C   UNL     1      -7.364  12.351  20.829  0.00  0.00    +0.000 A 
ATOM     15  C   UNL     1      -7.796  13.604  20.416  0.00  0.00    +0.000 A 
ATOM     16  C   UNL     1      -6.906  14.446  19.761  0.00  0.00    +0.000 A 
ATOM     17  C   UNL     1      -5.608  14.013  19.459  0.00  0.00    +0.000 A 
ENDBRANCH  10  12
BRANCH  11  18
ATOM     18  C   UNL     1      -2.765  12.881  21.774  0.00  0.00    +0.000 C 
ATOM     19  O   UNL     1      -3.280  12.136  22.599  0.00  0.00    +0.000 OA
ATOM     20  N   UNL     1      -2.348  14.186  22.007  0.00  0.00    +0.000 N 
ATOM     21  H   UNL     1      -2.172  14.788  21.209  0.00  0.00    +0.000 HD
BRANCH  20  22
ATOM     22  C   UNL     1      -2.458  14.843  23.264  0.00  0.00    +0.000 A 
ATOM     23  C   UNL     1      -1.460  14.754  24.240  0.00  0.00    +0.000 A 
ATOM     24  C   UNL     1      -1.620  15.363  25.493  0.00  0.00    +0.000 A 
ATOM     25  C   UNL     1      -2.789  16.062  25.787  0.00  0.00    +0.000 A 
ATOM     26  C   UNL     1      -3.782  16.183  24.820  0.00  0.00    +0.000 A 
ATOM     27  C   UNL     1      -3.608  15.591  23.565  0.00  0.00    +0.000 A 
ATOM     28 CL   UNL     1      -4.891  15.749  22.405  0.00  0.00    +0.000 Cl
ENDBRANCH  20  22
ENDBRANCH  11  18
TORSDOF 3
ENDMDL
MODEL 5
REMARK VINA RESULT:      -8.6      7.138      9.825
REMARK  Name = 
REMARK  4 active torsions:
REMARK  status: ('A' for Active; 'I' for Inactive)
REMARK    1  A    between atoms: C_1  and  C_2
REMARK    2  A    between atoms: C_10  and  C_11
REMARK    3  A    between atoms: C_17  and  C_18
REMARK    4  A    between atoms: N_20  and  C_21
REMARK                            x       y       z     vdW  Elec       q    Type
REMARK                         _______ _______ _______ _____ _____    ______ ____
ROOT
ATOM      1  C   UNL     1      -2.345  10.955  16.966  0.00  0.00    +0.000 C 
ATOM      2  C   UNL     1      -3.177  11.458  18.113  0.00  0.00    +0.000 A 
ATOM      3  N   UNL     1      -4.467  11.038  18.067  0.00  0.00    +0.000 NA
ATOM      4  C   UNL     1      -5.313  11.395  19.038  0.00  0.00    +0.000 A 
ATOM      5  C   UNL     1      -6.591  10.863  18.962  0.00  0.00    +0.000 A 
ATOM      6  C   UNL     1      -7.576  11.161  19.902  0.00  0.00    +0.000 A 
ATOM      7  C   UNL     1      -7.288  12.058  20.912  0.00  0.00    +0.000 A 
ATOM      8  C   UNL     1      -6.010  12.616  20.987  0.00  0.00    +0.000 A 
ATOM      9  C   UNL     1      -4.950  12.251  20.095  0.00  0.00    +0.000 A 
ATOM     10  C   UNL     1      -3.563  12.674  20.192  0.00  0.00    +0.000 A 
ATOM     11  C   UNL     1      -2.682  12.255  19.145  0.00  0.00    +0.000 A 
ENDROOT
BRANCH  10  12
ATOM     12  C   UNL     1      -3.098  13.497  21.362  0.00  0.00    +0.000 A 
ATOM     13  C   UNL     1      -3.066  14.909  21.307  0.00  0.00    +0.000 A 
ATOM     14  C   UNL     1      -2.507  15.686  22.326  0.00  0.00    +0.000 A 
ATOM     15  C   UNL     1      -2.067  15.080  23.495  0.00  0.00    +0.000 A 
ATOM     16  C   UNL     1      -2.170  13.701  23.625  0.00  0.00    +0.000 A 
ATOM     17  C   UNL     1      -2.648  12.920  22.563  0.00  0.00    +0.000 A 
ENDBRANCH  10  12
BRANCH  11  18
ATOM     18  C   UNL     1      -1.201  12.467  19.207  0.00  0.00    +0.000 C 
ATOM     19  O   UNL     1      -0.539  11.655  19.842  0.00  0.00    +0.000 OA
ATOM     20  N   UNL     1      -0.710  13.612  18.592  0.00  0.00    +0.000 N 
ATOM     21  H   UNL     1      -1.368  14.333  18.315  0.00  0.00    +0.000 HD
BRANCH  20  22
ATOM     22  C   UNL     1       0.659  14.000  18.612  0.00  0.00    +0.000 A 
ATOM     23  C   UNL     1       1.684  13.134  18.216  0.00  0.00    +0.000 A 
ATOM     24  C   UNL     1       3.029  13.521  18.301  0.00  0.00    +0.000 A 
ATOM     25  C   UNL     1       3.365  14.780  18.793  0.00  0.00    +0.000 A 
ATOM     26  C   UNL     1       2.359  15.665  19.169  0.00  0.00    +0.000 A 
ATOM     27  C   UNL     1       1.018  15.281  19.063  0.00  0.00    +0.000 A 
ATOM     28 CL   UNL     1      -0.196  16.413  19.571  0.00  0.00    +0.000 Cl
ENDBRANCH  20  22
ENDBRANCH  11  18
TORSDOF 3
ENDMDL
MODEL 6
REMARK VINA RESULT:      -8.6      4.263      9.623
REMARK  Name = 
REMARK  4 active torsions:
REMARK  status: ('A' for Active; 'I' for Inactive)
REMARK    1  A    between atoms: C_1  and  C_2
REMARK    2  A    between atoms: C_10  and  C_11
REMARK    3  A    between atoms: C_17  and  C_18
REMARK    4  A    between atoms: N_20  and  C_21
REMARK                            x       y       z     vdW  Elec       q    Type
REMARK                         _______ _______ _______ _____ _____    ______ ____
ROOT
ATOM      1  C   UNL     1      -3.541  10.798  16.563  0.00  0.00    +0.000 C 
ATOM      2  C   UNL     1      -3.953  11.535  17.808  0.00  0.00    +0.000 A 
ATOM      3  N   UNL     1      -5.293  11.726  17.901  0.00  0.00    +0.000 NA
ATOM      4  C   UNL     1      -5.799  12.350  18.970  0.00  0.00    +0.000 A 
ATOM      5  C   UNL     1      -7.181  12.438  19.031  0.00  0.00    +0.000 A 
ATOM      6  C   UNL     1      -7.839  13.072  20.083  0.00  0.00    +0.000 A 
ATOM      7  C   UNL     1      -7.091  13.681  21.071  0.00  0.00    +0.000 A 
ATOM      8  C   UNL     1      -5.697  13.617  21.010  0.00  0.00    +0.000 A 
ATOM      9  C   UNL     1      -4.997  12.886  19.995  0.00  0.00    +0.000 A 
ATOM     10  C   UNL     1      -3.564  12.651  19.942  0.00  0.00    +0.000 A 
ATOM     11  C   UNL     1      -3.061  11.961  18.792  0.00  0.00    +0.000 A 
ENDROOT
BRANCH  10  12
ATOM     12  C   UNL     1      -2.675  13.105  21.066  0.00  0.00    +0.000 A 
ATOM     13  C   UNL     1      -2.034  14.366  21.041  0.00  0.00    +0.000 A 
ATOM     14  C   UNL     1      -1.096  14.748  22.004  0.00  0.00    +0.000 A 
ATOM     15  C   UNL     1      -0.854  13.928  23.098  0.00  0.00    +0.000 A 
ATOM     16  C   UNL     1      -1.536  12.723  23.207  0.00  0.00    +0.000 A 
ATOM     17  C   UNL     1      -2.407  12.305  22.191  0.00  0.00    +0.000 A 
ENDBRANCH  10  12
BRANCH  11  18
ATOM     18  C   UNL     1      -1.642  11.498  18.688  0.00  0.00    +0.000 C 
ATOM     19  O   UNL     1      -0.837  12.253  18.156  0.00  0.00    +0.000 OA
ATOM     20  N   UNL     1      -1.371  10.214  19.145  0.00  0.00    +0.000 N 
ATOM     21  H   UNL     1      -2.151   9.592  19.334  0.00  0.00    +0.000 HD
BRANCH  20  22
ATOM     22  C   UNL     1      -0.093   9.594  19.061  0.00  0.00    +0.000 A 
ATOM     23  C   UNL     1       0.597   9.472  17.850  0.00  0.00    +0.000 A 
ATOM     24  C   UNL     1       1.828   8.804  17.786  0.00  0.00    +0.000 A 
ATOM     25  C   UNL     1       2.380   8.241  18.935  0.00  0.00    +0.000 A 
ATOM     26  C   UNL     1       1.720   8.373  20.154  0.00  0.00    +0.000 A 
ATOM     27  C   UNL     1       0.502   9.058  20.215  0.00  0.00    +0.000 A 
ATOM     28 CL   UNL     1      -0.292   9.171  21.755  0.00  0.00    +0.000 Cl
ENDBRANCH  20  22
ENDBRANCH  11  18
TORSDOF 3
ENDMDL
MODEL 7
REMARK VINA RESULT:      -8.6      7.343      9.277
REMARK  Name = 
REMARK  4 active torsions:
REMARK  status: ('A' for Active; 'I' for Inactive)
REMARK    1  A    between atoms: C_1  and  C_2
REMARK    2  A    between atoms: C_10  and  C_11
REMARK    3  A    between atoms: C_17  and  C_18
REMARK    4  A    between atoms: N_20  and  C_21
REMARK                            x       y       z     vdW  Elec       q    Type
REMARK                         _______ _______ _______ _____ _____    ______ ____
ROOT
ATOM      1  C   UNL     1      -7.047  12.293  20.102  0.00  0.00    +0.000 C 
ATOM      2  C   UNL     1      -5.668  12.106  19.530  0.00  0.00    +0.000 A 
ATOM      3  N   UNL     1      -5.674  11.634  18.258  0.00  0.00    +0.000 NA
ATOM      4  C   UNL     1      -4.515  11.441  17.620  0.00  0.00    +0.000 A 
ATOM      5  C   UNL     1      -4.604  11.033  16.298  0.00  0.00    +0.000 A 
ATOM      6  C   UNL     1      -3.475  10.785  15.520  0.00  0.00    +0.000 A 
ATOM      7  C   UNL     1      -2.226  10.895  16.098  0.00  0.00    +0.000 A 
ATOM      8  C   UNL     1      -2.124  11.286  17.435  0.00  0.00    +0.000 A 
ATOM      9  C   UNL     1      -3.262  11.645  18.229  0.00  0.00    +0.000 A 
ATOM     10  C   UNL     1      -3.231  12.196  19.573  0.00  0.00    +0.000 A 
ATOM     11  C   UNL     1      -4.492  12.408  20.216  0.00  0.00    +0.000 A 
ENDROOT
BRANCH  10  12
ATOM     12  C   UNL     1      -1.921  12.536  20.227  0.00  0.00    +0.000 A 
ATOM     13  C   UNL     1      -1.236  13.738  19.932  0.00  0.00    +0.000 A 
ATOM     14  C   UNL     1       0.046  14.008  20.419  0.00  0.00    +0.000 A 
ATOM     15  C   UNL     1       0.643  13.135  21.318  0.00  0.00    +0.000 A 
ATOM     16  C   UNL     1      -0.040  11.989  21.706  0.00  0.00    +0.000 A 
ATOM     17  C   UNL     1      -1.286  11.679  21.144  0.00  0.00    +0.000 A 
ENDBRANCH  10  12
BRANCH  11  18
ATOM     18  C   UNL     1      -4.618  13.129  21.522  0.00  0.00    +0.000 C 
ATOM     19  O   UNL     1      -4.766  12.450  22.531  0.00  0.00    +0.000 OA
ATOM     20  N   UNL     1      -4.626  14.517  21.468  0.00  0.00    +0.000 N 
ATOM     21  H   UNL     1      -4.747  14.967  20.566  0.00  0.00    +0.000 HD
BRANCH  20  22
ATOM     22  C   UNL     1      -4.803  15.355  22.605  0.00  0.00    +0.000 A 
ATOM     23  C   UNL     1      -6.020  15.986  22.883  0.00  0.00    +0.000 A 
ATOM     24  C   UNL     1      -6.150  16.853  23.977  0.00  0.00    +0.000 A 
ATOM     25  C   UNL     1      -5.057  17.106  24.803  0.00  0.00    +0.000 A 
ATOM     26  C   UNL     1      -3.844  16.469  24.557  0.00  0.00    +0.000 A 
ATOM     27  C   UNL     1      -3.726  15.590  23.476  0.00  0.00    +0.000 A 
ATOM     28 CL   UNL     1      -2.184  14.842  23.199  0.00  0.00    +0.000 Cl
ENDBRANCH  20  22
ENDBRANCH  11  18
TORSDOF 3
ENDMDL
MODEL 8
REMARK VINA RESULT:      -8.5      6.927      8.610
REMARK  Name = 
REMARK  4 active torsions:
REMARK  status: ('A' for Active; 'I' for Inactive)
REMARK    1  A    between atoms: C_1  and  C_2
REMARK    2  A    between atoms: C_10  and  C_11
REMARK    3  A    between atoms: C_17  and  C_18
REMARK    4  A    between atoms: N_20  and  C_21
REMARK                            x       y       z     vdW  Elec       q    Type
REMARK                         _______ _______ _______ _____ _____    ______ ____
ROOT
ATOM      1  C   UNL     1      -5.902  13.110  20.566  0.00  0.00    +0.000 C 
ATOM      2  C   UNL     1      -4.749  12.613  19.738  0.00  0.00    +0.000 A 
ATOM      3  N   UNL     1      -5.138  11.935  18.628  0.00  0.00    +0.000 NA
ATOM      4  C   UNL     1      -4.214  11.454  17.790  0.00  0.00    +0.000 A 
ATOM      5  C   UNL     1      -4.690  10.843  16.640  0.00  0.00    +0.000 A 
ATOM      6  C   UNL     1      -3.837  10.288  15.688  0.00  0.00    +0.000 A 
ATOM      7  C   UNL     1      -2.475  10.300  15.920  0.00  0.00    +0.000 A 
ATOM      8  C   UNL     1      -1.986  10.895  17.085  0.00  0.00    +0.000 A 
ATOM      9  C   UNL     1      -2.831  11.561  18.031  0.00  0.00    +0.000 A 
ATOM     10  C   UNL     1      -2.391  12.324  19.187  0.00  0.00    +0.000 A 
ATOM     11  C   UNL     1      -3.409  12.841  20.050  0.00  0.00    +0.000 A 
ENDROOT
BRANCH  10  12
ATOM     12  C   UNL     1      -0.926  12.563  19.428  0.00  0.00    +0.000 A 
ATOM     13  C   UNL     1      -0.261  13.689  18.892  0.00  0.00    +0.000 A 
ATOM     14  C   UNL     1       1.125  13.855  18.985  0.00  0.00    +0.000 A 
ATOM     15  C   UNL     1       1.881  12.957  19.726  0.00  0.00    +0.000 A 
ATOM     16  C   UNL     1       1.247  11.888  20.348  0.00  0.00    +0.000 A 
ATOM     17  C   UNL     1      -0.128  11.678  20.175  0.00  0.00    +0.000 A 
ENDBRANCH  10  12
BRANCH  11  18
ATOM     18  C   UNL     1      -3.111  13.787  21.170  0.00  0.00    +0.000 C 
ATOM     19  O   UNL     1      -3.041  14.980  20.901  0.00  0.00    +0.000 OA
ATOM     20  N   UNL     1      -2.867  13.221  22.416  0.00  0.00    +0.000 N 
ATOM     21  H   UNL     1      -2.708  12.220  22.470  0.00  0.00    +0.000 HD
BRANCH  20  22
ATOM     22  C   UNL     1      -2.505  13.968  23.571  0.00  0.00    +0.000 A 
ATOM     23  C   UNL     1      -3.401  14.195  24.622  0.00  0.00    +0.000 A 
ATOM     24  C   UNL     1      -3.036  14.985  25.722  0.00  0.00    +0.000 A 
ATOM     25  C   UNL     1      -1.771  15.564  25.779  0.00  0.00    +0.000 A 
ATOM     26  C   UNL     1      -0.857  15.328  24.756  0.00  0.00    +0.000 A 
ATOM     27  C   UNL     1      -1.219  14.524  23.671  0.00  0.00    +0.000 A 
ATOM     28 CL   UNL     1      -0.051  14.285  22.409  0.00  0.00    +0.000 Cl
ENDBRANCH  20  22
ENDBRANCH  11  18
TORSDOF 3
ENDMDL
MODEL 9
REMARK VINA RESULT:      -8.5      6.493      9.507
REMARK  Name = 
REMARK  4 active torsions:
REMARK  status: ('A' for Active; 'I' for Inactive)
REMARK    1  A    between atoms: C_1  and  C_2
REMARK    2  A    between atoms: C_10  and  C_11
REMARK    3  A    between atoms: C_17  and  C_18
REMARK    4  A    between atoms: N_20  and  C_21
REMARK                            x       y       z     vdW  Elec       q    Type
REMARK                         _______ _______ _______ _____ _____    ______ ____
ROOT
ATOM      1  C   UNL     1      -0.432  12.553  21.786  0.00  0.00    +0.000 C 
ATOM      2  C   UNL     1      -1.486  12.276  20.749  0.00  0.00    +0.000 A 
ATOM      3  N   UNL     1      -1.047  11.491  19.733  0.00  0.00    +0.000 NA
ATOM      4  C   UNL     1      -1.888  11.149  18.752  0.00  0.00    +0.000 A 
ATOM      5  C   UNL     1      -1.388  10.281  17.792  0.00  0.00    +0.000 A 
ATOM      6  C   UNL     1      -2.154   9.853  16.709  0.00  0.00    +0.000 A 
ATOM      7  C   UNL     1      -3.434  10.348  16.556  0.00  0.00    +0.000 A 
ATOM      8  C   UNL     1      -3.940  11.238  17.505  0.00  0.00    +0.000 A 
ATOM      9  C   UNL     1      -3.213  11.617  18.681  0.00  0.00    +0.000 A 
ATOM     10  C   UNL     1      -3.720  12.418  19.782  0.00  0.00    +0.000 A 
ATOM     11  C   UNL     1      -2.796  12.747  20.824  0.00  0.00    +0.000 A 
ENDROOT
BRANCH  10  12
ATOM     12  C   UNL     1      -5.160  12.851  19.809  0.00  0.00    +0.000 A 
ATOM     13  C   UNL     1      -6.186  11.981  20.245  0.00  0.00    +0.000 A 
ATOM     14  C   UNL     1      -7.541  12.312  20.146  0.00  0.00    +0.000 A 
ATOM     15  C   UNL     1      -7.914  13.579  19.715  0.00  0.00    +0.000 A 
ATOM     16  C   UNL     1      -6.929  14.495  19.368  0.00  0.00    +0.000 A 
ATOM     17  C   UNL     1      -5.577  14.125  19.384  0.00  0.00    +0.000 A 
ENDBRANCH  10  12
BRANCH  11  18
ATOM     18  C   UNL     1      -3.221  13.412  22.096  0.00  0.00    +0.000 C 
ATOM     19  O   UNL     1      -3.578  12.690  23.020  0.00  0.00    +0.000 OA
ATOM     20  N   UNL     1      -3.241  14.801  22.097  0.00  0.00    +0.000 N 
ATOM     21  H   UNL     1      -3.165  15.287  21.209  0.00  0.00    +0.000 HD
BRANCH  20  22
ATOM     22  C   UNL     1      -3.680  15.589  23.197  0.00  0.00    +0.000 A 
ATOM     23  C   UNL     1      -5.024  15.928  23.381  0.00  0.00    +0.000 A 
ATOM     24  C   UNL     1      -5.422  16.755  24.442  0.00  0.00    +0.000 A 
ATOM     25  C   UNL     1      -4.473  17.261  25.328  0.00  0.00    +0.000 A 
ATOM     26  C   UNL     1      -3.133  16.915  25.176  0.00  0.00    +0.000 A 
ATOM     27  C   UNL     1      -2.746  16.074  24.128  0.00  0.00    +0.000 A 
ATOM     28 CL   UNL     1      -1.058  15.696  23.968  0.00  0.00    +0.000 Cl
ENDBRANCH  20  22
ENDBRANCH  11  18
TORSDOF 3
ENDMDL
