MODEL 1
REMARK VINA RESULT:      -8.4      0.000      0.000
REMARK  Name = 
REMARK  2 active torsions:
REMARK  status: ('A' for Active; 'I' for Inactive)
REMARK    1  A    between atoms: C_2  and  C_3
REMARK    2  A    between atoms: C_3  and  C_4
REMARK                            x       y       z     vdW  Elec       q    Type
REMARK                         _______ _______ _______ _____ _____    ______ ____
ROOT
ATOM      1  O   UNL     1       3.820   3.765  16.488  0.00  0.00    +0.000 OA
ATOM      2  C   UNL     1       4.734   4.491  16.894  0.00  0.00    +0.000 C 
ATOM      3  N   UNL     1       5.802   4.888  16.094  0.00  0.00    +0.000 N 
ATOM      4  C   UNL     1       6.884   5.719  16.415  0.00  0.00    +0.000 A 
ATOM      5  O   UNL     1       7.106   6.274  17.482  0.00  0.00    +0.000 OA
ATOM      6  O   UNL     1       7.753   5.878  15.326  0.00  0.00    +0.000 OA
ATOM      7  C   UNL     1       7.155   5.112  14.348  0.00  0.00    +0.000 A 
ATOM      8  C   UNL     1       7.657   4.957  13.071  0.00  0.00    +0.000 A 
ATOM      9  C   UNL     1       6.944   4.138  12.197  0.00  0.00    +0.000 A 
ATOM     10  C   UNL     1       5.764   3.503  12.622  0.00  0.00    +0.000 A 
ATOM     11 CL   UNL     1       4.915   2.487  11.522  0.00  0.00    +0.000 Cl
ATOM     12  C   UNL     1       5.271   3.680  13.921  0.00  0.00    +0.000 A 
ATOM     13  C   UNL     1       5.993   4.501  14.771  0.00  0.00    +0.000 A 
ENDROOT
BRANCH   2  14
ATOM     14  C   UNL     1       4.727   4.945  18.348  0.00  0.00    +0.000 C 
BRANCH  14  15
ATOM     15  C   UNL     1       3.635   4.343  19.211  0.00  0.00    +0.000 A 
ATOM     16  C   UNL     1       2.394   4.965  19.419  0.00  0.00    +0.000 A 
ATOM     17  C   UNL     1       1.434   4.381  20.249  0.00  0.00    +0.000 A 
ATOM     18  C   UNL     1       1.715   3.181  20.887  0.00  0.00    +0.000 A 
ATOM     19  F   UNL     1       0.798   2.633  21.694  0.00  0.00    +0.000 F 
ATOM     20  C   UNL     1       2.936   2.547  20.705  0.00  0.00    +0.000 A 
ATOM     21  C   UNL     1       3.894   3.125  19.868  0.00  0.00    +0.000 A 
ENDBRANCH  14  15
ENDBRANCH   2  14
TORSDOF 2
ENDMDL
MODEL 2
REMARK VINA RESULT:      -8.3      0.179      1.064
REMARK  Name = 
REMARK  2 active torsions:
REMARK  status: ('A' for Active; 'I' for Inactive)
REMARK    1  A    between atoms: C_2  and  C_3
REMARK    2  A    between atoms: C_3  and  C_4
REMARK                            x       y       z     vdW  Elec       q    Type
REMARK                         _______ _______ _______ _____ _____    ______ ____
ROOT
ATOM      1  O   UNL     1       3.692   4.066  16.470  0.00  0.00    +0.000 OA
ATOM      2  C   UNL     1       4.637   4.745  16.888  0.00  0.00    +0.000 C 
ATOM      3  N   UNL     1       5.748   5.058  16.111  0.00  0.00    +0.000 N 
ATOM      4  C   UNL     1       6.870   5.829  16.446  0.00  0.00    +0.000 A 
ATOM      5  O   UNL     1       7.096   6.394  17.507  0.00  0.00    +0.000 OA
ATOM      6  O   UNL     1       7.777   5.909  15.379  0.00  0.00    +0.000 OA
ATOM      7  C   UNL     1       7.162   5.159  14.401  0.00  0.00    +0.000 A 
ATOM      8  C   UNL     1       7.688   4.944  13.143  0.00  0.00    +0.000 A 
ATOM      9  C   UNL     1       6.951   4.150  12.266  0.00  0.00    +0.000 A 
ATOM     10  C   UNL     1       5.723   3.598  12.670  0.00  0.00    +0.000 A 
ATOM     11 CL   UNL     1       4.844   2.609  11.567  0.00  0.00    +0.000 Cl
ATOM     12  C   UNL     1       5.206   3.835  13.950  0.00  0.00    +0.000 A 
ATOM     13  C   UNL     1       5.952   4.629  14.802  0.00  0.00    +0.000 A 
ENDROOT
BRANCH   2  14
ATOM     14  C   UNL     1       4.616   5.233  18.330  0.00  0.00    +0.000 C 
BRANCH  14  15
ATOM     15  C   UNL     1       3.640   4.519  19.244  0.00  0.00    +0.000 A 
ATOM     16  C   UNL     1       3.856   3.218  19.727  0.00  0.00    +0.000 A 
ATOM     17  C   UNL     1       2.909   2.594  20.543  0.00  0.00    +0.000 A 
ATOM     18  C   UNL     1       1.735   3.259  20.867  0.00  0.00    +0.000 A 
ATOM     19  F   UNL     1       0.824   2.650  21.636  0.00  0.00    +0.000 F 
ATOM     20  C   UNL     1       1.492   4.542  20.398  0.00  0.00    +0.000 A 
ATOM     21  C   UNL     1       2.442   5.172  19.590  0.00  0.00    +0.000 A 
ENDBRANCH  14  15
ENDBRANCH   2  14
TORSDOF 2
ENDMDL
MODEL 3
REMARK VINA RESULT:      -8.1      2.027      2.631
REMARK  Name = 
REMARK  2 active torsions:
REMARK  status: ('A' for Active; 'I' for Inactive)
REMARK    1  A    between atoms: C_2  and  C_3
REMARK    2  A    between atoms: C_3  and  C_4
REMARK                            x       y       z     vdW  Elec       q    Type
REMARK                         _______ _______ _______ _____ _____    ______ ____
ROOT
ATOM      1  O   UNL     1       3.858   3.662  16.379  0.00  0.00    +0.000 OA
ATOM      2  C   UNL     1       4.759   4.396  16.800  0.00  0.00    +0.000 C 
ATOM      3  N   UNL     1       5.824   4.820  16.010  0.00  0.00    +0.000 N 
ATOM      4  C   UNL     1       6.892   5.663  16.347  0.00  0.00    +0.000 A 
ATOM      5  O   UNL     1       7.101   6.207  17.423  0.00  0.00    +0.000 OA
ATOM      6  O   UNL     1       7.764   5.848  15.265  0.00  0.00    +0.000 OA
ATOM      7  C   UNL     1       7.183   5.087  14.274  0.00  0.00    +0.000 A 
ATOM      8  C   UNL     1       7.694   4.956  12.998  0.00  0.00    +0.000 A 
ATOM      9  C   UNL     1       6.997   4.137  12.110  0.00  0.00    +0.000 A 
ATOM     10  C   UNL     1       5.825   3.479  12.521  0.00  0.00    +0.000 A 
ATOM     11 CL   UNL     1       4.997   2.464  11.403  0.00  0.00    +0.000 Cl
ATOM     12  C   UNL     1       5.323   3.632  13.819  0.00  0.00    +0.000 A 
ATOM     13  C   UNL     1       6.028   4.452  14.683  0.00  0.00    +0.000 A 
ENDROOT
BRANCH   2  14
ATOM     14  C   UNL     1       4.737   4.832  18.259  0.00  0.00    +0.000 C 
BRANCH  14  15
ATOM     15  C   UNL     1       3.782   5.964  18.584  0.00  0.00    +0.000 A 
ATOM     16  C   UNL     1       2.984   5.982  19.740  0.00  0.00    +0.000 A 
ATOM     17  C   UNL     1       2.098   7.035  19.978  0.00  0.00    +0.000 A 
ATOM     18  C   UNL     1       1.992   8.067  19.056  0.00  0.00    +0.000 A 
ATOM     19  F   UNL     1       1.130   9.066  19.280  0.00  0.00    +0.000 F 
ATOM     20  C   UNL     1       2.764   8.071  17.902  0.00  0.00    +0.000 A 
ATOM     21  C   UNL     1       3.657   7.024  17.667  0.00  0.00    +0.000 A 
ENDBRANCH  14  15
ENDBRANCH   2  14
TORSDOF 2
ENDMDL
MODEL 4
REMARK VINA RESULT:      -8.1      1.964      2.484
REMARK  Name = 
REMARK  2 active torsions:
REMARK  status: ('A' for Active; 'I' for Inactive)
REMARK    1  A    between atoms: C_2  and  C_3
REMARK    2  A    between atoms: C_3  and  C_4
REMARK                            x       y       z     vdW  Elec       q    Type
REMARK                         _______ _______ _______ _____ _____    ______ ____
ROOT
ATOM      1  O   UNL     1       3.866   3.581  16.390  0.00  0.00    +0.000 OA
ATOM      2  C   UNL     1       4.741   4.341  16.819  0.00  0.00    +0.000 C 
ATOM      3  N   UNL     1       5.805   4.791  16.043  0.00  0.00    +0.000 N 
ATOM      4  C   UNL     1       6.845   5.663  16.391  0.00  0.00    +0.000 A 
ATOM      5  O   UNL     1       7.025   6.215  17.467  0.00  0.00    +0.000 OA
ATOM      6  O   UNL     1       7.726   5.869  15.320  0.00  0.00    +0.000 OA
ATOM      7  C   UNL     1       7.179   5.089  14.323  0.00  0.00    +0.000 A 
ATOM      8  C   UNL     1       7.709   4.969  13.055  0.00  0.00    +0.000 A 
ATOM      9  C   UNL     1       7.047   4.129  12.160  0.00  0.00    +0.000 A 
ATOM     10  C   UNL     1       5.888   3.441  12.557  0.00  0.00    +0.000 A 
ATOM     11 CL   UNL     1       5.101   2.401  11.433  0.00  0.00    +0.000 Cl
ATOM     12  C   UNL     1       5.364   3.584  13.849  0.00  0.00    +0.000 A 
ATOM     13  C   UNL     1       6.035   4.425  14.719  0.00  0.00    +0.000 A 
ENDROOT
BRANCH   2  14
ATOM     14  C   UNL     1       4.689   4.780  18.277  0.00  0.00    +0.000 C 
BRANCH  14  15
ATOM     15  C   UNL     1       3.721   5.907  18.581  0.00  0.00    +0.000 A 
ATOM     16  C   UNL     1       3.545   7.013  17.735  0.00  0.00    +0.000 A 
ATOM     17  C   UNL     1       2.662   8.040  18.077  0.00  0.00    +0.000 A 
ATOM     18  C   UNL     1       1.961   7.974  19.273  0.00  0.00    +0.000 A 
ATOM     19  F   UNL     1       1.127   8.968  19.605  0.00  0.00    +0.000 F 
ATOM     20  C   UNL     1       2.120   6.895  20.132  0.00  0.00    +0.000 A 
ATOM     21  C   UNL     1       2.996   5.863  19.787  0.00  0.00    +0.000 A 
ENDBRANCH  14  15
ENDBRANCH   2  14
TORSDOF 2
ENDMDL
MODEL 5
REMARK VINA RESULT:      -7.8      1.302      1.610
REMARK  Name = 
REMARK  2 active torsions:
REMARK  status: ('A' for Active; 'I' for Inactive)
REMARK    1  A    between atoms: C_2  and  C_3
REMARK    2  A    between atoms: C_3  and  C_4
REMARK                            x       y       z     vdW  Elec       q    Type
REMARK                         _______ _______ _______ _____ _____    ______ ____
ROOT
ATOM      1  O   UNL     1       4.049   3.218  16.630  0.00  0.00    +0.000 OA
ATOM      2  C   UNL     1       4.957   3.932  17.069  0.00  0.00    +0.000 C 
ATOM      3  N   UNL     1       5.944   4.489  16.260  0.00  0.00    +0.000 N 
ATOM      4  C   UNL     1       7.009   5.327  16.618  0.00  0.00    +0.000 A 
ATOM      5  O   UNL     1       7.285   5.746  17.733  0.00  0.00    +0.000 OA
ATOM      6  O   UNL     1       7.786   5.676  15.505  0.00  0.00    +0.000 OA
ATOM      7  C   UNL     1       7.152   5.017  14.474  0.00  0.00    +0.000 A 
ATOM      8  C   UNL     1       7.564   5.061  13.157  0.00  0.00    +0.000 A 
ATOM      9  C   UNL     1       6.825   4.328  12.229  0.00  0.00    +0.000 A 
ATOM     10  C   UNL     1       5.710   3.579  12.642  0.00  0.00    +0.000 A 
ATOM     11 CL   UNL     1       4.827   2.674  11.474  0.00  0.00    +0.000 Cl
ATOM     12  C   UNL     1       5.307   3.555  13.984  0.00  0.00    +0.000 A 
ATOM     13  C   UNL     1       6.053   4.293  14.887  0.00  0.00    +0.000 A 
ENDROOT
BRANCH   2  14
ATOM     14  C   UNL     1       5.038   4.188  18.568  0.00  0.00    +0.000 C 
BRANCH  14  15
ATOM     15  C   UNL     1       3.877   4.967  19.157  0.00  0.00    +0.000 A 
ATOM     16  C   UNL     1       3.552   6.273  18.759  0.00  0.00    +0.000 A 
ATOM     17  C   UNL     1       2.491   6.958  19.356  0.00  0.00    +0.000 A 
ATOM     18  C   UNL     1       1.759   6.346  20.364  0.00  0.00    +0.000 A 
ATOM     19  F   UNL     1       0.752   7.012  20.944  0.00  0.00    +0.000 F 
ATOM     20  C   UNL     1       2.062   5.058  20.782  0.00  0.00    +0.000 A 
ATOM     21  C   UNL     1       3.117   4.369  20.180  0.00  0.00    +0.000 A 
ENDBRANCH  14  15
ENDBRANCH   2  14
TORSDOF 2
ENDMDL
MODEL 6
REMARK VINA RESULT:      -7.8      1.495      1.913
REMARK  Name = 
REMARK  2 active torsions:
REMARK  status: ('A' for Active; 'I' for Inactive)
REMARK    1  A    between atoms: C_2  and  C_3
REMARK    2  A    between atoms: C_3  and  C_4
REMARK                            x       y       z     vdW  Elec       q    Type
REMARK                         _______ _______ _______ _____ _____    ______ ____
ROOT
ATOM      1  O   UNL     1       3.564   3.190  16.714  0.00  0.00    +0.000 OA
ATOM      2  C   UNL     1       4.551   3.652  17.298  0.00  0.00    +0.000 C 
ATOM      3  N   UNL     1       5.676   4.127  16.630  0.00  0.00    +0.000 N 
ATOM      4  C   UNL     1       6.844   4.692  17.160  0.00  0.00    +0.000 A 
ATOM      5  O   UNL     1       7.110   4.886  18.338  0.00  0.00    +0.000 OA
ATOM      6  O   UNL     1       7.748   5.048  16.150  0.00  0.00    +0.000 OA
ATOM      7  C   UNL     1       7.083   4.675  15.002  0.00  0.00    +0.000 A 
ATOM      8  C   UNL     1       7.590   4.832  13.727  0.00  0.00    +0.000 A 
ATOM      9  C   UNL     1       6.801   4.391  12.665  0.00  0.00    +0.000 A 
ATOM     10  C   UNL     1       5.544   3.811  12.908  0.00  0.00    +0.000 A 
ATOM     11 CL   UNL     1       4.600   3.264  11.575  0.00  0.00    +0.000 Cl
ATOM     12  C   UNL     1       5.048   3.668  14.210  0.00  0.00    +0.000 A 
ATOM     13  C   UNL     1       5.846   4.115  15.249  0.00  0.00    +0.000 A 
ENDROOT
BRANCH   2  14
ATOM     14  C   UNL     1       4.568   3.668  18.821  0.00  0.00    +0.000 C 
BRANCH  14  15
ATOM     15  C   UNL     1       3.574   4.611  19.471  0.00  0.00    +0.000 A 
ATOM     16  C   UNL     1       2.667   4.202  20.461  0.00  0.00    +0.000 A 
ATOM     17  C   UNL     1       1.751   5.104  21.007  0.00  0.00    +0.000 A 
ATOM     18  C   UNL     1       1.727   6.416  20.556  0.00  0.00    +0.000 A 
ATOM     19  F   UNL     1       0.837   7.275  21.071  0.00  0.00    +0.000 F 
ATOM     20  C   UNL     1       2.608   6.847  19.574  0.00  0.00    +0.000 A 
ATOM     21  C   UNL     1       3.531   5.948  19.034  0.00  0.00    +0.000 A 
ENDBRANCH  14  15
ENDBRANCH   2  14
TORSDOF 2
ENDMDL
MODEL 7
REMARK VINA RESULT:      -7.6      6.132      8.368
REMARK  Name = 
REMARK  2 active torsions:
REMARK  status: ('A' for Active; 'I' for Inactive)
REMARK    1  A    between atoms: C_2  and  C_3
REMARK    2  A    between atoms: C_3  and  C_4
REMARK                            x       y       z     vdW  Elec       q    Type
REMARK                         _______ _______ _______ _____ _____    ______ ____
ROOT
ATOM      1  O   UNL     1       1.596   7.818  21.541  0.00  0.00    +0.000 OA
ATOM      2  C   UNL     1       1.801   7.989  20.334  0.00  0.00    +0.000 C 
ATOM      3  N   UNL     1       1.236   9.033  19.607  0.00  0.00    +0.000 N 
ATOM      4  C   UNL     1       1.399   9.355  18.253  0.00  0.00    +0.000 A 
ATOM      5  O   UNL     1       2.086   8.773  17.426  0.00  0.00    +0.000 OA
ATOM      6  O   UNL     1       0.656  10.491  17.901  0.00  0.00    +0.000 OA
ATOM      7  C   UNL     1       0.043  10.833  19.087  0.00  0.00    +0.000 A 
ATOM      8  C   UNL     1      -0.808  11.909  19.238  0.00  0.00    +0.000 A 
ATOM      9  C   UNL     1      -1.361  12.117  20.500  0.00  0.00    +0.000 A 
ATOM     10  C   UNL     1      -1.052  11.250  21.562  0.00  0.00    +0.000 A 
ATOM     11 CL   UNL     1      -1.764  11.527  23.106  0.00  0.00    +0.000 Cl
ATOM     12  C   UNL     1      -0.181  10.167  21.387  0.00  0.00    +0.000 A 
ATOM     13  C   UNL     1       0.360   9.982  20.127  0.00  0.00    +0.000 A 
ENDROOT
BRANCH   2  14
ATOM     14  C   UNL     1       2.677   6.993  19.585  0.00  0.00    +0.000 C 
BRANCH  14  15
ATOM     15  C   UNL     1       2.065   5.622  19.371  0.00  0.00    +0.000 A 
ATOM     16  C   UNL     1       1.575   4.831  20.423  0.00  0.00    +0.000 A 
ATOM     17  C   UNL     1       1.048   3.562  20.175  0.00  0.00    +0.000 A 
ATOM     18  C   UNL     1       1.022   3.069  18.877  0.00  0.00    +0.000 A 
ATOM     19  F   UNL     1       0.531   1.846  18.646  0.00  0.00    +0.000 F 
ATOM     20  C   UNL     1       1.505   3.827  17.819  0.00  0.00    +0.000 A 
ATOM     21  C   UNL     1       2.024   5.100  18.065  0.00  0.00    +0.000 A 
ENDBRANCH  14  15
ENDBRANCH   2  14
TORSDOF 2
ENDMDL
MODEL 8
REMARK VINA RESULT:      -7.5      6.082      8.301
REMARK  Name = 
REMARK  2 active torsions:
REMARK  status: ('A' for Active; 'I' for Inactive)
REMARK    1  A    between atoms: C_2  and  C_3
REMARK    2  A    between atoms: C_3  and  C_4
REMARK                            x       y       z     vdW  Elec       q    Type
REMARK                         _______ _______ _______ _____ _____    ______ ____
ROOT
ATOM      1  O   UNL     1       1.624   7.735  21.478  0.00  0.00    +0.000 OA
ATOM      2  C   UNL     1       1.849   7.936  20.279  0.00  0.00    +0.000 C 
ATOM      3  N   UNL     1       1.293   8.996  19.570  0.00  0.00    +0.000 N 
ATOM      4  C   UNL     1       1.478   9.352  18.227  0.00  0.00    +0.000 A 
ATOM      5  O   UNL     1       2.181   8.793  17.397  0.00  0.00    +0.000 OA
ATOM      6  O   UNL     1       0.737  10.494  17.890  0.00  0.00    +0.000 OA
ATOM      7  C   UNL     1       0.103  10.804  19.074  0.00  0.00    +0.000 A 
ATOM      8  C   UNL     1      -0.754  11.874  19.236  0.00  0.00    +0.000 A 
ATOM      9  C   UNL     1      -1.330  12.049  20.494  0.00  0.00    +0.000 A 
ATOM     10  C   UNL     1      -1.036  11.157  21.540  0.00  0.00    +0.000 A 
ATOM     11 CL   UNL     1      -1.775  11.393  23.077  0.00  0.00    +0.000 Cl
ATOM     12  C   UNL     1      -0.158  10.082  21.352  0.00  0.00    +0.000 A 
ATOM     13  C   UNL     1       0.405   9.929  20.097  0.00  0.00    +0.000 A 
ENDROOT
BRANCH   2  14
ATOM     14  C   UNL     1       2.740   6.962  19.521  0.00  0.00    +0.000 C 
BRANCH  14  15
ATOM     15  C   UNL     1       2.137   5.594  19.263  0.00  0.00    +0.000 A 
ATOM     16  C   UNL     1       2.030   5.036  17.979  0.00  0.00    +0.000 A 
ATOM     17  C   UNL     1       1.438   3.784  17.793  0.00  0.00    +0.000 A 
ATOM     18  C   UNL     1       0.936   3.092  18.886  0.00  0.00    +0.000 A 
ATOM     19  F   UNL     1       0.355   1.900  18.701  0.00  0.00    +0.000 F 
ATOM     20  C   UNL     1       1.022   3.623  20.165  0.00  0.00    +0.000 A 
ATOM     21  C   UNL     1       1.622   4.870  20.354  0.00  0.00    +0.000 A 
ENDBRANCH  14  15
ENDBRANCH   2  14
TORSDOF 2
ENDMDL
MODEL 9
REMARK VINA RESULT:      -7.5      6.166      7.906
REMARK  Name = 
REMARK  2 active torsions:
REMARK  status: ('A' for Active; 'I' for Inactive)
REMARK    1  A    between atoms: C_2  and  C_3
REMARK    2  A    between atoms: C_3  and  C_4
REMARK                            x       y       z     vdW  Elec       q    Type
REMARK                         _______ _______ _______ _____ _____    ______ ____
ROOT
ATOM      1  O   UNL     1       0.525   8.491  21.157  0.00  0.00    +0.000 OA
ATOM      2  C   UNL     1       1.033   8.928  20.118  0.00  0.00    +0.000 C 
ATOM      3  N   UNL     1       1.846   8.160  19.289  0.00  0.00    +0.000 N 
ATOM      4  C   UNL     1       2.464   8.517  18.083  0.00  0.00    +0.000 A 
ATOM      5  O   UNL     1       2.406   9.595  17.506  0.00  0.00    +0.000 OA
ATOM      6  O   UNL     1       3.204   7.454  17.548  0.00  0.00    +0.000 OA
ATOM      7  C   UNL     1       3.011   6.453  18.477  0.00  0.00    +0.000 A 
ATOM      8  C   UNL     1       3.557   5.189  18.379  0.00  0.00    +0.000 A 
ATOM      9  C   UNL     1       3.280   4.289  19.407  0.00  0.00    +0.000 A 
ATOM     10  C   UNL     1       2.475   4.677  20.492  0.00  0.00    +0.000 A 
ATOM     11 CL   UNL     1       2.163   3.546  21.752  0.00  0.00    +0.000 Cl
ATOM     12  C   UNL     1       1.927   5.964  20.566  0.00  0.00    +0.000 A 
ATOM     13  C   UNL     1       2.211   6.840  19.533  0.00  0.00    +0.000 A 
ENDROOT
BRANCH   2  14
ATOM     14  C   UNL     1       0.802  10.384  19.738  0.00  0.00    +0.000 C 
BRANCH  14  15
ATOM     15  C   UNL     1      -0.554  10.690  19.133  0.00  0.00    +0.000 A 
ATOM     16  C   UNL     1      -1.024  10.079  17.960  0.00  0.00    +0.000 A 
ATOM     17  C   UNL     1      -2.269  10.419  17.427  0.00  0.00    +0.000 A 
ATOM     18  C   UNL     1      -3.045  11.383  18.055  0.00  0.00    +0.000 A 
ATOM     19  F   UNL     1      -4.232  11.717  17.533  0.00  0.00    +0.000 F 
ATOM     20  C   UNL     1      -2.604  12.008  19.213  0.00  0.00    +0.000 A 
ATOM     21  C   UNL     1      -1.362  11.662  19.752  0.00  0.00    +0.000 A 
ENDBRANCH  14  15
ENDBRANCH   2  14
TORSDOF 2
ENDMDL
