MODEL 1
REMARK VINA RESULT:      -8.0      0.000      0.000
REMARK  Name = 
REMARK  5 active torsions:
REMARK  status: ('A' for Active; 'I' for Inactive)
REMARK    1  A    between atoms: C_1  and  C_2
REMARK    2  A    between atoms: N_5  and  C_6
REMARK    3  A    between atoms: C_6  and  C_7
REMARK    4  A    between atoms: N_11  and  C_12
REMARK    5  A    between atoms: C_12  and  C_13
REMARK                            x       y       z     vdW  Elec       q    Type
REMARK                         _______ _______ _______ _____ _____    ______ ____
ROOT
ATOM      1  C   UNL     1       1.913   4.336  19.294  0.00  0.00    +0.000 C 
ATOM      2  C   UNL     1       0.859   3.402  19.882  0.00  0.00    +0.000 C 
ATOM      3  C   UNL     1       0.799   2.245  18.911  0.00  0.00    +0.000 C 
ATOM      4  C   UNL     1       2.193   2.162  18.319  0.00  0.00    +0.000 C 
ATOM      5  N   UNL     1       2.873   3.449  18.577  0.00  0.00    +0.000 NA
ENDROOT
BRANCH   1   6
ATOM      6  C   UNL     1       2.437   5.332  20.349  0.00  0.00    +0.000 C 
BRANCH   6  11
ATOM      7  C   UNL     1       1.789   9.583  17.768  0.00  0.00    +0.000 C 
ATOM      8  C   UNL     1       1.882   8.572  18.847  0.00  0.00    +0.000 A 
ATOM      9  C   UNL     1       1.322   8.636  20.143  0.00  0.00    +0.000 A 
ATOM     10  N   UNL     1       1.530   7.521  20.847  0.00  0.00    +0.000 NA
ATOM     11  N   UNL     1       2.221   6.731  20.005  0.00  0.00    +0.000 N 
ATOM     12  C   UNL     1       2.497   7.338  18.810  0.00  0.00    +0.000 A 
ENDBRANCH   6  11
ENDBRANCH   1   6
BRANCH   5  13
ATOM     13  C   UNL     1       4.191   3.233  19.210  0.00  0.00    +0.000 C 
BRANCH  13  14
ATOM     14  C   UNL     1       5.304   3.933  18.406  0.00  0.00    +0.000 C 
ATOM     15  O   UNL     1       6.151   4.624  18.965  0.00  0.00    +0.000 OA
ATOM     16  N   UNL     1       5.161   3.760  17.044  0.00  0.00    +0.000 N 
ATOM     17  C   UNL     1       6.041   4.275  16.134  0.00  0.00    +0.000 A 
ATOM     18  N   UNL     1       7.166   4.925  16.313  0.00  0.00    +0.000 NA
ATOM     19  N   UNL     1       7.741   5.304  15.112  0.00  0.00    +0.000 NA
ATOM     20  C   UNL     1       7.007   4.935  14.085  0.00  0.00    +0.000 A 
ATOM     21  S   UNL     1       5.598   4.044  14.499  0.00  0.00    +0.000 S 
ATOM     22  H   UNL     1       4.396   3.184  16.714  0.00  0.00    +0.000 HD
ENDBRANCH  13  14
ENDBRANCH   5  13
TORSDOF 4
ENDMDL
MODEL 2
REMARK VINA RESULT:      -7.5      0.888      1.186
REMARK  Name = 
REMARK  5 active torsions:
REMARK  status: ('A' for Active; 'I' for Inactive)
REMARK    1  A    between atoms: C_1  and  C_2
REMARK    2  A    between atoms: N_5  and  C_6
REMARK    3  A    between atoms: C_6  and  C_7
REMARK    4  A    between atoms: N_11  and  C_12
REMARK    5  A    between atoms: C_12  and  C_13
REMARK                            x       y       z     vdW  Elec       q    Type
REMARK                         _______ _______ _______ _____ _____    ______ ____
ROOT
ATOM      1  C   UNL     1       2.218   4.765  19.208  0.00  0.00    +0.000 C 
ATOM      2  C   UNL     1       1.195   4.169  20.170  0.00  0.00    +0.000 C 
ATOM      3  C   UNL     1       1.051   2.732  19.723  0.00  0.00    +0.000 C 
ATOM      4  C   UNL     1       2.399   2.374  19.127  0.00  0.00    +0.000 C 
ATOM      5  N   UNL     1       3.114   3.634  18.831  0.00  0.00    +0.000 NA
ENDROOT
BRANCH   1   6
ATOM      6  C   UNL     1       2.829   6.066  19.768  0.00  0.00    +0.000 C 
BRANCH   6  11
ATOM      7  C   UNL     1       0.934  10.674  19.199  0.00  0.00    +0.000 C 
ATOM      8  C   UNL     1       1.505   9.329  18.955  0.00  0.00    +0.000 A 
ATOM      9  C   UNL     1       2.142   8.858  17.785  0.00  0.00    +0.000 A 
ATOM     10  N   UNL     1       2.611   7.617  17.920  0.00  0.00    +0.000 NA
ATOM     11  N   UNL     1       2.281   7.282  19.181  0.00  0.00    +0.000 N 
ATOM     12  C   UNL     1       1.574   8.260  19.825  0.00  0.00    +0.000 A 
ENDBRANCH   6  11
ENDBRANCH   1   6
BRANCH   5  13
ATOM     13  C   UNL     1       4.469   3.623  19.420  0.00  0.00    +0.000 C 
BRANCH  13  14
ATOM     14  C   UNL     1       5.475   4.327  18.487  0.00  0.00    +0.000 C 
ATOM     15  O   UNL     1       6.227   5.200  18.910  0.00  0.00    +0.000 OA
ATOM     16  N   UNL     1       5.346   3.926  17.172  0.00  0.00    +0.000 N 
ATOM     17  C   UNL     1       6.145   4.402  16.171  0.00  0.00    +0.000 A 
ATOM     18  N   UNL     1       7.176   5.212  16.217  0.00  0.00    +0.000 NA
ATOM     19  N   UNL     1       7.687   5.470  14.956  0.00  0.00    +0.000 NA
ATOM     20  C   UNL     1       7.002   4.853  14.019  0.00  0.00    +0.000 A 
ATOM     21  S   UNL     1       5.726   3.863  14.604  0.00  0.00    +0.000 S 
ATOM     22  H   UNL     1       4.662   3.212  16.956  0.00  0.00    +0.000 HD
ENDBRANCH  13  14
ENDBRANCH   5  13
TORSDOF 4
ENDMDL
MODEL 3
REMARK VINA RESULT:      -6.7      2.090      2.158
REMARK  Name = 
REMARK  5 active torsions:
REMARK  status: ('A' for Active; 'I' for Inactive)
REMARK    1  A    between atoms: C_1  and  C_2
REMARK    2  A    between atoms: N_5  and  C_6
REMARK    3  A    between atoms: C_6  and  C_7
REMARK    4  A    between atoms: N_11  and  C_12
REMARK    5  A    between atoms: C_12  and  C_13
REMARK                            x       y       z     vdW  Elec       q    Type
REMARK                         _______ _______ _______ _____ _____    ______ ____
ROOT
ATOM      1  C   UNL     1       1.843   4.418  19.212  0.00  0.00    +0.000 C 
ATOM      2  C   UNL     1       1.155   3.403  20.120  0.00  0.00    +0.000 C 
ATOM      3  C   UNL     1       0.780   2.266  19.197  0.00  0.00    +0.000 C 
ATOM      4  C   UNL     1       1.831   2.289  18.104  0.00  0.00    +0.000 C 
ATOM      5  N   UNL     1       2.490   3.613  18.136  0.00  0.00    +0.000 NA
ENDROOT
BRANCH   1   6
ATOM      6  C   UNL     1       2.687   5.422  20.024  0.00  0.00    +0.000 C 
BRANCH   6  11
ATOM      7  C   UNL     1       1.527   9.778  17.826  0.00  0.00    +0.000 C 
ATOM      8  C   UNL     1       1.763   8.700  18.814  0.00  0.00    +0.000 A 
ATOM      9  C   UNL     1       1.260   8.608  20.132  0.00  0.00    +0.000 A 
ATOM     10  N   UNL     1       1.603   7.468  20.734  0.00  0.00    +0.000 NA
ATOM     11  N   UNL     1       2.326   6.816  19.804  0.00  0.00    +0.000 N 
ATOM     12  C   UNL     1       2.489   7.537  18.653  0.00  0.00    +0.000 A 
ENDBRANCH   6  11
ENDBRANCH   1   6
BRANCH   5  13
ATOM     13  C   UNL     1       3.960   3.470  18.195  0.00  0.00    +0.000 C 
BRANCH  13  14
ATOM     14  C   UNL     1       4.653   4.716  17.610  0.00  0.00    +0.000 C 
ATOM     15  O   UNL     1       4.261   5.227  16.564  0.00  0.00    +0.000 OA
ATOM     16  N   UNL     1       5.768   5.090  18.333  0.00  0.00    +0.000 N 
ATOM     17  C   UNL     1       6.529   6.177  18.012  0.00  0.00    +0.000 A 
ATOM     18  N   UNL     1       6.364   7.087  17.082  0.00  0.00    +0.000 NA
ATOM     19  N   UNL     1       7.397   8.010  17.072  0.00  0.00    +0.000 NA
ATOM     20  C   UNL     1       8.300   7.738  17.988  0.00  0.00    +0.000 A 
ATOM     21  S   UNL     1       7.931   6.378  18.970  0.00  0.00    +0.000 S 
ATOM     22  H   UNL     1       5.995   4.560  19.166  0.00  0.00    +0.000 HD
ENDBRANCH  13  14
ENDBRANCH   5  13
TORSDOF 4
ENDMDL
MODEL 4
REMARK VINA RESULT:      -6.7      2.935      6.088
REMARK  Name = 
REMARK  5 active torsions:
REMARK  status: ('A' for Active; 'I' for Inactive)
REMARK    1  A    between atoms: C_1  and  C_2
REMARK    2  A    between atoms: N_5  and  C_6
REMARK    3  A    between atoms: C_6  and  C_7
REMARK    4  A    between atoms: N_11  and  C_12
REMARK    5  A    between atoms: C_12  and  C_13
REMARK                            x       y       z     vdW  Elec       q    Type
REMARK                         _______ _______ _______ _____ _____    ______ ____
ROOT
ATOM      1  C   UNL     1       4.041   3.405  18.244  0.00  0.00    +0.000 C 
ATOM      2  C   UNL     1       3.238   2.211  17.736  0.00  0.00    +0.000 C 
ATOM      3  C   UNL     1       2.312   1.866  18.880  0.00  0.00    +0.000 C 
ATOM      4  C   UNL     1       2.069   3.182  19.594  0.00  0.00    +0.000 C 
ATOM      5  N   UNL     1       3.131   4.125  19.180  0.00  0.00    +0.000 NA
ENDROOT
BRANCH   1   6
ATOM      6  C   UNL     1       4.705   4.175  17.084  0.00  0.00    +0.000 C 
BRANCH   6  11
ATOM      7  C   UNL     1       7.907   7.977  17.742  0.00  0.00    +0.000 C 
ATOM      8  C   UNL     1       7.223   6.665  17.805  0.00  0.00    +0.000 A 
ATOM      9  C   UNL     1       7.374   5.656  18.781  0.00  0.00    +0.000 A 
ATOM     10  N   UNL     1       6.552   4.623  18.585  0.00  0.00    +0.000 NA
ATOM     11  N   UNL     1       5.863   4.965  17.480  0.00  0.00    +0.000 N 
ATOM     12  C   UNL     1       6.264   6.161  16.950  0.00  0.00    +0.000 A 
ENDBRANCH   6  11
ENDBRANCH   1   6
BRANCH   5  13
ATOM     13  C   UNL     1       2.550   5.399  18.707  0.00  0.00    +0.000 C 
BRANCH  13  14
ATOM     14  C   UNL     1       2.163   6.298  19.898  0.00  0.00    +0.000 C 
ATOM     15  O   UNL     1       2.107   5.849  21.039  0.00  0.00    +0.000 OA
ATOM     16  N   UNL     1       1.816   7.575  19.505  0.00  0.00    +0.000 N 
ATOM     17  C   UNL     1       1.457   8.551  20.391  0.00  0.00    +0.000 A 
ATOM     18  N   UNL     1       1.430   8.542  21.702  0.00  0.00    +0.000 NA
ATOM     19  N   UNL     1       0.964   9.740  22.219  0.00  0.00    +0.000 NA
ATOM     20  C   UNL     1       0.645  10.588  21.266  0.00  0.00    +0.000 A 
ATOM     21  S   UNL     1       0.947  10.017  19.674  0.00  0.00    +0.000 S 
ATOM     22  H   UNL     1       1.881   7.806  18.521  0.00  0.00    +0.000 HD
ENDBRANCH  13  14
ENDBRANCH   5  13
TORSDOF 4
ENDMDL
MODEL 5
REMARK VINA RESULT:      -6.6      1.753      2.085
REMARK  Name = 
REMARK  5 active torsions:
REMARK  status: ('A' for Active; 'I' for Inactive)
REMARK    1  A    between atoms: C_1  and  C_2
REMARK    2  A    between atoms: N_5  and  C_6
REMARK    3  A    between atoms: C_6  and  C_7
REMARK    4  A    between atoms: N_11  and  C_12
REMARK    5  A    between atoms: C_12  and  C_13
REMARK                            x       y       z     vdW  Elec       q    Type
REMARK                         _______ _______ _______ _____ _____    ______ ____
ROOT
ATOM      1  C   UNL     1       2.285   4.351  20.158  0.00  0.00    +0.000 C 
ATOM      2  C   UNL     1       2.087   4.021  21.635  0.00  0.00    +0.000 C 
ATOM      3  C   UNL     1       1.301   2.730  21.629  0.00  0.00    +0.000 C 
ATOM      4  C   UNL     1       1.714   2.028  20.350  0.00  0.00    +0.000 C 
ATOM      5  N   UNL     1       2.335   3.034  19.461  0.00  0.00    +0.000 NA
ENDROOT
BRANCH   1   6
ATOM      6  C   UNL     1       3.430   5.365  19.954  0.00  0.00    +0.000 C 
BRANCH   6  11
ATOM      7  C   UNL     1       1.829   9.649  17.896  0.00  0.00    +0.000 C 
ATOM      8  C   UNL     1       2.467   8.332  18.130  0.00  0.00    +0.000 A 
ATOM      9  C   UNL     1       3.505   7.729  17.385  0.00  0.00    +0.000 A 
ATOM     10  N   UNL     1       3.904   6.568  17.907  0.00  0.00    +0.000 NA
ATOM     11  N   UNL     1       3.127   6.419  18.996  0.00  0.00    +0.000 N 
ATOM     12  C   UNL     1       2.217   7.430  19.143  0.00  0.00    +0.000 A 
ENDBRANCH   6  11
ENDBRANCH   1   6
BRANCH   5  13
ATOM     13  C   UNL     1       3.656   2.575  18.984  0.00  0.00    +0.000 C 
BRANCH  13  14
ATOM     14  C   UNL     1       3.926   3.082  17.554  0.00  0.00    +0.000 C 
ATOM     15  O   UNL     1       3.085   2.960  16.668  0.00  0.00    +0.000 OA
ATOM     16  N   UNL     1       5.208   3.572  17.400  0.00  0.00    +0.000 N 
ATOM     17  C   UNL     1       5.666   4.093  16.223  0.00  0.00    +0.000 A 
ATOM     18  N   UNL     1       5.045   4.307  15.088  0.00  0.00    +0.000 NA
ATOM     19  N   UNL     1       5.893   4.823  14.123  0.00  0.00    +0.000 NA
ATOM     20  C   UNL     1       7.120   4.956  14.577  0.00  0.00    +0.000 A 
ATOM     21  S   UNL     1       7.321   4.524  16.227  0.00  0.00    +0.000 S 
ATOM     22  H   UNL     1       5.812   3.589  18.212  0.00  0.00    +0.000 HD
ENDBRANCH  13  14
ENDBRANCH   5  13
TORSDOF 4
ENDMDL
MODEL 6
REMARK VINA RESULT:      -6.5      3.181      7.140
REMARK  Name = 
REMARK  5 active torsions:
REMARK  status: ('A' for Active; 'I' for Inactive)
REMARK    1  A    between atoms: C_1  and  C_2
REMARK    2  A    between atoms: N_5  and  C_6
REMARK    3  A    between atoms: C_6  and  C_7
REMARK    4  A    between atoms: N_11  and  C_12
REMARK    5  A    between atoms: C_12  and  C_13
REMARK                            x       y       z     vdW  Elec       q    Type
REMARK                         _______ _______ _______ _____ _____    ______ ____
ROOT
ATOM      1  C   UNL     1       5.197   5.909  17.811  0.00  0.00    +0.000 C 
ATOM      2  C   UNL     1       5.475   4.410  17.880  0.00  0.00    +0.000 C 
ATOM      3  C   UNL     1       4.973   3.998  19.245  0.00  0.00    +0.000 C 
ATOM      4  C   UNL     1       3.844   4.963  19.552  0.00  0.00    +0.000 C 
ATOM      5  N   UNL     1       3.984   6.127  18.651  0.00  0.00    +0.000 NA
ENDROOT
BRANCH   1   6
ATOM      6  C   UNL     1       5.219   6.422  16.356  0.00  0.00    +0.000 C 
BRANCH   6  11
ATOM      7  C   UNL     1       5.971   3.281  12.520  0.00  0.00    +0.000 C 
ATOM      8  C   UNL     1       6.158   4.175  13.686  0.00  0.00    +0.000 A 
ATOM      9  C   UNL     1       7.351   4.801  14.114  0.00  0.00    +0.000 A 
ATOM     10  N   UNL     1       7.160   5.606  15.161  0.00  0.00    +0.000 NA
ATOM     11  N   UNL     1       5.842   5.505  15.412  0.00  0.00    +0.000 N 
ATOM     12  C   UNL     1       5.208   4.621  14.582  0.00  0.00    +0.000 A 
ENDBRANCH   6  11
ENDBRANCH   1   6
BRANCH   5  13
ATOM     13  C   UNL     1       2.716   6.402  17.943  0.00  0.00    +0.000 C 
BRANCH  13  14
ATOM     14  C   UNL     1       2.238   7.841  18.219  0.00  0.00    +0.000 C 
ATOM     15  O   UNL     1       2.377   8.727  17.381  0.00  0.00    +0.000 OA
ATOM     16  N   UNL     1       1.752   7.999  19.501  0.00  0.00    +0.000 N 
ATOM     17  C   UNL     1       1.255   9.184  19.965  0.00  0.00    +0.000 A 
ATOM     18  N   UNL     1       1.063  10.325  19.348  0.00  0.00    +0.000 NA
ATOM     19  N   UNL     1       0.566  11.297  20.200  0.00  0.00    +0.000 NA
ATOM     20  C   UNL     1       0.425  10.842  21.426  0.00  0.00    +0.000 A 
ATOM     21  S   UNL     1       0.824   9.182  21.620  0.00  0.00    +0.000 S 
ATOM     22  H   UNL     1       1.718   7.185  20.103  0.00  0.00    +0.000 HD
ENDBRANCH  13  14
ENDBRANCH   5  13
TORSDOF 4
ENDMDL
MODEL 7
REMARK VINA RESULT:      -6.5      2.423      5.979
REMARK  Name = 
REMARK  5 active torsions:
REMARK  status: ('A' for Active; 'I' for Inactive)
REMARK    1  A    between atoms: C_1  and  C_2
REMARK    2  A    between atoms: N_5  and  C_6
REMARK    3  A    between atoms: C_6  and  C_7
REMARK    4  A    between atoms: N_11  and  C_12
REMARK    5  A    between atoms: C_12  and  C_13
REMARK                            x       y       z     vdW  Elec       q    Type
REMARK                         _______ _______ _______ _____ _____    ______ ____
ROOT
ATOM      1  C   UNL     1       4.503   3.919  16.543  0.00  0.00    +0.000 C 
ATOM      2  C   UNL     1       5.691   3.775  15.596  0.00  0.00    +0.000 C 
ATOM      3  C   UNL     1       5.734   5.087  14.845  0.00  0.00    +0.000 C 
ATOM      4  C   UNL     1       5.164   6.107  15.812  0.00  0.00    +0.000 C 
ATOM      5  N   UNL     1       4.423   5.373  16.862  0.00  0.00    +0.000 NA
ENDROOT
BRANCH   1   6
ATOM      6  C   UNL     1       4.568   2.890  17.690  0.00  0.00    +0.000 C 
BRANCH   6  11
ATOM      7  C   UNL     1       1.267   2.724  21.462  0.00  0.00    +0.000 C 
ATOM      8  C   UNL     1       1.898   2.760  20.122  0.00  0.00    +0.000 A 
ATOM      9  C   UNL     1       1.296   3.105  18.891  0.00  0.00    +0.000 A 
ATOM     10  N   UNL     1       2.164   3.109  17.878  0.00  0.00    +0.000 NA
ATOM     11  N   UNL     1       3.333   2.770  18.452  0.00  0.00    +0.000 N 
ATOM     12  C   UNL     1       3.212   2.505  19.789  0.00  0.00    +0.000 A 
ENDBRANCH   6  11
ENDBRANCH   1   6
BRANCH   5  13
ATOM     13  C   UNL     1       4.863   5.792  18.209  0.00  0.00    +0.000 C 
BRANCH  13  14
ATOM     14  C   UNL     1       3.694   6.419  18.994  0.00  0.00    +0.000 C 
ATOM     15  O   UNL     1       3.237   5.873  19.994  0.00  0.00    +0.000 OA
ATOM     16  N   UNL     1       3.205   7.560  18.391  0.00  0.00    +0.000 N 
ATOM     17  C   UNL     1       2.181   8.296  18.917  0.00  0.00    +0.000 A 
ATOM     18  N   UNL     1       1.530   8.161  20.048  0.00  0.00    +0.000 NA
ATOM     19  N   UNL     1       0.530   9.109  20.185  0.00  0.00    +0.000 NA
ATOM     20  C   UNL     1       0.465   9.902  19.138  0.00  0.00    +0.000 A 
ATOM     21  S   UNL     1       1.656   9.596  17.939  0.00  0.00    +0.000 S 
ATOM     22  H   UNL     1       3.661   7.888  17.548  0.00  0.00    +0.000 HD
ENDBRANCH  13  14
ENDBRANCH   5  13
TORSDOF 4
ENDMDL
MODEL 8
REMARK VINA RESULT:      -6.4      2.796      6.886
REMARK  Name = 
REMARK  5 active torsions:
REMARK  status: ('A' for Active; 'I' for Inactive)
REMARK    1  A    between atoms: C_1  and  C_2
REMARK    2  A    between atoms: N_5  and  C_6
REMARK    3  A    between atoms: C_6  and  C_7
REMARK    4  A    between atoms: N_11  and  C_12
REMARK    5  A    between atoms: C_12  and  C_13
REMARK                            x       y       z     vdW  Elec       q    Type
REMARK                         _______ _______ _______ _____ _____    ______ ____
ROOT
ATOM      1  C   UNL     1       5.491   5.962  16.065  0.00  0.00    +0.000 C 
ATOM      2  C   UNL     1       5.539   7.054  17.130  0.00  0.00    +0.000 C 
ATOM      3  C   UNL     1       4.132   7.104  17.681  0.00  0.00    +0.000 C 
ATOM      4  C   UNL     1       3.600   5.693  17.519  0.00  0.00    +0.000 C 
ATOM      5  N   UNL     1       4.457   4.996  16.534  0.00  0.00    +0.000 NA
ENDROOT
BRANCH   1   6
ATOM      6  C   UNL     1       6.904   5.455  15.713  0.00  0.00    +0.000 C 
BRANCH   6  11
ATOM      7  C   UNL     1       5.833   2.799  11.596  0.00  0.00    +0.000 C 
ATOM      8  C   UNL     1       6.478   3.690  12.588  0.00  0.00    +0.000 A 
ATOM      9  C   UNL     1       7.460   4.679  12.353  0.00  0.00    +0.000 A 
ATOM     10  N   UNL     1       7.777   5.359  13.456  0.00  0.00    +0.000 NA
ATOM     11  N   UNL     1       6.997   4.814  14.408  0.00  0.00    +0.000 N 
ATOM     12  C   UNL     1       6.236   3.777  13.943  0.00  0.00    +0.000 A 
ENDBRANCH   6  11
ENDBRANCH   1   6
BRANCH   5  13
ATOM     13  C   UNL     1       4.936   3.705  17.072  0.00  0.00    +0.000 C 
BRANCH  13  14
ATOM     14  C   UNL     1       4.573   3.566  18.563  0.00  0.00    +0.000 C 
ATOM     15  O   UNL     1       5.433   3.646  19.435  0.00  0.00    +0.000 OA
ATOM     16  N   UNL     1       3.241   3.260  18.756  0.00  0.00    +0.000 N 
ATOM     17  C   UNL     1       2.687   3.108  19.996  0.00  0.00    +0.000 A 
ATOM     18  N   UNL     1       3.210   3.275  21.187  0.00  0.00    +0.000 NA
ATOM     19  N   UNL     1       2.306   2.980  22.194  0.00  0.00    +0.000 NA
ATOM     20  C   UNL     1       1.150   2.586  21.709  0.00  0.00    +0.000 A 
ATOM     21  S   UNL     1       1.052   2.607  19.994  0.00  0.00    +0.000 S 
ATOM     22  H   UNL     1       2.643   3.196  17.941  0.00  0.00    +0.000 HD
ENDBRANCH  13  14
ENDBRANCH   5  13
TORSDOF 4
ENDMDL
MODEL 9
REMARK VINA RESULT:      -6.4      3.309      6.094
REMARK  Name = 
REMARK  5 active torsions:
REMARK  status: ('A' for Active; 'I' for Inactive)
REMARK    1  A    between atoms: C_1  and  C_2
REMARK    2  A    between atoms: N_5  and  C_6
REMARK    3  A    between atoms: C_6  and  C_7
REMARK    4  A    between atoms: N_11  and  C_12
REMARK    5  A    between atoms: C_12  and  C_13
REMARK                            x       y       z     vdW  Elec       q    Type
REMARK                         _______ _______ _______ _____ _____    ______ ____
ROOT
ATOM      1  C   UNL     1       4.347   4.195  19.657  0.00  0.00    +0.000 C 
ATOM      2  C   UNL     1       3.871   2.799  20.047  0.00  0.00    +0.000 C 
ATOM      3  C   UNL     1       2.783   3.046  21.067  0.00  0.00    +0.000 C 
ATOM      4  C   UNL     1       2.188   4.388  20.685  0.00  0.00    +0.000 C 
ATOM      5  N   UNL     1       3.154   5.077  19.803  0.00  0.00    +0.000 NA
ENDROOT
BRANCH   1   6
ATOM      6  C   UNL     1       5.121   4.176  18.322  0.00  0.00    +0.000 C 
BRANCH   6  11
ATOM      7  C   UNL     1       7.962   8.249  17.624  0.00  0.00    +0.000 C 
ATOM      8  C   UNL     1       7.465   6.909  18.016  0.00  0.00    +0.000 A 
ATOM      9  C   UNL     1       7.993   6.043  19.000  0.00  0.00    +0.000 A 
ATOM     10  N   UNL     1       7.262   4.939  19.158  0.00  0.00    +0.000 NA
ATOM     11  N   UNL     1       6.255   5.089  18.278  0.00  0.00    +0.000 N 
ATOM     12  C   UNL     1       6.361   6.235  17.537  0.00  0.00    +0.000 A 
ENDBRANCH   6  11
ENDBRANCH   1   6
BRANCH   5  13
ATOM     13  C   UNL     1       2.500   5.536  18.560  0.00  0.00    +0.000 C 
BRANCH  13  14
ATOM     14  C   UNL     1       2.354   7.071  18.554  0.00  0.00    +0.000 C 
ATOM     15  O   UNL     1       2.905   7.756  17.698  0.00  0.00    +0.000 OA
ATOM     16  N   UNL     1       1.640   7.538  19.639  0.00  0.00    +0.000 N 
ATOM     17  C   UNL     1       1.368   8.862  19.833  0.00  0.00    +0.000 A 
ATOM     18  N   UNL     1       1.623   9.903  19.076  0.00  0.00    +0.000 NA
ATOM     19  N   UNL     1       1.206  11.085  19.665  0.00  0.00    +0.000 NA
ATOM     20  C   UNL     1       0.673  10.877  20.849  0.00  0.00    +0.000 A 
ATOM     21  S   UNL     1       0.580   9.224  21.307  0.00  0.00    +0.000 S 
ATOM     22  H   UNL     1       1.261   6.859  20.289  0.00  0.00    +0.000 HD
ENDBRANCH  13  14
ENDBRANCH   5  13
TORSDOF 4
ENDMDL
