MODEL 1
REMARK VINA RESULT:      -8.9      0.000      0.000
REMARK  Name = 
REMARK  11 active torsions:
REMARK  status: ('A' for Active; 'I' for Inactive)
REMARK    1  A    between atoms: C_1  and  C_2
REMARK    2  A    between atoms: C_2  and  C_3
REMARK    3  A    between atoms: C_3  and  C_4
REMARK    4  A    between atoms: C_4  and  C_5
REMARK    5  A    between atoms: C_5  and  C_6
REMARK    6  A    between atoms: C_6  and  C_7
REMARK    7  A    between atoms: C_7  and  C_8
REMARK    8  A    between atoms: C_10  and  O_11
REMARK    9  A    between atoms: C_16  and  C_17
REMARK   10  A    between atoms: C_16  and  C_18
REMARK   11  A    between atoms: C_22  and  C_23
REMARK                            x       y       z     vdW  Elec       q    Type
REMARK                         _______ _______ _______ _____ _____    ______ ____
ROOT
ATOM      1  C   UNL     1       5.705   5.036  15.290  0.00  0.00    +0.000 A 
ATOM      2  C   UNL     1       5.292   6.311  15.665  0.00  0.00    +0.000 A 
ATOM      3  C   UNL     1       4.469   6.501  16.781  0.00  0.00    +0.000 A 
ATOM      4  C   UNL     1       4.008   5.423  17.569  0.00  0.00    +0.000 A 
ATOM      5  C   UNL     1       4.432   4.145  17.161  0.00  0.00    +0.000 A 
ATOM      6  C   UNL     1       5.264   3.953  16.045  0.00  0.00    +0.000 A 
ATOM      7  O   UNL     1       4.105   2.979  17.787  0.00  0.00    +0.000 OA
ATOM      8  C   UNL     1       3.194   2.992  18.899  0.00  0.00    +0.000 C 
ATOM      9  C   UNL     1       1.963   2.201  18.423  0.00  0.00    +0.000 C 
ATOM     10  C   UNL     1       3.936   2.217  20.002  0.00  0.00    +0.000 C 
ATOM     11  C   UNL     1       2.748   4.350  19.422  0.00  0.00    +0.000 A 
ATOM     12  C   UNL     1       1.909   4.421  20.560  0.00  0.00    +0.000 A 
ATOM     13  C   UNL     1       1.452   5.638  21.053  0.00  0.00    +0.000 A 
ATOM     14  C   UNL     1       1.826   6.812  20.415  0.00  0.00    +0.000 A 
ATOM     15  C   UNL     1       1.350   8.151  20.895  0.00  0.00    +0.000 C 
ATOM     16  C   UNL     1       2.659   6.743  19.292  0.00  0.00    +0.000 A 
ATOM     17  C   UNL     1       3.138   5.527  18.762  0.00  0.00    +0.000 A 
ENDROOT
BRANCH   3  18
ATOM     18  O   UNL     1       4.132   7.799  17.066  0.00  0.00    +0.000 OA
ATOM     19  H   UNL     1       3.564   7.823  17.853  0.00  0.00    +0.000 HD
ENDBRANCH   3  18
BRANCH   1  20
ATOM     20  C   UNL     1       6.589   4.839  14.088  0.00  0.00    +0.000 C 
BRANCH  20  21
ATOM     21  C   UNL     1       6.491   3.416  13.538  0.00  0.00    +0.000 C 
BRANCH  21  22
ATOM     22  C   UNL     1       6.516   3.416  12.014  0.00  0.00    +0.000 C 
BRANCH  22  23
ATOM     23  C   UNL     1       5.335   2.631  11.450  0.00  0.00    +0.000 C 
BRANCH  23  24
ATOM     24  C   UNL     1       4.066   3.477  11.478  0.00  0.00    +0.000 C 
BRANCH  24  26
ATOM     25  C   UNL     1       2.826   4.355   9.482  0.00  0.00    +0.000 C 
ATOM     26  C   UNL     1       3.142   3.125  10.317  0.00  0.00    +0.000 C 
ENDBRANCH  24  26
ENDBRANCH  23  24
ENDBRANCH  22  23
ENDBRANCH  21  22
ENDBRANCH  20  21
ENDBRANCH   1  20
TORSDOF 7
ENDMDL
MODEL 2
REMARK VINA RESULT:      -7.7      0.900      1.554
REMARK  Name = 
REMARK  11 active torsions:
REMARK  status: ('A' for Active; 'I' for Inactive)
REMARK    1  A    between atoms: C_1  and  C_2
REMARK    2  A    between atoms: C_2  and  C_3
REMARK    3  A    between atoms: C_3  and  C_4
REMARK    4  A    between atoms: C_4  and  C_5
REMARK    5  A    between atoms: C_5  and  C_6
REMARK    6  A    between atoms: C_6  and  C_7
REMARK    7  A    between atoms: C_7  and  C_8
REMARK    8  A    between atoms: C_10  and  O_11
REMARK    9  A    between atoms: C_16  and  C_17
REMARK   10  A    between atoms: C_16  and  C_18
REMARK   11  A    between atoms: C_22  and  C_23
REMARK                            x       y       z     vdW  Elec       q    Type
REMARK                         _______ _______ _______ _____ _____    ______ ____
ROOT
ATOM      1  C   UNL     1       5.935   5.030  15.403  0.00  0.00    +0.000 A 
ATOM      2  C   UNL     1       5.412   6.274  15.745  0.00  0.00    +0.000 A 
ATOM      3  C   UNL     1       4.561   6.419  16.846  0.00  0.00    +0.000 A 
ATOM      4  C   UNL     1       4.182   5.324  17.655  0.00  0.00    +0.000 A 
ATOM      5  C   UNL     1       4.717   4.078  17.280  0.00  0.00    +0.000 A 
ATOM      6  C   UNL     1       5.577   3.932  16.179  0.00  0.00    +0.000 A 
ATOM      7  O   UNL     1       4.481   2.902  17.930  0.00  0.00    +0.000 OA
ATOM      8  C   UNL     1       3.558   2.864  19.031  0.00  0.00    +0.000 C 
ATOM      9  C   UNL     1       2.404   1.961  18.560  0.00  0.00    +0.000 C 
ATOM     10  C   UNL     1       4.348   2.178  20.161  0.00  0.00    +0.000 C 
ATOM     11  C   UNL     1       2.993   4.191  19.518  0.00  0.00    +0.000 A 
ATOM     12  C   UNL     1       2.136   4.216  20.644  0.00  0.00    +0.000 A 
ATOM     13  C   UNL     1       1.573   5.401  21.104  0.00  0.00    +0.000 A 
ATOM     14  C   UNL     1       1.855   6.588  20.443  0.00  0.00    +0.000 A 
ATOM     15  C   UNL     1       1.262   7.892  20.887  0.00  0.00    +0.000 C 
ATOM     16  C   UNL     1       2.706   6.564  19.331  0.00  0.00    +0.000 A 
ATOM     17  C   UNL     1       3.292   5.382  18.835  0.00  0.00    +0.000 A 
ENDROOT
BRANCH   3  18
ATOM     18  O   UNL     1       4.113   7.690  17.098  0.00  0.00    +0.000 OA
ATOM     19  H   UNL     1       3.961   8.154  16.259  0.00  0.00    +0.000 HD
ENDBRANCH   3  18
BRANCH   1  20
ATOM     20  C   UNL     1       6.848   4.881  14.216  0.00  0.00    +0.000 C 
BRANCH  20  21
ATOM     21  C   UNL     1       6.516   3.634  13.397  0.00  0.00    +0.000 C 
BRANCH  21  22
ATOM     22  C   UNL     1       5.116   3.727  12.802  0.00  0.00    +0.000 C 
BRANCH  22  23
ATOM     23  C   UNL     1       5.122   3.321  11.331  0.00  0.00    +0.000 C 
BRANCH  23  24
ATOM     24  C   UNL     1       4.958   1.811  11.190  0.00  0.00    +0.000 C 
BRANCH  24  26
ATOM     25  C   UNL     1       6.175  -0.377  11.334  0.00  0.00    +0.000 C 
ATOM     26  C   UNL     1       6.312   1.116  11.088  0.00  0.00    +0.000 C 
ENDBRANCH  24  26
ENDBRANCH  23  24
ENDBRANCH  22  23
ENDBRANCH  21  22
ENDBRANCH  20  21
ENDBRANCH   1  20
TORSDOF 7
ENDMDL
MODEL 3
REMARK VINA RESULT:      -7.6      1.341      1.754
REMARK  Name = 
REMARK  11 active torsions:
REMARK  status: ('A' for Active; 'I' for Inactive)
REMARK    1  A    between atoms: C_1  and  C_2
REMARK    2  A    between atoms: C_2  and  C_3
REMARK    3  A    between atoms: C_3  and  C_4
REMARK    4  A    between atoms: C_4  and  C_5
REMARK    5  A    between atoms: C_5  and  C_6
REMARK    6  A    between atoms: C_6  and  C_7
REMARK    7  A    between atoms: C_7  and  C_8
REMARK    8  A    between atoms: C_10  and  O_11
REMARK    9  A    between atoms: C_16  and  C_17
REMARK   10  A    between atoms: C_16  and  C_18
REMARK   11  A    between atoms: C_22  and  C_23
REMARK                            x       y       z     vdW  Elec       q    Type
REMARK                         _______ _______ _______ _____ _____    ______ ____
ROOT
ATOM      1  C   UNL     1       5.499   4.598  15.458  0.00  0.00    +0.000 A 
ATOM      2  C   UNL     1       5.251   5.941  15.724  0.00  0.00    +0.000 A 
ATOM      3  C   UNL     1       4.437   6.324  16.795  0.00  0.00    +0.000 A 
ATOM      4  C   UNL     1       3.821   5.381  17.649  0.00  0.00    +0.000 A 
ATOM      5  C   UNL     1       4.081   4.031  17.351  0.00  0.00    +0.000 A 
ATOM      6  C   UNL     1       4.904   3.645  16.279  0.00  0.00    +0.000 A 
ATOM      7  O   UNL     1       3.591   2.970  18.053  0.00  0.00    +0.000 OA
ATOM      8  C   UNL     1       2.667   3.189  19.132  0.00  0.00    +0.000 C 
ATOM      9  C   UNL     1       1.352   2.529  18.679  0.00  0.00    +0.000 C 
ATOM     10  C   UNL     1       3.277   2.414  20.313  0.00  0.00    +0.000 C 
ATOM     11  C   UNL     1       2.392   4.631  19.537  0.00  0.00    +0.000 A 
ATOM     12  C   UNL     1       1.546   4.899  20.640  0.00  0.00    +0.000 A 
ATOM     13  C   UNL     1       1.244   6.201  21.025  0.00  0.00    +0.000 A 
ATOM     14  C   UNL     1       1.783   7.263  20.312  0.00  0.00    +0.000 A 
ATOM     15  C   UNL     1       1.478   8.685  20.675  0.00  0.00    +0.000 C 
ATOM     16  C   UNL     1       2.623   6.997  19.224  0.00  0.00    +0.000 A 
ATOM     17  C   UNL     1       2.949   5.691  18.802  0.00  0.00    +0.000 A 
ENDROOT
BRANCH   3  18
ATOM     18  O   UNL     1       4.268   7.673  16.972  0.00  0.00    +0.000 OA
ATOM     19  H   UNL     1       5.028   8.148  16.599  0.00  0.00    +0.000 HD
ENDBRANCH   3  18
BRANCH   1  20
ATOM     20  C   UNL     1       6.375   4.193  14.303  0.00  0.00    +0.000 C 
BRANCH  20  21
ATOM     21  C   UNL     1       5.553   3.675  13.122  0.00  0.00    +0.000 C 
BRANCH  21  22
ATOM     22  C   UNL     1       6.358   3.733  11.829  0.00  0.00    +0.000 C 
BRANCH  22  23
ATOM     23  C   UNL     1       7.476   2.694  11.839  0.00  0.00    +0.000 C 
BRANCH  23  24
ATOM     24  C   UNL     1       7.200   1.598  10.815  0.00  0.00    +0.000 C 
BRANCH  24  26
ATOM     25  C   UNL     1       6.122  -0.606  11.338  0.00  0.00    +0.000 C 
ATOM     26  C   UNL     1       5.889   0.879  11.116  0.00  0.00    +0.000 C 
ENDBRANCH  24  26
ENDBRANCH  23  24
ENDBRANCH  22  23
ENDBRANCH  21  22
ENDBRANCH  20  21
ENDBRANCH   1  20
TORSDOF 7
ENDMDL
MODEL 4
REMARK VINA RESULT:      -7.2      3.984      6.841
REMARK  Name = 
REMARK  11 active torsions:
REMARK  status: ('A' for Active; 'I' for Inactive)
REMARK    1  A    between atoms: C_1  and  C_2
REMARK    2  A    between atoms: C_2  and  C_3
REMARK    3  A    between atoms: C_3  and  C_4
REMARK    4  A    between atoms: C_4  and  C_5
REMARK    5  A    between atoms: C_5  and  C_6
REMARK    6  A    between atoms: C_6  and  C_7
REMARK    7  A    between atoms: C_7  and  C_8
REMARK    8  A    between atoms: C_10  and  O_11
REMARK    9  A    between atoms: C_16  and  C_17
REMARK   10  A    between atoms: C_16  and  C_18
REMARK   11  A    between atoms: C_22  and  C_23
REMARK                            x       y       z     vdW  Elec       q    Type
REMARK                         _______ _______ _______ _____ _____    ______ ____
ROOT
ATOM      1  C   UNL     1       3.000   6.490  18.710  0.00  0.00    +0.000 A 
ATOM      2  C   UNL     1       2.874   7.498  17.758  0.00  0.00    +0.000 A 
ATOM      3  C   UNL     1       2.204   8.690  18.056  0.00  0.00    +0.000 A 
ATOM      4  C   UNL     1       1.615   8.927  19.319  0.00  0.00    +0.000 A 
ATOM      5  C   UNL     1       1.748   7.888  20.257  0.00  0.00    +0.000 A 
ATOM      6  C   UNL     1       2.427   6.694  19.962  0.00  0.00    +0.000 A 
ATOM      7  O   UNL     1       1.259   7.920  21.530  0.00  0.00    +0.000 OA
ATOM      8  C   UNL     1       0.469   9.039  21.966  0.00  0.00    +0.000 C 
ATOM      9  C   UNL     1      -0.928   8.460  22.252  0.00  0.00    +0.000 C 
ATOM     10  C   UNL     1       1.142   9.486  23.277  0.00  0.00    +0.000 C 
ATOM     11  C   UNL     1       0.339  10.219  21.014  0.00  0.00    +0.000 A 
ATOM     12  C   UNL     1      -0.368  11.375  21.424  0.00  0.00    +0.000 A 
ATOM     13  C   UNL     1      -0.537  12.463  20.575  0.00  0.00    +0.000 A 
ATOM     14  C   UNL     1      -0.001  12.417  19.296  0.00  0.00    +0.000 A 
ATOM     15  C   UNL     1      -0.167  13.556  18.335  0.00  0.00    +0.000 C 
ATOM     16  C   UNL     1       0.701  11.275  18.892  0.00  0.00    +0.000 A 
ATOM     17  C   UNL     1       0.890  10.152  19.723  0.00  0.00    +0.000 A 
ENDROOT
BRANCH   3  18
ATOM     18  O   UNL     1       2.149   9.618  17.049  0.00  0.00    +0.000 OA
ATOM     19  H   UNL     1       2.160  10.511  17.428  0.00  0.00    +0.000 HD
ENDBRANCH   3  18
BRANCH   1  20
ATOM     20  C   UNL     1       3.721   5.211  18.382  0.00  0.00    +0.000 C 
BRANCH  20  21
ATOM     21  C   UNL     1       2.958   4.377  17.351  0.00  0.00    +0.000 C 
BRANCH  21  22
ATOM     22  C   UNL     1       1.511   4.169  17.781  0.00  0.00    +0.000 C 
BRANCH  22  23
ATOM     23  C   UNL     1       1.397   3.008  18.764  0.00  0.00    +0.000 C 
BRANCH  23  24
ATOM     24  C   UNL     1       0.725   3.461  20.056  0.00  0.00    +0.000 C 
BRANCH  24  26
ATOM     25  C   UNL     1       2.895   2.759  21.099  0.00  0.00    +0.000 C 
ATOM     26  C   UNL     1       1.387   2.829  21.275  0.00  0.00    +0.000 C 
ENDBRANCH  24  26
ENDBRANCH  23  24
ENDBRANCH  22  23
ENDBRANCH  21  22
ENDBRANCH  20  21
ENDBRANCH   1  20
TORSDOF 7
ENDMDL
MODEL 5
REMARK VINA RESULT:      -7.2      1.768      7.037
REMARK  Name = 
REMARK  11 active torsions:
REMARK  status: ('A' for Active; 'I' for Inactive)
REMARK    1  A    between atoms: C_1  and  C_2
REMARK    2  A    between atoms: C_2  and  C_3
REMARK    3  A    between atoms: C_3  and  C_4
REMARK    4  A    between atoms: C_4  and  C_5
REMARK    5  A    between atoms: C_5  and  C_6
REMARK    6  A    between atoms: C_6  and  C_7
REMARK    7  A    between atoms: C_7  and  C_8
REMARK    8  A    between atoms: C_10  and  O_11
REMARK    9  A    between atoms: C_16  and  C_17
REMARK   10  A    between atoms: C_16  and  C_18
REMARK   11  A    between atoms: C_22  and  C_23
REMARK                            x       y       z     vdW  Elec       q    Type
REMARK                         _______ _______ _______ _____ _____    ______ ____
ROOT
ATOM      1  C   UNL     1       3.071   3.005  19.726  0.00  0.00    +0.000 A 
ATOM      2  C   UNL     1       2.557   2.684  18.473  0.00  0.00    +0.000 A 
ATOM      3  C   UNL     1       3.271   2.978  17.305  0.00  0.00    +0.000 A 
ATOM      4  C   UNL     1       4.529   3.620  17.333  0.00  0.00    +0.000 A 
ATOM      5  C   UNL     1       5.019   3.943  18.612  0.00  0.00    +0.000 A 
ATOM      6  C   UNL     1       4.308   3.641  19.785  0.00  0.00    +0.000 A 
ATOM      7  O   UNL     1       6.212   4.557  18.857  0.00  0.00    +0.000 OA
ATOM      8  C   UNL     1       7.026   5.005  17.760  0.00  0.00    +0.000 C 
ATOM      9  C   UNL     1       7.073   6.538  17.891  0.00  0.00    +0.000 C 
ATOM     10  C   UNL     1       8.412   4.401  18.050  0.00  0.00    +0.000 C 
ATOM     11  C   UNL     1       6.576   4.633  16.355  0.00  0.00    +0.000 A 
ATOM     12  C   UNL     1       7.379   4.988  15.245  0.00  0.00    +0.000 A 
ATOM     13  C   UNL     1       6.990   4.695  13.942  0.00  0.00    +0.000 A 
ATOM     14  C   UNL     1       5.787   4.041  13.723  0.00  0.00    +0.000 A 
ATOM     15  C   UNL     1       5.312   3.715  12.338  0.00  0.00    +0.000 C 
ATOM     16  C   UNL     1       4.993   3.687  14.822  0.00  0.00    +0.000 A 
ATOM     17  C   UNL     1       5.353   3.970  16.155  0.00  0.00    +0.000 A 
ENDROOT
BRANCH   3  18
ATOM     18  O   UNL     1       2.676   2.608  16.127  0.00  0.00    +0.000 OA
ATOM     19  H   UNL     1       3.322   2.149  15.566  0.00  0.00    +0.000 HD
ENDBRANCH   3  18
BRANCH   1  20
ATOM     20  C   UNL     1       2.298   2.687  20.977  0.00  0.00    +0.000 C 
BRANCH  20  21
ATOM     21  C   UNL     1       1.578   3.918  21.528  0.00  0.00    +0.000 C 
BRANCH  21  22
ATOM     22  C   UNL     1       1.311   4.934  20.424  0.00  0.00    +0.000 C 
BRANCH  22  23
ATOM     23  C   UNL     1       1.499   6.359  20.939  0.00  0.00    +0.000 C 
BRANCH  23  24
ATOM     24  C   UNL     1       2.180   7.225  19.885  0.00  0.00    +0.000 C 
BRANCH  24  26
ATOM     25  C   UNL     1       3.413   7.127  17.703  0.00  0.00    +0.000 C 
ATOM     26  C   UNL     1       2.361   6.464  18.576  0.00  0.00    +0.000 C 
ENDBRANCH  24  26
ENDBRANCH  23  24
ENDBRANCH  22  23
ENDBRANCH  21  22
ENDBRANCH  20  21
ENDBRANCH   1  20
TORSDOF 7
ENDMDL
MODEL 6
REMARK VINA RESULT:      -7.1      2.995      8.901
REMARK  Name = 
REMARK  11 active torsions:
REMARK  status: ('A' for Active; 'I' for Inactive)
REMARK    1  A    between atoms: C_1  and  C_2
REMARK    2  A    between atoms: C_2  and  C_3
REMARK    3  A    between atoms: C_3  and  C_4
REMARK    4  A    between atoms: C_4  and  C_5
REMARK    5  A    between atoms: C_5  and  C_6
REMARK    6  A    between atoms: C_6  and  C_7
REMARK    7  A    between atoms: C_7  and  C_8
REMARK    8  A    between atoms: C_10  and  O_11
REMARK    9  A    between atoms: C_16  and  C_17
REMARK   10  A    between atoms: C_16  and  C_18
REMARK   11  A    between atoms: C_22  and  C_23
REMARK                            x       y       z     vdW  Elec       q    Type
REMARK                         _______ _______ _______ _____ _____    ______ ____
ROOT
ATOM      1  C   UNL     1       1.141   8.523  20.484  0.00  0.00    +0.000 A 
ATOM      2  C   UNL     1       1.961   8.748  19.382  0.00  0.00    +0.000 A 
ATOM      3  C   UNL     1       2.573   7.684  18.711  0.00  0.00    +0.000 A 
ATOM      4  C   UNL     1       2.405   6.341  19.117  0.00  0.00    +0.000 A 
ATOM      5  C   UNL     1       1.581   6.143  20.240  0.00  0.00    +0.000 A 
ATOM      6  C   UNL     1       0.959   7.211  20.910  0.00  0.00    +0.000 A 
ATOM      7  O   UNL     1       1.286   4.929  20.785  0.00  0.00    +0.000 OA
ATOM      8  C   UNL     1       1.905   3.740  20.267  0.00  0.00    +0.000 C 
ATOM      9  C   UNL     1       2.773   3.201  21.418  0.00  0.00    +0.000 C 
ATOM     10  C   UNL     1       0.726   2.790  19.994  0.00  0.00    +0.000 C 
ATOM     11  C   UNL     1       2.762   3.885  19.017  0.00  0.00    +0.000 A 
ATOM     12  C   UNL     1       3.336   2.735  18.424  0.00  0.00    +0.000 A 
ATOM     13  C   UNL     1       4.150   2.824  17.301  0.00  0.00    +0.000 A 
ATOM     14  C   UNL     1       4.407   4.069  16.746  0.00  0.00    +0.000 A 
ATOM     15  C   UNL     1       5.290   4.225  15.544  0.00  0.00    +0.000 C 
ATOM     16  C   UNL     1       3.836   5.207  17.330  0.00  0.00    +0.000 A 
ATOM     17  C   UNL     1       3.010   5.156  18.471  0.00  0.00    +0.000 A 
ENDROOT
BRANCH   3  18
ATOM     18  O   UNL     1       3.349   8.019  17.632  0.00  0.00    +0.000 OA
ATOM     19  H   UNL     1       2.809   8.015  16.827  0.00  0.00    +0.000 HD
ENDBRANCH   3  18
BRANCH   1  20
ATOM     20  C   UNL     1       0.487   9.673  21.202  0.00  0.00    +0.000 C 
BRANCH  20  21
ATOM     21  C   UNL     1       0.039   9.282  22.611  0.00  0.00    +0.000 C 
BRANCH  21  22
ATOM     22  C   UNL     1      -0.889  10.337  23.201  0.00  0.00    +0.000 C 
BRANCH  22  23
ATOM     23  C   UNL     1      -0.830  11.628  22.389  0.00  0.00    +0.000 C 
BRANCH  23  24
ATOM     24  C   UNL     1      -1.623  12.733  23.080  0.00  0.00    +0.000 C 
BRANCH  24  26
ATOM     25  C   UNL     1      -3.846  13.405  24.026  0.00  0.00    +0.000 C 
ATOM     26  C   UNL     1      -3.043  12.278  23.399  0.00  0.00    +0.000 C 
ENDBRANCH  24  26
ENDBRANCH  23  24
ENDBRANCH  22  23
ENDBRANCH  21  22
ENDBRANCH  20  21
ENDBRANCH   1  20
TORSDOF 7
ENDMDL
MODEL 7
REMARK VINA RESULT:      -7.1      2.769      7.373
REMARK  Name = 
REMARK  11 active torsions:
REMARK  status: ('A' for Active; 'I' for Inactive)
REMARK    1  A    between atoms: C_1  and  C_2
REMARK    2  A    between atoms: C_2  and  C_3
REMARK    3  A    between atoms: C_3  and  C_4
REMARK    4  A    between atoms: C_4  and  C_5
REMARK    5  A    between atoms: C_5  and  C_6
REMARK    6  A    between atoms: C_6  and  C_7
REMARK    7  A    between atoms: C_7  and  C_8
REMARK    8  A    between atoms: C_10  and  O_11
REMARK    9  A    between atoms: C_16  and  C_17
REMARK   10  A    between atoms: C_16  and  C_18
REMARK   11  A    between atoms: C_22  and  C_23
REMARK                            x       y       z     vdW  Elec       q    Type
REMARK                         _______ _______ _______ _____ _____    ______ ____
ROOT
ATOM      1  C   UNL     1       1.159   8.633  20.445  0.00  0.00    +0.000 A 
ATOM      2  C   UNL     1       1.982   8.826  19.340  0.00  0.00    +0.000 A 
ATOM      3  C   UNL     1       2.580   7.741  18.689  0.00  0.00    +0.000 A 
ATOM      4  C   UNL     1       2.392   6.408  19.120  0.00  0.00    +0.000 A 
ATOM      5  C   UNL     1       1.564   6.243  20.245  0.00  0.00    +0.000 A 
ATOM      6  C   UNL     1       0.958   7.331  20.895  0.00  0.00    +0.000 A 
ATOM      7  O   UNL     1       1.252   5.044  20.813  0.00  0.00    +0.000 OA
ATOM      8  C   UNL     1       1.855   3.837  20.317  0.00  0.00    +0.000 C 
ATOM      9  C   UNL     1       2.714   3.307  21.480  0.00  0.00    +0.000 C 
ATOM     10  C   UNL     1       0.662   2.898  20.061  0.00  0.00    +0.000 C 
ATOM     11  C   UNL     1       2.715   3.946  19.066  0.00  0.00    +0.000 A 
ATOM     12  C   UNL     1       3.273   2.777  18.496  0.00  0.00    +0.000 A 
ATOM     13  C   UNL     1       4.089   2.834  17.371  0.00  0.00    +0.000 A 
ATOM     14  C   UNL     1       4.364   4.065  16.794  0.00  0.00    +0.000 A 
ATOM     15  C   UNL     1       5.251   4.185  15.590  0.00  0.00    +0.000 C 
ATOM     16  C   UNL     1       3.809   5.221  17.356  0.00  0.00    +0.000 A 
ATOM     17  C   UNL     1       2.981   5.202  18.497  0.00  0.00    +0.000 A 
ENDROOT
BRANCH   3  18
ATOM     18  O   UNL     1       3.362   8.045  17.606  0.00  0.00    +0.000 OA
ATOM     19  H   UNL     1       4.141   8.546  17.896  0.00  0.00    +0.000 HD
ENDBRANCH   3  18
BRANCH   1  20
ATOM     20  C   UNL     1       0.521   9.805  21.141  0.00  0.00    +0.000 C 
BRANCH  20  21
ATOM     21  C   UNL     1       0.243  10.956  20.174  0.00  0.00    +0.000 C 
BRANCH  21  22
ATOM     22  C   UNL     1      -1.146  11.540  20.404  0.00  0.00    +0.000 C 
BRANCH  22  23
ATOM     23  C   UNL     1      -1.943  11.574  19.104  0.00  0.00    +0.000 C 
BRANCH  23  24
ATOM     24  C   UNL     1      -1.550  10.408  18.202  0.00  0.00    +0.000 C 
BRANCH  24  26
ATOM     25  C   UNL     1      -2.612   9.966  15.973  0.00  0.00    +0.000 C 
ATOM     26  C   UNL     1      -2.765   9.835  17.479  0.00  0.00    +0.000 C 
ENDBRANCH  24  26
ENDBRANCH  23  24
ENDBRANCH  22  23
ENDBRANCH  21  22
ENDBRANCH  20  21
ENDBRANCH   1  20
TORSDOF 7
ENDMDL
MODEL 8
REMARK VINA RESULT:      -7.1      3.538      6.367
REMARK  Name = 
REMARK  11 active torsions:
REMARK  status: ('A' for Active; 'I' for Inactive)
REMARK    1  A    between atoms: C_1  and  C_2
REMARK    2  A    between atoms: C_2  and  C_3
REMARK    3  A    between atoms: C_3  and  C_4
REMARK    4  A    between atoms: C_4  and  C_5
REMARK    5  A    between atoms: C_5  and  C_6
REMARK    6  A    between atoms: C_6  and  C_7
REMARK    7  A    between atoms: C_7  and  C_8
REMARK    8  A    between atoms: C_10  and  O_11
REMARK    9  A    between atoms: C_16  and  C_17
REMARK   10  A    between atoms: C_16  and  C_18
REMARK   11  A    between atoms: C_22  and  C_23
REMARK                            x       y       z     vdW  Elec       q    Type
REMARK                         _______ _______ _______ _____ _____    ______ ____
ROOT
ATOM      1  C   UNL     1       3.426   5.968  17.898  0.00  0.00    +0.000 A 
ATOM      2  C   UNL     1       3.231   5.686  19.247  0.00  0.00    +0.000 A 
ATOM      3  C   UNL     1       2.521   6.568  20.071  0.00  0.00    +0.000 A 
ATOM      4  C   UNL     1       1.982   7.781  19.588  0.00  0.00    +0.000 A 
ATOM      5  C   UNL     1       2.203   8.045  18.224  0.00  0.00    +0.000 A 
ATOM      6  C   UNL     1       2.909   7.158  17.394  0.00  0.00    +0.000 A 
ATOM      7  O   UNL     1       1.762   9.153  17.563  0.00  0.00    +0.000 OA
ATOM      8  C   UNL     1       1.091  10.199  18.286  0.00  0.00    +0.000 C 
ATOM      9  C   UNL     1       2.014  11.426  18.171  0.00  0.00    +0.000 C 
ATOM     10  C   UNL     1      -0.208  10.430  17.493  0.00  0.00    +0.000 C 
ATOM     11  C   UNL     1       0.773   9.945  19.752  0.00  0.00    +0.000 A 
ATOM     12  C   UNL     1       0.050  10.912  20.490  0.00  0.00    +0.000 A 
ATOM     13  C   UNL     1      -0.236  10.734  21.839  0.00  0.00    +0.000 A 
ATOM     14  C   UNL     1       0.197   9.582  22.479  0.00  0.00    +0.000 A 
ATOM     15  C   UNL     1      -0.071   9.347  23.936  0.00  0.00    +0.000 C 
ATOM     16  C   UNL     1       0.909   8.623  21.748  0.00  0.00    +0.000 A 
ATOM     17  C   UNL     1       1.220   8.770  20.381  0.00  0.00    +0.000 A 
ENDROOT
BRANCH   3  18
ATOM     18  O   UNL     1       2.379   6.186  21.380  0.00  0.00    +0.000 OA
ATOM     19  H   UNL     1       1.648   6.678  21.785  0.00  0.00    +0.000 HD
ENDBRANCH   3  18
BRANCH   1  20
ATOM     20  C   UNL     1       4.192   5.016  17.019  0.00  0.00    +0.000 C 
BRANCH  20  21
ATOM     21  C   UNL     1       4.072   3.572  17.506  0.00  0.00    +0.000 C 
BRANCH  21  22
ATOM     22  C   UNL     1       2.668   3.030  17.266  0.00  0.00    +0.000 C 
BRANCH  22  23
ATOM     23  C   UNL     1       2.200   2.189  18.451  0.00  0.00    +0.000 C 
BRANCH  23  24
ATOM     24  C   UNL     1       0.831   2.657  18.933  0.00  0.00    +0.000 C 
BRANCH  24  26
ATOM     25  C   UNL     1       2.185   2.667  21.045  0.00  0.00    +0.000 C 
ATOM     26  C   UNL     1       0.878   3.091  20.395  0.00  0.00    +0.000 C 
ENDBRANCH  24  26
ENDBRANCH  23  24
ENDBRANCH  22  23
ENDBRANCH  21  22
ENDBRANCH  20  21
ENDBRANCH   1  20
TORSDOF 7
ENDMDL
MODEL 9
REMARK VINA RESULT:      -7.0      1.901      7.257
REMARK  Name = 
REMARK  11 active torsions:
REMARK  status: ('A' for Active; 'I' for Inactive)
REMARK    1  A    between atoms: C_1  and  C_2
REMARK    2  A    between atoms: C_2  and  C_3
REMARK    3  A    between atoms: C_3  and  C_4
REMARK    4  A    between atoms: C_4  and  C_5
REMARK    5  A    between atoms: C_5  and  C_6
REMARK    6  A    between atoms: C_6  and  C_7
REMARK    7  A    between atoms: C_7  and  C_8
REMARK    8  A    between atoms: C_10  and  O_11
REMARK    9  A    between atoms: C_16  and  C_17
REMARK   10  A    between atoms: C_16  and  C_18
REMARK   11  A    between atoms: C_22  and  C_23
REMARK                            x       y       z     vdW  Elec       q    Type
REMARK                         _______ _______ _______ _____ _____    ______ ____
ROOT
ATOM      1  C   UNL     1       2.534   5.082  19.731  0.00  0.00    +0.000 A 
ATOM      2  C   UNL     1       2.054   4.517  18.553  0.00  0.00    +0.000 A 
ATOM      3  C   UNL     1       2.885   4.362  17.438  0.00  0.00    +0.000 A 
ATOM      4  C   UNL     1       4.236   4.776  17.442  0.00  0.00    +0.000 A 
ATOM      5  C   UNL     1       4.691   5.353  18.641  0.00  0.00    +0.000 A 
ATOM      6  C   UNL     1       3.860   5.502  19.764  0.00  0.00    +0.000 A 
ATOM      7  O   UNL     1       5.958   5.810  18.853  0.00  0.00    +0.000 OA
ATOM      8  C   UNL     1       6.912   5.805  17.778  0.00  0.00    +0.000 C 
ATOM      9  C   UNL     1       7.233   7.287  17.514  0.00  0.00    +0.000 C 
ATOM     10  C   UNL     1       8.140   5.088  18.368  0.00  0.00    +0.000 C 
ATOM     11  C   UNL     1       6.494   5.140  16.474  0.00  0.00    +0.000 A 
ATOM     12  C   UNL     1       7.421   5.044  15.409  0.00  0.00    +0.000 A 
ATOM     13  C   UNL     1       7.072   4.472  14.190  0.00  0.00    +0.000 A 
ATOM     14  C   UNL     1       5.785   3.986  14.012  0.00  0.00    +0.000 A 
ATOM     15  C   UNL     1       5.351   3.375  12.713  0.00  0.00    +0.000 C 
ATOM     16  C   UNL     1       4.869   4.078  15.067  0.00  0.00    +0.000 A 
ATOM     17  C   UNL     1       5.186   4.653  16.315  0.00  0.00    +0.000 A 
ENDROOT
BRANCH   3  18
ATOM     18  O   UNL     1       2.311   3.784  16.335  0.00  0.00    +0.000 OA
ATOM     19  H   UNL     1       2.997   3.360  15.795  0.00  0.00    +0.000 HD
ENDBRANCH   3  18
BRANCH   1  20
ATOM     20  C   UNL     1       1.634   5.246  20.926  0.00  0.00    +0.000 C 
BRANCH  20  21
ATOM     21  C   UNL     1       0.679   6.428  20.758  0.00  0.00    +0.000 C 
BRANCH  21  22
ATOM     22  C   UNL     1       1.406   7.751  20.964  0.00  0.00    +0.000 C 
BRANCH  22  23
ATOM     23  C   UNL     1       0.609   8.908  20.367  0.00  0.00    +0.000 C 
BRANCH  23  24
ATOM     24  C   UNL     1       1.486   9.741  19.438  0.00  0.00    +0.000 C 
BRANCH  24  26
ATOM     25  C   UNL     1       2.518   8.291  17.670  0.00  0.00    +0.000 C 
ATOM     26  C   UNL     1       1.386   9.251  17.997  0.00  0.00    +0.000 C 
ENDBRANCH  24  26
ENDBRANCH  23  24
ENDBRANCH  22  23
ENDBRANCH  21  22
ENDBRANCH  20  21
ENDBRANCH   1  20
TORSDOF 7
ENDMDL
