MODEL 1
REMARK VINA RESULT:      -9.0      0.000      0.000
REMARK  Name = 
REMARK  4 active torsions:
REMARK  status: ('A' for Active; 'I' for Inactive)
REMARK    1  A    between atoms: C_1  and  C_2
REMARK    2  A    between atoms: C_2  and  N_3
REMARK    3  A    between atoms: C_2  and  C_21
REMARK    4  A    between atoms: C_12  and  C_13
REMARK                            x       y       z     vdW  Elec       q    Type
REMARK                         _______ _______ _______ _____ _____    ______ ____
ROOT
ATOM      1  N   UNL     1       3.689   5.536  18.157  0.00  0.00    +0.000 N 
ATOM      2  C   UNL     1       4.098   6.321  17.128  0.00  0.00    +0.000 C 
ATOM      3  O   UNL     1       4.793   5.918  16.201  0.00  0.00    +0.000 OA
ATOM      4  N   UNL     1       3.641   7.616  17.138  0.00  0.00    +0.000 N 
ATOM      5  C   UNL     1       2.809   8.208  18.096  0.00  0.00    +0.000 A 
ATOM      6  C   UNL     1       2.179   9.410  17.800  0.00  0.00    +0.000 A 
ATOM      7  C   UNL     1       1.241   9.828  18.750  0.00  0.00    +0.000 A 
ATOM      8  N   UNL     1       0.376  10.888  18.783  0.00  0.00    +0.000 N 
ATOM      9  N   UNL     1      -0.425  10.912  19.863  0.00  0.00    +0.000 NA
ATOM     10  C   UNL     1      -0.033   9.853  20.580  0.00  0.00    +0.000 A 
ATOM     11  C   UNL     1       1.004   9.139  19.937  0.00  0.00    +0.000 A 
ATOM     12  C   UNL     1       1.758   7.999  20.188  0.00  0.00    +0.000 A 
ATOM     13  N   UNL     1       2.616   7.540  19.255  0.00  0.00    +0.000 NA
ATOM     14  H   UNL     1       3.175   6.018  18.889  0.00  0.00    +0.000 HD
ATOM     15  H   UNL     1       3.881   8.134  16.305  0.00  0.00    +0.000 HD
ATOM     16  H   UNL     1       0.261  11.617  18.087  0.00  0.00    +0.000 HD
ENDROOT
BRANCH  10  17
ATOM     17  C   UNL     1      -0.722   9.534  21.898  0.00  0.00    +0.000 C 
ATOM     18  C   UNL     1       0.057   9.514  23.210  0.00  0.00    +0.000 C 
ATOM     19  C   UNL     1      -0.902  10.597  22.925  0.00  0.00    +0.000 C 
ATOM     20  F   UNL     1      -2.070  10.673  23.648  0.00  0.00    +0.000 F 
ATOM     21  F   UNL     1      -0.459  11.885  22.742  0.00  0.00    +0.000 F 
ENDBRANCH  10  17
BRANCH   1  23
ATOM     22  C   UNL     1       3.578   3.385  16.982  0.00  0.00    +0.000 C 
ATOM     23  C   UNL     1       3.894   4.116  18.290  0.00  0.00    +0.000 C 
BRANCH  23  24
ATOM     24  C   UNL     1       3.044   3.574  19.436  0.00  0.00    +0.000 A 
ATOM     25  C   UNL     1       1.677   3.890  19.487  0.00  0.00    +0.000 A 
ATOM     26  C   UNL     1       0.889   3.466  20.559  0.00  0.00    +0.000 A 
ATOM     27  C   UNL     1       1.459   2.710  21.575  0.00  0.00    +0.000 A 
ATOM     28  F   UNL     1       0.709   2.333  22.620  0.00  0.00    +0.000 F 
ATOM     29  C   UNL     1       2.798   2.344  21.526  0.00  0.00    +0.000 A 
ATOM     30  C   UNL     1       3.587   2.766  20.453  0.00  0.00    +0.000 A 
ENDBRANCH  23  24
ENDBRANCH   1  23
TORSDOF 3
ENDMDL
MODEL 2
REMARK VINA RESULT:      -8.6      3.851      8.618
REMARK  Name = 
REMARK  4 active torsions:
REMARK  status: ('A' for Active; 'I' for Inactive)
REMARK    1  A    between atoms: C_1  and  C_2
REMARK    2  A    between atoms: C_2  and  N_3
REMARK    3  A    between atoms: C_2  and  C_21
REMARK    4  A    between atoms: C_12  and  C_13
REMARK                            x       y       z     vdW  Elec       q    Type
REMARK                         _______ _______ _______ _____ _____    ______ ____
ROOT
ATOM      1  N   UNL     1       0.979   9.049  19.797  0.00  0.00    +0.000 N 
ATOM      2  C   UNL     1       0.862   8.447  21.009  0.00  0.00    +0.000 C 
ATOM      3  O   UNL     1       0.181   8.894  21.926  0.00  0.00    +0.000 OA
ATOM      4  N   UNL     1       1.516   7.248  21.153  0.00  0.00    +0.000 N 
ATOM      5  C   UNL     1       2.289   6.589  20.189  0.00  0.00    +0.000 A 
ATOM      6  C   UNL     1       2.609   5.250  20.373  0.00  0.00    +0.000 A 
ATOM      7  C   UNL     1       3.236   4.643  19.279  0.00  0.00    +0.000 A 
ATOM      8  N   UNL     1       3.625   3.353  19.043  0.00  0.00    +0.000 N 
ATOM      9  N   UNL     1       4.147   3.150  17.820  0.00  0.00    +0.000 NA
ATOM     10  C   UNL     1       4.137   4.364  17.259  0.00  0.00    +0.000 A 
ATOM     11  C   UNL     1       3.581   5.337  18.121  0.00  0.00    +0.000 A 
ATOM     12  C   UNL     1       3.308   6.698  18.074  0.00  0.00    +0.000 A 
ATOM     13  N   UNL     1       2.643   7.288  19.087  0.00  0.00    +0.000 NA
ATOM     14  H   UNL     1       1.628   8.603  19.156  0.00  0.00    +0.000 HD
ATOM     15  H   UNL     1       1.319   6.784  22.028  0.00  0.00    +0.000 HD
ATOM     16  H   UNL     1       3.539   2.555  19.663  0.00  0.00    +0.000 HD
ENDROOT
BRANCH  10  17
ATOM     17  C   UNL     1       4.654   4.547  15.840  0.00  0.00    +0.000 C 
ATOM     18  C   UNL     1       5.548   5.728  15.472  0.00  0.00    +0.000 C 
ATOM     19  C   UNL     1       6.102   4.364  15.542  0.00  0.00    +0.000 C 
ATOM     20  F   UNL     1       6.497   3.736  14.384  0.00  0.00    +0.000 F 
ATOM     21  F   UNL     1       7.021   4.037  16.510  0.00  0.00    +0.000 F 
ENDBRANCH  10  17
BRANCH   1  23
ATOM     22  C   UNL     1      -0.303  10.008  17.939  0.00  0.00    +0.000 C 
ATOM     23  C   UNL     1       0.267  10.216  19.345  0.00  0.00    +0.000 C 
BRANCH  23  24
ATOM     24  C   UNL     1       1.187  11.433  19.385  0.00  0.00    +0.000 A 
ATOM     25  C   UNL     1       1.283  12.185  20.567  0.00  0.00    +0.000 A 
ATOM     26  C   UNL     1       2.062  13.342  20.613  0.00  0.00    +0.000 A 
ATOM     27  C   UNL     1       2.762  13.745  19.484  0.00  0.00    +0.000 A 
ATOM     28  F   UNL     1       3.482  14.875  19.520  0.00  0.00    +0.000 F 
ATOM     29  C   UNL     1       2.723  12.995  18.315  0.00  0.00    +0.000 A 
ATOM     30  C   UNL     1       1.945  11.836  18.268  0.00  0.00    +0.000 A 
ENDBRANCH  23  24
ENDBRANCH   1  23
TORSDOF 3
ENDMDL
MODEL 3
REMARK VINA RESULT:      -8.6      3.861      8.317
REMARK  Name = 
REMARK  4 active torsions:
REMARK  status: ('A' for Active; 'I' for Inactive)
REMARK    1  A    between atoms: C_1  and  C_2
REMARK    2  A    between atoms: C_2  and  N_3
REMARK    3  A    between atoms: C_2  and  C_21
REMARK    4  A    between atoms: C_12  and  C_13
REMARK                            x       y       z     vdW  Elec       q    Type
REMARK                         _______ _______ _______ _____ _____    ______ ____
ROOT
ATOM      1  N   UNL     1       1.020   9.781  19.423  0.00  0.00    +0.000 N 
ATOM      2  C   UNL     1       0.649   9.301  20.638  0.00  0.00    +0.000 C 
ATOM      3  O   UNL     1      -0.068   9.914  21.421  0.00  0.00    +0.000 OA
ATOM      4  N   UNL     1       1.079   8.032  20.942  0.00  0.00    +0.000 N 
ATOM      5  C   UNL     1       1.860   7.192  20.139  0.00  0.00    +0.000 A 
ATOM      6  C   UNL     1       1.936   5.839  20.443  0.00  0.00    +0.000 A 
ATOM      7  C   UNL     1       2.598   5.061  19.486  0.00  0.00    +0.000 A 
ATOM      8  N   UNL     1       2.806   3.712  19.382  0.00  0.00    +0.000 N 
ATOM      9  N   UNL     1       3.446   3.338  18.260  0.00  0.00    +0.000 NA
ATOM     10  C   UNL     1       3.703   4.492  17.635  0.00  0.00    +0.000 A 
ATOM     11  C   UNL     1       3.199   5.602  18.352  0.00  0.00    +0.000 A 
ATOM     12  C   UNL     1       3.154   6.981  18.188  0.00  0.00    +0.000 A 
ATOM     13  N   UNL     1       2.463   7.741  19.061  0.00  0.00    +0.000 NA
ATOM     14  H   UNL     1       1.669   9.194  18.908  0.00  0.00    +0.000 HD
ATOM     15  H   UNL     1       0.697   7.673  21.805  0.00  0.00    +0.000 HD
ATOM     16  H   UNL     1       2.512   2.988  20.028  0.00  0.00    +0.000 HD
ENDROOT
BRANCH  10  17
ATOM     17  C   UNL     1       4.427   4.484  16.297  0.00  0.00    +0.000 C 
ATOM     18  C   UNL     1       5.345   5.633  15.889  0.00  0.00    +0.000 C 
ATOM     19  C   UNL     1       5.906   4.317  16.247  0.00  0.00    +0.000 C 
ATOM     20  F   UNL     1       6.484   3.541  15.269  0.00  0.00    +0.000 F 
ATOM     21  F   UNL     1       6.673   4.174  17.378  0.00  0.00    +0.000 F 
ENDBRANCH  10  17
BRANCH   1  23
ATOM     22  C   UNL     1       0.846  12.212  19.704  0.00  0.00    +0.000 C 
ATOM     23  C   UNL     1       0.568  11.002  18.807  0.00  0.00    +0.000 C 
BRANCH  23  24
ATOM     24  C   UNL     1      -0.918  10.899  18.477  0.00  0.00    +0.000 A 
ATOM     25  C   UNL     1      -1.353   9.929  17.559  0.00  0.00    +0.000 A 
ATOM     26  C   UNL     1      -2.695   9.855  17.185  0.00  0.00    +0.000 A 
ATOM     27  C   UNL     1      -3.613  10.739  17.738  0.00  0.00    +0.000 A 
ATOM     28  F   UNL     1      -4.895  10.689  17.352  0.00  0.00    +0.000 F 
ATOM     29  C   UNL     1      -3.219  11.677  18.683  0.00  0.00    +0.000 A 
ATOM     30  C   UNL     1      -1.875  11.751  19.060  0.00  0.00    +0.000 A 
ENDBRANCH  23  24
ENDBRANCH   1  23
TORSDOF 3
ENDMDL
MODEL 4
REMARK VINA RESULT:      -8.4      2.740      7.379
REMARK  Name = 
REMARK  4 active torsions:
REMARK  status: ('A' for Active; 'I' for Inactive)
REMARK    1  A    between atoms: C_1  and  C_2
REMARK    2  A    between atoms: C_2  and  N_3
REMARK    3  A    between atoms: C_2  and  C_21
REMARK    4  A    between atoms: C_12  and  C_13
REMARK                            x       y       z     vdW  Elec       q    Type
REMARK                         _______ _______ _______ _____ _____    ______ ____
ROOT
ATOM      1  N   UNL     1       1.192   9.356  18.843  0.00  0.00    +0.000 N 
ATOM      2  C   UNL     1       2.141   9.786  17.972  0.00  0.00    +0.000 C 
ATOM      3  O   UNL     1       2.254  10.953  17.611  0.00  0.00    +0.000 OA
ATOM      4  N   UNL     1       3.036   8.838  17.539  0.00  0.00    +0.000 N 
ATOM      5  C   UNL     1       3.066   7.484  17.894  0.00  0.00    +0.000 A 
ATOM      6  C   UNL     1       4.208   6.738  17.634  0.00  0.00    +0.000 A 
ATOM      7  C   UNL     1       4.202   5.449  18.178  0.00  0.00    +0.000 A 
ATOM      8  N   UNL     1       5.148   4.461  18.212  0.00  0.00    +0.000 N 
ATOM      9  N   UNL     1       4.777   3.366  18.899  0.00  0.00    +0.000 NA
ATOM     10  C   UNL     1       3.525   3.636  19.286  0.00  0.00    +0.000 A 
ATOM     11  C   UNL     1       3.111   4.921  18.865  0.00  0.00    +0.000 A 
ATOM     12  C   UNL     1       1.975   5.711  18.986  0.00  0.00    +0.000 A 
ATOM     13  N   UNL     1       1.985   6.980  18.531  0.00  0.00    +0.000 NA
ATOM     14  H   UNL     1       1.174   8.353  19.000  0.00  0.00    +0.000 HD
ATOM     15  H   UNL     1       3.784   9.217  16.978  0.00  0.00    +0.000 HD
ATOM     16  H   UNL     1       6.079   4.479  17.810  0.00  0.00    +0.000 HD
ENDROOT
BRANCH  10  17
ATOM     17  C   UNL     1       2.751   2.619  20.110  0.00  0.00    +0.000 C 
ATOM     18  C   UNL     1       3.311   2.075  21.422  0.00  0.00    +0.000 C 
ATOM     19  C   UNL     1       2.170   3.008  21.425  0.00  0.00    +0.000 C 
ATOM     20  F   UNL     1       0.926   2.552  21.796  0.00  0.00    +0.000 F 
ATOM     21  F   UNL     1       2.308   4.270  21.951  0.00  0.00    +0.000 F 
ENDBRANCH  10  17
BRANCH   1  23
ATOM     22  C   UNL     1      -0.154   9.525  20.887  0.00  0.00    +0.000 C 
ATOM     23  C   UNL     1       0.249  10.176  19.561  0.00  0.00    +0.000 C 
BRANCH  23  24
ATOM     24  C   UNL     1      -0.975  10.444  18.690  0.00  0.00    +0.000 A 
ATOM     25  C   UNL     1      -1.895  11.430  19.081  0.00  0.00    +0.000 A 
ATOM     26  C   UNL     1      -3.058  11.651  18.343  0.00  0.00    +0.000 A 
ATOM     27  C   UNL     1      -3.301  10.898  17.201  0.00  0.00    +0.000 A 
ATOM     28  F   UNL     1      -4.436  11.087  16.513  0.00  0.00    +0.000 F 
ATOM     29  C   UNL     1      -2.387   9.948  16.765  0.00  0.00    +0.000 A 
ATOM     30  C   UNL     1      -1.220   9.728  17.502  0.00  0.00    +0.000 A 
ENDBRANCH  23  24
ENDBRANCH   1  23
TORSDOF 3
ENDMDL
MODEL 5
REMARK VINA RESULT:      -8.4      0.947      1.044
REMARK  Name = 
REMARK  4 active torsions:
REMARK  status: ('A' for Active; 'I' for Inactive)
REMARK    1  A    between atoms: C_1  and  C_2
REMARK    2  A    between atoms: C_2  and  N_3
REMARK    3  A    between atoms: C_2  and  C_21
REMARK    4  A    between atoms: C_12  and  C_13
REMARK                            x       y       z     vdW  Elec       q    Type
REMARK                         _______ _______ _______ _____ _____    ______ ____
ROOT
ATOM      1  N   UNL     1       3.659   5.029  17.922  0.00  0.00    +0.000 N 
ATOM      2  C   UNL     1       4.298   5.738  16.957  0.00  0.00    +0.000 C 
ATOM      3  O   UNL     1       5.021   5.229  16.106  0.00  0.00    +0.000 OA
ATOM      4  N   UNL     1       4.053   7.089  16.937  0.00  0.00    +0.000 N 
ATOM      5  C   UNL     1       3.222   7.807  17.807  0.00  0.00    +0.000 A 
ATOM      6  C   UNL     1       2.826   9.092  17.462  0.00  0.00    +0.000 A 
ATOM      7  C   UNL     1       1.865   9.656  18.310  0.00  0.00    +0.000 A 
ATOM      8  N   UNL     1       1.180  10.839  18.264  0.00  0.00    +0.000 N 
ATOM      9  N   UNL     1       0.276  10.991  19.249  0.00  0.00    +0.000 NA
ATOM     10  C   UNL     1       0.414   9.884  19.988  0.00  0.00    +0.000 A 
ATOM     11  C   UNL     1       1.392   9.013  19.452  0.00  0.00    +0.000 A 
ATOM     12  C   UNL     1       1.924   7.770  19.766  0.00  0.00    +0.000 A 
ATOM     13  N   UNL     1       2.798   7.179  18.927  0.00  0.00    +0.000 NA
ATOM     14  H   UNL     1       3.148   5.587  18.599  0.00  0.00    +0.000 HD
ATOM     15  H   UNL     1       4.462   7.562  16.145  0.00  0.00    +0.000 HD
ATOM     16  H   UNL     1       1.259  11.575  17.572  0.00  0.00    +0.000 HD
ENDROOT
BRANCH  10  17
ATOM     17  C   UNL     1      -0.459   9.679  21.216  0.00  0.00    +0.000 C 
ATOM     18  C   UNL     1      -0.588   8.308  21.873  0.00  0.00    +0.000 C 
ATOM     19  C   UNL     1       0.164   9.389  22.537  0.00  0.00    +0.000 C 
ATOM     20  F   UNL     1      -0.342   9.958  23.683  0.00  0.00    +0.000 F 
ATOM     21  F   UNL     1       1.524   9.285  22.707  0.00  0.00    +0.000 F 
ENDBRANCH  10  17
BRANCH   1  23
ATOM     22  C   UNL     1       3.002   2.940  16.815  0.00  0.00    +0.000 C 
ATOM     23  C   UNL     1       3.621   3.595  18.053  0.00  0.00    +0.000 C 
BRANCH  23  24
ATOM     24  C   UNL     1       2.854   3.209  19.315  0.00  0.00    +0.000 A 
ATOM     25  C   UNL     1       1.467   3.424  19.370  0.00  0.00    +0.000 A 
ATOM     26  C   UNL     1       0.750   3.146  20.534  0.00  0.00    +0.000 A 
ATOM     27  C   UNL     1       1.411   2.634  21.643  0.00  0.00    +0.000 A 
ATOM     28  F   UNL     1       0.726   2.399  22.771  0.00  0.00    +0.000 F 
ATOM     29  C   UNL     1       2.773   2.367  21.601  0.00  0.00    +0.000 A 
ATOM     30  C   UNL     1       3.493   2.644  20.436  0.00  0.00    +0.000 A 
ENDBRANCH  23  24
ENDBRANCH   1  23
TORSDOF 3
ENDMDL
MODEL 6
REMARK VINA RESULT:      -8.2      3.979      8.484
REMARK  Name = 
REMARK  4 active torsions:
REMARK  status: ('A' for Active; 'I' for Inactive)
REMARK    1  A    between atoms: C_1  and  C_2
REMARK    2  A    between atoms: C_2  and  N_3
REMARK    3  A    between atoms: C_2  and  C_21
REMARK    4  A    between atoms: C_12  and  C_13
REMARK                            x       y       z     vdW  Elec       q    Type
REMARK                         _______ _______ _______ _____ _____    ______ ____
ROOT
ATOM      1  N   UNL     1       1.163   9.886  19.160  0.00  0.00    +0.000 N 
ATOM      2  C   UNL     1       0.779   9.234  20.286  0.00  0.00    +0.000 C 
ATOM      3  O   UNL     1      -0.025   9.688  21.094  0.00  0.00    +0.000 OA
ATOM      4  N   UNL     1       1.303   7.976  20.464  0.00  0.00    +0.000 N 
ATOM      5  C   UNL     1       2.190   7.306  19.614  0.00  0.00    +0.000 A 
ATOM      6  C   UNL     1       2.370   5.937  19.761  0.00  0.00    +0.000 A 
ATOM      7  C   UNL     1       3.142   5.337  18.759  0.00  0.00    +0.000 A 
ATOM      8  N   UNL     1       3.471   4.032  18.510  0.00  0.00    +0.000 N 
ATOM      9  N   UNL     1       4.193   3.850  17.391  0.00  0.00    +0.000 NA
ATOM     10  C   UNL     1       4.379   5.089  16.921  0.00  0.00    +0.000 A 
ATOM     11  C   UNL     1       3.747   6.059  17.733  0.00  0.00    +0.000 A 
ATOM     12  C   UNL     1       3.590   7.439  17.730  0.00  0.00    +0.000 A 
ATOM     13  N   UNL     1       2.794   8.029  18.644  0.00  0.00    +0.000 NA
ATOM     14  H   UNL     1       1.885   9.421  18.617  0.00  0.00    +0.000 HD
ATOM     15  H   UNL     1       0.913   7.485  21.256  0.00  0.00    +0.000 HD
ATOM     16  H   UNL     1       3.211   3.213  19.049  0.00  0.00    +0.000 HD
ENDROOT
BRANCH  10  17
ATOM     17  C   UNL     1       5.163   5.302  15.635  0.00  0.00    +0.000 C 
ATOM     18  C   UNL     1       6.689   5.286  15.630  0.00  0.00    +0.000 C 
ATOM     19  C   UNL     1       5.926   4.177  15.029  0.00  0.00    +0.000 C 
ATOM     20  F   UNL     1       5.944   4.006  13.664  0.00  0.00    +0.000 F 
ATOM     21  F   UNL     1       5.967   2.923  15.590  0.00  0.00    +0.000 F 
ENDBRANCH  10  17
BRANCH   1  23
ATOM     22  C   UNL     1       0.881  12.271  19.662  0.00  0.00    +0.000 C 
ATOM     23  C   UNL     1       0.637  11.133  18.666  0.00  0.00    +0.000 C 
BRANCH  23  24
ATOM     24  C   UNL     1      -0.850  10.985  18.362  0.00  0.00    +0.000 A 
ATOM     25  C   UNL     1      -1.764  11.880  18.942  0.00  0.00    +0.000 A 
ATOM     26  C   UNL     1      -3.136  11.728  18.738  0.00  0.00    +0.000 A 
ATOM     27  C   UNL     1      -3.602  10.692  17.939  0.00  0.00    +0.000 A 
ATOM     28  F   UNL     1      -4.921  10.527  17.772  0.00  0.00    +0.000 F 
ATOM     29  C   UNL     1      -2.719   9.821  17.315  0.00  0.00    +0.000 A 
ATOM     30  C   UNL     1      -1.345   9.972  17.517  0.00  0.00    +0.000 A 
ENDBRANCH  23  24
ENDBRANCH   1  23
TORSDOF 3
ENDMDL
MODEL 7
REMARK VINA RESULT:      -8.1      3.531      5.214
REMARK  Name = 
REMARK  4 active torsions:
REMARK  status: ('A' for Active; 'I' for Inactive)
REMARK    1  A    between atoms: C_1  and  C_2
REMARK    2  A    between atoms: C_2  and  N_3
REMARK    3  A    between atoms: C_2  and  C_21
REMARK    4  A    between atoms: C_12  and  C_13
REMARK                            x       y       z     vdW  Elec       q    Type
REMARK                         _______ _______ _______ _____ _____    ______ ____
ROOT
ATOM      1  N   UNL     1       5.373   5.545  18.172  0.00  0.00    +0.000 N 
ATOM      2  C   UNL     1       4.942   4.650  19.097  0.00  0.00    +0.000 C 
ATOM      3  O   UNL     1       5.552   3.627  19.390  0.00  0.00    +0.000 OA
ATOM      4  N   UNL     1       3.780   4.974  19.755  0.00  0.00    +0.000 N 
ATOM      5  C   UNL     1       2.998   6.121  19.567  0.00  0.00    +0.000 A 
ATOM      6  C   UNL     1       2.047   6.459  20.521  0.00  0.00    +0.000 A 
ATOM      7  C   UNL     1       1.441   7.705  20.327  0.00  0.00    +0.000 A 
ATOM      8  N   UNL     1       0.539   8.414  21.073  0.00  0.00    +0.000 N 
ATOM      9  N   UNL     1       0.242   9.626  20.572  0.00  0.00    +0.000 NA
ATOM     10  C   UNL     1       0.944   9.687  19.435  0.00  0.00    +0.000 A 
ATOM     11  C   UNL     1       1.711   8.517  19.228  0.00  0.00    +0.000 A 
ATOM     12  C   UNL     1       2.605   8.045  18.276  0.00  0.00    +0.000 A 
ATOM     13  N   UNL     1       3.251   6.879  18.477  0.00  0.00    +0.000 NA
ATOM     14  H   UNL     1       4.734   6.312  17.983  0.00  0.00    +0.000 HD
ATOM     15  H   UNL     1       3.550   4.338  20.504  0.00  0.00    +0.000 HD
ATOM     16  H   UNL     1       0.106   8.141  21.949  0.00  0.00    +0.000 HD
ENDROOT
BRANCH  10  17
ATOM     17  C   UNL     1       0.875  10.934  18.567  0.00  0.00    +0.000 C 
ATOM     18  C   UNL     1      -0.097  12.066  18.889  0.00  0.00    +0.000 C 
ATOM     19  C   UNL     1       1.352  12.242  19.097  0.00  0.00    +0.000 C 
ATOM     20  F   UNL     1       2.051  13.106  18.287  0.00  0.00    +0.000 F 
ATOM     21  F   UNL     1       1.858  12.385  20.367  0.00  0.00    +0.000 F 
ENDBRANCH  10  17
BRANCH   1  23
ATOM     22  C   UNL     1       7.260   6.913  17.406  0.00  0.00    +0.000 C 
ATOM     23  C   UNL     1       6.631   5.518  17.471  0.00  0.00    +0.000 C 
BRANCH  23  24
ATOM     24  C   UNL     1       6.434   4.944  16.071  0.00  0.00    +0.000 A 
ATOM     25  C   UNL     1       7.436   5.127  15.105  0.00  0.00    +0.000 A 
ATOM     26  C   UNL     1       7.254   4.674  13.797  0.00  0.00    +0.000 A 
ATOM     27  C   UNL     1       6.078   4.020  13.453  0.00  0.00    +0.000 A 
ATOM     28  F   UNL     1       5.892   3.615  12.189  0.00  0.00    +0.000 F 
ATOM     29  C   UNL     1       5.091   3.783  14.400  0.00  0.00    +0.000 A 
ATOM     30  C   UNL     1       5.271   4.235  15.710  0.00  0.00    +0.000 A 
ENDBRANCH  23  24
ENDBRANCH   1  23
TORSDOF 3
ENDMDL
MODEL 8
REMARK VINA RESULT:      -8.1      3.506      5.150
REMARK  Name = 
REMARK  4 active torsions:
REMARK  status: ('A' for Active; 'I' for Inactive)
REMARK    1  A    between atoms: C_1  and  C_2
REMARK    2  A    between atoms: C_2  and  N_3
REMARK    3  A    between atoms: C_2  and  C_21
REMARK    4  A    between atoms: C_12  and  C_13
REMARK                            x       y       z     vdW  Elec       q    Type
REMARK                         _______ _______ _______ _____ _____    ______ ____
ROOT
ATOM      1  N   UNL     1       5.275   4.915  18.526  0.00  0.00    +0.000 N 
ATOM      2  C   UNL     1       4.689   4.050  19.393  0.00  0.00    +0.000 C 
ATOM      3  O   UNL     1       5.176   2.968  19.706  0.00  0.00    +0.000 OA
ATOM      4  N   UNL     1       3.514   4.472  19.966  0.00  0.00    +0.000 N 
ATOM      5  C   UNL     1       2.861   5.691  19.747  0.00  0.00    +0.000 A 
ATOM      6  C   UNL     1       1.873   6.102  20.632  0.00  0.00    +0.000 A 
ATOM      7  C   UNL     1       1.404   7.404  20.423  0.00  0.00    +0.000 A 
ATOM      8  N   UNL     1       0.516   8.183  21.113  0.00  0.00    +0.000 N 
ATOM      9  N   UNL     1       0.376   9.426  20.621  0.00  0.00    +0.000 NA
ATOM     10  C   UNL     1       1.168   9.439  19.543  0.00  0.00    +0.000 A 
ATOM     11  C   UNL     1       1.836   8.205  19.368  0.00  0.00    +0.000 A 
ATOM     12  C   UNL     1       2.755   7.666  18.476  0.00  0.00    +0.000 A 
ATOM     13  N   UNL     1       3.270   6.441  18.699  0.00  0.00    +0.000 NA
ATOM     14  H   UNL     1       4.728   5.743  18.308  0.00  0.00    +0.000 HD
ATOM     15  H   UNL     1       3.167   3.848  20.680  0.00  0.00    +0.000 HD
ATOM     16  H   UNL     1      -0.008   7.937  21.946  0.00  0.00    +0.000 HD
ENDROOT
BRANCH  10  17
ATOM     17  C   UNL     1       1.286  10.702  18.705  0.00  0.00    +0.000 C 
ATOM     18  C   UNL     1       0.215  11.789  18.759  0.00  0.00    +0.000 C 
ATOM     19  C   UNL     1       1.543  12.015  19.359  0.00  0.00    +0.000 C 
ATOM     20  F   UNL     1       2.399  12.923  18.782  0.00  0.00    +0.000 F 
ATOM     21  F   UNL     1       1.674  12.149  20.721  0.00  0.00    +0.000 F 
ENDBRANCH  10  17
BRANCH   1  23
ATOM     22  C   UNL     1       7.463   5.988  18.242  0.00  0.00    +0.000 C 
ATOM     23  C   UNL     1       6.577   4.780  17.924  0.00  0.00    +0.000 C 
BRANCH  23  24
ATOM     24  C   UNL     1       6.435   4.590  16.417  0.00  0.00    +0.000 A 
ATOM     25  C   UNL     1       5.296   3.944  15.909  0.00  0.00    +0.000 A 
ATOM     26  C   UNL     1       5.170   3.694  14.542  0.00  0.00    +0.000 A 
ATOM     27  C   UNL     1       6.174   4.103  13.673  0.00  0.00    +0.000 A 
ATOM     28  F   UNL     1       6.068   3.832  12.365  0.00  0.00    +0.000 F 
ATOM     29  C   UNL     1       7.289   4.785  14.142  0.00  0.00    +0.000 A 
ATOM     30  C   UNL     1       7.415   5.038  15.510  0.00  0.00    +0.000 A 
ENDBRANCH  23  24
ENDBRANCH   1  23
TORSDOF 3
ENDMDL
MODEL 9
REMARK VINA RESULT:      -8.0      3.492      5.131
REMARK  Name = 
REMARK  4 active torsions:
REMARK  status: ('A' for Active; 'I' for Inactive)
REMARK    1  A    between atoms: C_1  and  C_2
REMARK    2  A    between atoms: C_2  and  N_3
REMARK    3  A    between atoms: C_2  and  C_21
REMARK    4  A    between atoms: C_12  and  C_13
REMARK                            x       y       z     vdW  Elec       q    Type
REMARK                         _______ _______ _______ _____ _____    ______ ____
ROOT
ATOM      1  N   UNL     1       5.167   4.767  18.761  0.00  0.00    +0.000 N 
ATOM      2  C   UNL     1       4.548   3.807  19.496  0.00  0.00    +0.000 C 
ATOM      3  O   UNL     1       5.022   2.694  19.695  0.00  0.00    +0.000 OA
ATOM      4  N   UNL     1       3.354   4.165  20.072  0.00  0.00    +0.000 N 
ATOM      5  C   UNL     1       2.710   5.405  19.977  0.00  0.00    +0.000 A 
ATOM      6  C   UNL     1       1.691   5.712  20.868  0.00  0.00    +0.000 A 
ATOM      7  C   UNL     1       1.232   7.032  20.799  0.00  0.00    +0.000 A 
ATOM      8  N   UNL     1       0.319   7.728  21.544  0.00  0.00    +0.000 N 
ATOM      9  N   UNL     1       0.198   9.022  21.200  0.00  0.00    +0.000 NA
ATOM     10  C   UNL     1       1.031   9.160  20.162  0.00  0.00    +0.000 A 
ATOM     11  C   UNL     1       1.703   7.952  19.864  0.00  0.00    +0.000 A 
ATOM     12  C   UNL     1       2.653   7.518  18.949  0.00  0.00    +0.000 A 
ATOM     13  N   UNL     1       3.159   6.272  19.042  0.00  0.00    +0.000 NA
ATOM     14  H   UNL     1       4.630   5.618  18.623  0.00  0.00    +0.000 HD
ATOM     15  H   UNL     1       2.979   3.462  20.692  0.00  0.00    +0.000 HD
ATOM     16  H   UNL     1      -0.236   7.387  22.322  0.00  0.00    +0.000 HD
ENDROOT
BRANCH  10  17
ATOM     17  C   UNL     1       1.181  10.513  19.485  0.00  0.00    +0.000 C 
ATOM     18  C   UNL     1       1.265  10.631  17.966  0.00  0.00    +0.000 C 
ATOM     19  C   UNL     1       0.059  11.079  18.686  0.00  0.00    +0.000 C 
ATOM     20  F   UNL     1      -0.229  12.423  18.749  0.00  0.00    +0.000 F 
ATOM     21  F   UNL     1      -1.135  10.420  18.517  0.00  0.00    +0.000 F 
ENDBRANCH  10  17
BRANCH   1  23
ATOM     22  C   UNL     1       7.326   5.919  18.589  0.00  0.00    +0.000 C 
ATOM     23  C   UNL     1       6.490   4.698  18.196  0.00  0.00    +0.000 C 
BRANCH  23  24
ATOM     24  C   UNL     1       6.400   4.565  16.679  0.00  0.00    +0.000 A 
ATOM     25  C   UNL     1       5.329   3.857  16.112  0.00  0.00    +0.000 A 
ATOM     26  C   UNL     1       5.256   3.660  14.732  0.00  0.00    +0.000 A 
ATOM     27  C   UNL     1       6.245   4.184  13.910  0.00  0.00    +0.000 A 
ATOM     28  F   UNL     1       6.192   3.965  12.589  0.00  0.00    +0.000 F 
ATOM     29  C   UNL     1       7.291   4.929  14.438  0.00  0.00    +0.000 A 
ATOM     30  C   UNL     1       7.364   5.129  15.819  0.00  0.00    +0.000 A 
ENDBRANCH  23  24
ENDBRANCH   1  23
TORSDOF 3
ENDMDL
