MODEL 1
REMARK VINA RESULT:      -8.4      0.000      0.000
REMARK  Name = 
REMARK  7 active torsions:
REMARK  status: ('A' for Active; 'I' for Inactive)
REMARK    1  A    between atoms: C_1  and  C_2
REMARK    2  A    between atoms: C_2  and  C_4
REMARK    3  A    between atoms: C_7  and  C_8
REMARK    4  A    between atoms: C_16  and  C_17
REMARK    5  A    between atoms: C_17  and  N_18
REMARK    6  A    between atoms: C_19  and  C_21
REMARK    7  A    between atoms: C_21  and  C_22
REMARK                            x       y       z     vdW  Elec       q    Type
REMARK                         _______ _______ _______ _____ _____    ______ ____
ROOT
ATOM      1  C   UNL     1       3.162   5.702  18.413  0.00  0.00    +0.000 A 
ATOM      2  C   UNL     1       2.417   4.659  17.829  0.00  0.00    +0.000 A 
ATOM      3  C   UNL     1       3.049   3.552  17.257  0.00  0.00    +0.000 A 
ATOM      4  F   UNL     1       2.301   2.577  16.719  0.00  0.00    +0.000 F 
ATOM      5  C   UNL     1       4.430   3.434  17.250  0.00  0.00    +0.000 A 
ATOM      6  C   UNL     1       5.168   4.470  17.796  0.00  0.00    +0.000 A 
ATOM      7  C   UNL     1       4.555   5.595  18.334  0.00  0.00    +0.000 A 
ATOM      8  O   UNL     1       5.463   6.541  18.750  0.00  0.00    +0.000 OA
ATOM      9  C   UNL     1       6.781   5.930  18.613  0.00  0.00    +0.000 C 
ATOM     10  C   UNL     1       6.638   4.565  17.925  0.00  0.00    +0.000 C 
ENDROOT
BRANCH   1  14
ATOM     11  C   UNL     1       1.402   9.010  19.607  0.00  0.00    +0.000 A 
ATOM     12  C   UNL     1       1.364   8.141  20.680  0.00  0.00    +0.000 A 
ATOM     13  C   UNL     1       1.974   6.881  20.392  0.00  0.00    +0.000 A 
ATOM     14  C   UNL     1       2.477   6.810  19.106  0.00  0.00    +0.000 A 
ATOM     15  S   UNL     1       2.152   8.275  18.259  0.00  0.00    +0.000 S 
BRANCH  11  17
ATOM     16  C   UNL     1      -0.042  10.841  20.572  0.00  0.00    +0.000 C 
ATOM     17  C   UNL     1       0.909  10.378  19.492  0.00  0.00    +0.000 C 
ATOM     18  O   UNL     1       1.225  11.159  18.594  0.00  0.00    +0.000 OA
ENDBRANCH  11  17
ENDBRANCH   1  14
BRANCH   9  19
ATOM     19  C   UNL     1       7.722   6.832  17.790  0.00  0.00    +0.000 C 
BRANCH  19  20
ATOM     20  N   UNL     1       8.477   7.792  18.578  0.00  0.00    +0.000 N 
ATOM     21  C   UNL     1       8.410   9.150  18.341  0.00  0.00    +0.000 C 
ATOM     22  O   UNL     1       7.716   9.626  17.445  0.00  0.00    +0.000 OA
ATOM     23  H   UNL     1       9.158   7.433  19.236  0.00  0.00    +0.000 HD
BRANCH  21  24
ATOM     24  C   UNL     1       9.221  10.008  19.302  0.00  0.00    +0.000 C 
BRANCH  24  25
ATOM     25  C   UNL     1       9.683  11.270  18.664  0.00  0.00    +0.000 A 
ATOM     26  C   UNL     1      10.730  11.466  17.768  0.00  0.00    +0.000 A 
ATOM     27  N   UNL     1      10.756  12.808  17.558  0.00  0.00    +0.000 N 
ATOM     28  C   UNL     1      11.548  13.706  16.880  0.00  0.00    +0.000 A 
ATOM     29  C   UNL     1      11.118  14.969  17.054  0.00  0.00    +0.000 A 
ATOM     30  S   UNL     1       9.669  15.072  18.075  0.00  0.00    +0.000 S 
ATOM     31  C   UNL     1       9.718  13.346  18.256  0.00  0.00    +0.000 A 
ATOM     32  N   UNL     1       9.034  12.469  18.938  0.00  0.00    +0.000 NA
ENDBRANCH  24  25
ENDBRANCH  21  24
ENDBRANCH  19  20
ENDBRANCH   9  19
TORSDOF 6
ENDMDL
MODEL 2
REMARK VINA RESULT:      -8.3      0.985      1.137
REMARK  Name = 
REMARK  7 active torsions:
REMARK  status: ('A' for Active; 'I' for Inactive)
REMARK    1  A    between atoms: C_1  and  C_2
REMARK    2  A    between atoms: C_2  and  C_4
REMARK    3  A    between atoms: C_7  and  C_8
REMARK    4  A    between atoms: C_16  and  C_17
REMARK    5  A    between atoms: C_17  and  N_18
REMARK    6  A    between atoms: C_19  and  C_21
REMARK    7  A    between atoms: C_21  and  C_22
REMARK                            x       y       z     vdW  Elec       q    Type
REMARK                         _______ _______ _______ _____ _____    ______ ____
ROOT
ATOM      1  C   UNL     1       3.026   5.982  18.186  0.00  0.00    +0.000 A 
ATOM      2  C   UNL     1       2.273   4.903  17.683  0.00  0.00    +0.000 A 
ATOM      3  C   UNL     1       2.882   3.691  17.347  0.00  0.00    +0.000 A 
ATOM      4  F   UNL     1       2.126   2.686  16.880  0.00  0.00    +0.000 F 
ATOM      5  C   UNL     1       4.246   3.501  17.504  0.00  0.00    +0.000 A 
ATOM      6  C   UNL     1       4.995   4.568  17.970  0.00  0.00    +0.000 A 
ATOM      7  C   UNL     1       4.410   5.792  18.271  0.00  0.00    +0.000 A 
ATOM      8  O   UNL     1       5.335   6.741  18.640  0.00  0.00    +0.000 OA
ATOM      9  C   UNL     1       6.616   6.049  18.733  0.00  0.00    +0.000 C 
ATOM     10  C   UNL     1       6.449   4.604  18.239  0.00  0.00    +0.000 C 
ENDROOT
BRANCH   1  14
ATOM     11  C   UNL     1       1.286   8.970  20.058  0.00  0.00    +0.000 A 
ATOM     12  C   UNL     1       1.350   9.331  18.727  0.00  0.00    +0.000 A 
ATOM     13  C   UNL     1       1.965   8.331  17.913  0.00  0.00    +0.000 A 
ATOM     14  C   UNL     1       2.354   7.216  18.634  0.00  0.00    +0.000 A 
ATOM     15  S   UNL     1       1.998   7.436  20.305  0.00  0.00    +0.000 S 
BRANCH  11  17
ATOM     16  C   UNL     1      -0.529  10.488  20.939  0.00  0.00    +0.000 C 
ATOM     17  C   UNL     1       0.729   9.690  21.199  0.00  0.00    +0.000 C 
ATOM     18  O   UNL     1       1.208   9.676  22.333  0.00  0.00    +0.000 OA
ENDBRANCH  11  17
ENDBRANCH   1  14
BRANCH   9  19
ATOM     19  C   UNL     1       7.691   6.765  17.894  0.00  0.00    +0.000 C 
BRANCH  19  20
ATOM     20  N   UNL     1       8.499   7.717  18.637  0.00  0.00    +0.000 N 
ATOM     21  C   UNL     1       8.440   9.075  18.397  0.00  0.00    +0.000 C 
ATOM     22  O   UNL     1       7.707   9.558  17.536  0.00  0.00    +0.000 OA
ATOM     23  H   UNL     1       9.209   7.352  19.260  0.00  0.00    +0.000 HD
BRANCH  21  24
ATOM     24  C   UNL     1       9.312   9.926  19.310  0.00  0.00    +0.000 C 
BRANCH  24  25
ATOM     25  C   UNL     1       9.718  11.201  18.660  0.00  0.00    +0.000 A 
ATOM     26  C   UNL     1      10.717  11.423  17.717  0.00  0.00    +0.000 A 
ATOM     27  N   UNL     1      10.707  12.767  17.516  0.00  0.00    +0.000 N 
ATOM     28  C   UNL     1      11.448  13.684  16.808  0.00  0.00    +0.000 A 
ATOM     29  C   UNL     1      11.002  14.937  17.012  0.00  0.00    +0.000 A 
ATOM     30  S   UNL     1       9.602  15.005  18.101  0.00  0.00    +0.000 S 
ATOM     31  C   UNL     1       9.693  13.279  18.266  0.00  0.00    +0.000 A 
ATOM     32  N   UNL     1       9.059  12.385  18.974  0.00  0.00    +0.000 NA
ENDBRANCH  24  25
ENDBRANCH  21  24
ENDBRANCH  19  20
ENDBRANCH   9  19
TORSDOF 6
ENDMDL
MODEL 3
REMARK VINA RESULT:      -8.0      4.802      7.319
REMARK  Name = 
REMARK  7 active torsions:
REMARK  status: ('A' for Active; 'I' for Inactive)
REMARK    1  A    between atoms: C_1  and  C_2
REMARK    2  A    between atoms: C_2  and  C_4
REMARK    3  A    between atoms: C_7  and  C_8
REMARK    4  A    between atoms: C_16  and  C_17
REMARK    5  A    between atoms: C_17  and  N_18
REMARK    6  A    between atoms: C_19  and  C_21
REMARK    7  A    between atoms: C_21  and  C_22
REMARK                            x       y       z     vdW  Elec       q    Type
REMARK                         _______ _______ _______ _____ _____    ______ ____
ROOT
ATOM      1  C   UNL     1       4.501   4.368  19.109  0.00  0.00    +0.000 A 
ATOM      2  C   UNL     1       4.678   3.090  19.676  0.00  0.00    +0.000 A 
ATOM      3  C   UNL     1       3.773   2.583  20.613  0.00  0.00    +0.000 A 
ATOM      4  F   UNL     1       3.975   1.359  21.121  0.00  0.00    +0.000 F 
ATOM      5  C   UNL     1       2.666   3.313  21.014  0.00  0.00    +0.000 A 
ATOM      6  C   UNL     1       2.503   4.581  20.482  0.00  0.00    +0.000 A 
ATOM      7  C   UNL     1       3.414   5.114  19.579  0.00  0.00    +0.000 A 
ATOM      8  O   UNL     1       3.116   6.412  19.235  0.00  0.00    +0.000 OA
ATOM      9  C   UNL     1       1.824   6.711  19.843  0.00  0.00    +0.000 C 
ATOM     10  C   UNL     1       1.401   5.534  20.735  0.00  0.00    +0.000 C 
ENDROOT
BRANCH   1  14
ATOM     11  C   UNL     1       6.566   5.126  15.850  0.00  0.00    +0.000 A 
ATOM     12  C   UNL     1       7.012   6.016  16.808  0.00  0.00    +0.000 A 
ATOM     13  C   UNL     1       6.344   5.858  18.061  0.00  0.00    +0.000 A 
ATOM     14  C   UNL     1       5.405   4.843  18.045  0.00  0.00    +0.000 A 
ATOM     15  S   UNL     1       5.326   4.132  16.478  0.00  0.00    +0.000 S 
BRANCH  11  17
ATOM     16  C   UNL     1       6.226   3.929  13.654  0.00  0.00    +0.000 C 
ATOM     17  C   UNL     1       6.992   4.949  14.466  0.00  0.00    +0.000 C 
ATOM     18  O   UNL     1       7.909   5.575  13.934  0.00  0.00    +0.000 OA
ENDBRANCH  11  17
ENDBRANCH   1  14
BRANCH   9  19
ATOM     19  C   UNL     1       1.895   8.001  20.682  0.00  0.00    +0.000 C 
BRANCH  19  20
ATOM     20  N   UNL     1       1.106   9.103  20.159  0.00  0.00    +0.000 N 
ATOM     21  C   UNL     1      -0.037   9.551  20.790  0.00  0.00    +0.000 C 
ATOM     22  O   UNL     1      -0.459   9.040  21.825  0.00  0.00    +0.000 OA
ATOM     23  H   UNL     1       1.343   9.463  19.242  0.00  0.00    +0.000 HD
BRANCH  21  24
ATOM     24  C   UNL     1      -0.703  10.752  20.132  0.00  0.00    +0.000 C 
BRANCH  24  25
ATOM     25  C   UNL     1       0.241  11.890  19.970  0.00  0.00    +0.000 A 
ATOM     26  C   UNL     1       0.341  12.802  18.923  0.00  0.00    +0.000 A 
ATOM     27  N   UNL     1       1.406  13.583  19.249  0.00  0.00    +0.000 N 
ATOM     28  C   UNL     1       2.121  14.603  18.666  0.00  0.00    +0.000 A 
ATOM     29  C   UNL     1       3.144  14.994  19.447  0.00  0.00    +0.000 A 
ATOM     30  S   UNL     1       3.231  14.093  20.975  0.00  0.00    +0.000 S 
ATOM     31  C   UNL     1       1.850  13.171  20.468  0.00  0.00    +0.000 A 
ATOM     32  N   UNL     1       1.186  12.159  20.954  0.00  0.00    +0.000 NA
ENDBRANCH  24  25
ENDBRANCH  21  24
ENDBRANCH  19  20
ENDBRANCH   9  19
TORSDOF 6
ENDMDL
MODEL 4
REMARK VINA RESULT:      -7.9      5.397      8.967
REMARK  Name = 
REMARK  7 active torsions:
REMARK  status: ('A' for Active; 'I' for Inactive)
REMARK    1  A    between atoms: C_1  and  C_2
REMARK    2  A    between atoms: C_2  and  C_4
REMARK    3  A    between atoms: C_7  and  C_8
REMARK    4  A    between atoms: C_16  and  C_17
REMARK    5  A    between atoms: C_17  and  N_18
REMARK    6  A    between atoms: C_19  and  C_21
REMARK    7  A    between atoms: C_21  and  C_22
REMARK                            x       y       z     vdW  Elec       q    Type
REMARK                         _______ _______ _______ _____ _____    ______ ____
ROOT
ATOM      1  C   UNL     1       4.174   4.405  19.482  0.00  0.00    +0.000 A 
ATOM      2  C   UNL     1       4.142   3.206  20.221  0.00  0.00    +0.000 A 
ATOM      3  C   UNL     1       3.082   2.919  21.085  0.00  0.00    +0.000 A 
ATOM      4  F   UNL     1       3.087   1.762  21.763  0.00  0.00    +0.000 F 
ATOM      5  C   UNL     1       2.021   3.796  21.242  0.00  0.00    +0.000 A 
ATOM      6  C   UNL     1       2.062   4.989  20.540  0.00  0.00    +0.000 A 
ATOM      7  C   UNL     1       3.128   5.306  19.707  0.00  0.00    +0.000 A 
ATOM      8  O   UNL     1       3.016   6.567  19.168  0.00  0.00    +0.000 OA
ATOM      9  C   UNL     1       1.701   7.064  19.558  0.00  0.00    +0.000 C 
ATOM     10  C   UNL     1       1.048   6.065  20.525  0.00  0.00    +0.000 C 
ENDROOT
BRANCH   1  14
ATOM     11  C   UNL     1       6.514   4.848  16.352  0.00  0.00    +0.000 A 
ATOM     12  C   UNL     1       7.265   5.212  17.453  0.00  0.00    +0.000 A 
ATOM     13  C   UNL     1       6.538   5.101  18.678  0.00  0.00    +0.000 A 
ATOM     14  C   UNL     1       5.245   4.645  18.496  0.00  0.00    +0.000 A 
ATOM     15  S   UNL     1       4.931   4.404  16.819  0.00  0.00    +0.000 S 
BRANCH  11  17
ATOM     16  C   UNL     1       5.996   3.970  14.043  0.00  0.00    +0.000 C 
ATOM     17  C   UNL     1       6.880   4.806  14.941  0.00  0.00    +0.000 C 
ATOM     18  O   UNL     1       7.838   5.405  14.451  0.00  0.00    +0.000 OA
ENDBRANCH  11  17
ENDBRANCH   1  14
BRANCH   9  19
ATOM     19  C   UNL     1       1.812   8.445  20.232  0.00  0.00    +0.000 C 
BRANCH  19  20
ATOM     20  N   UNL     1       1.285   9.545  19.442  0.00  0.00    +0.000 N 
ATOM     21  C   UNL     1       0.710  10.657  20.024  0.00  0.00    +0.000 C 
ATOM     22  O   UNL     1       0.604  10.779  21.243  0.00  0.00    +0.000 OA
ATOM     23  H   UNL     1       1.233   9.425  18.438  0.00  0.00    +0.000 HD
BRANCH  21  24
ATOM     24  C   UNL     1       0.266  11.735  19.045  0.00  0.00    +0.000 C 
BRANCH  24  25
ATOM     25  C   UNL     1      -1.170  11.597  18.683  0.00  0.00    +0.000 A 
ATOM     26  C   UNL     1      -1.736  11.012  17.553  0.00  0.00    +0.000 A 
ATOM     27  N   UNL     1      -3.072  11.218  17.693  0.00  0.00    +0.000 N 
ATOM     28  C   UNL     1      -4.208  10.998  16.949  0.00  0.00    +0.000 A 
ATOM     29  C   UNL     1      -5.305  11.455  17.580  0.00  0.00    +0.000 A 
ATOM     30  S   UNL     1      -4.944  12.170  19.164  0.00  0.00    +0.000 S 
ATOM     31  C   UNL     1      -3.262  11.837  18.891  0.00  0.00    +0.000 A 
ATOM     32  N   UNL     1      -2.154  12.088  19.534  0.00  0.00    +0.000 NA
ENDBRANCH  24  25
ENDBRANCH  21  24
ENDBRANCH  19  20
ENDBRANCH   9  19
TORSDOF 6
ENDMDL
MODEL 5
REMARK VINA RESULT:      -7.9      5.425      8.880
REMARK  Name = 
REMARK  7 active torsions:
REMARK  status: ('A' for Active; 'I' for Inactive)
REMARK    1  A    between atoms: C_1  and  C_2
REMARK    2  A    between atoms: C_2  and  C_4
REMARK    3  A    between atoms: C_7  and  C_8
REMARK    4  A    between atoms: C_16  and  C_17
REMARK    5  A    between atoms: C_17  and  N_18
REMARK    6  A    between atoms: C_19  and  C_21
REMARK    7  A    between atoms: C_21  and  C_22
REMARK                            x       y       z     vdW  Elec       q    Type
REMARK                         _______ _______ _______ _____ _____    ______ ____
ROOT
ATOM      1  C   UNL     1       3.967   4.817  18.883  0.00  0.00    +0.000 A 
ATOM      2  C   UNL     1       4.140   3.519  19.404  0.00  0.00    +0.000 A 
ATOM      3  C   UNL     1       3.323   3.037  20.430  0.00  0.00    +0.000 A 
ATOM      4  F   UNL     1       3.518   1.793  20.891  0.00  0.00    +0.000 F 
ATOM      5  C   UNL     1       2.307   3.812  20.967  0.00  0.00    +0.000 A 
ATOM      6  C   UNL     1       2.151   5.098  20.479  0.00  0.00    +0.000 A 
ATOM      7  C   UNL     1       2.981   5.605  19.486  0.00  0.00    +0.000 A 
ATOM      8  O   UNL     1       2.713   6.924  19.200  0.00  0.00    +0.000 OA
ATOM      9  C   UNL     1       1.515   7.272  19.957  0.00  0.00    +0.000 C 
ATOM     10  C   UNL     1       1.136   6.098  20.872  0.00  0.00    +0.000 C 
ENDROOT
BRANCH   1  14
ATOM     11  C   UNL     1       6.057   5.317  15.590  0.00  0.00    +0.000 A 
ATOM     12  C   UNL     1       5.957   6.562  16.179  0.00  0.00    +0.000 A 
ATOM     13  C   UNL     1       5.215   6.536  17.400  0.00  0.00    +0.000 A 
ATOM     14  C   UNL     1       4.767   5.271  17.730  0.00  0.00    +0.000 A 
ATOM     15  S   UNL     1       5.226   4.142  16.512  0.00  0.00    +0.000 S 
BRANCH  11  17
ATOM     16  C   UNL     1       6.069   3.815  13.561  0.00  0.00    +0.000 C 
ATOM     17  C   UNL     1       6.732   4.913  14.361  0.00  0.00    +0.000 C 
ATOM     18  O   UNL     1       7.779   5.411  13.946  0.00  0.00    +0.000 OA
ENDBRANCH  11  17
ENDBRANCH   1  14
BRANCH   9  19
ATOM     19  C   UNL     1       1.748   8.538  20.804  0.00  0.00    +0.000 C 
BRANCH  19  20
ATOM     20  N   UNL     1       1.081   9.728  20.303  0.00  0.00    +0.000 N 
ATOM     21  C   UNL     1      -0.094  10.197  20.855  0.00  0.00    +0.000 C 
ATOM     22  O   UNL     1      -0.649   9.633  21.796  0.00  0.00    +0.000 OA
ATOM     23  H   UNL     1       1.432  10.144  19.449  0.00  0.00    +0.000 HD
BRANCH  21  24
ATOM     24  C   UNL     1      -0.619  11.488  20.241  0.00  0.00    +0.000 C 
BRANCH  24  25
ATOM     25  C   UNL     1      -1.475  11.229  19.053  0.00  0.00    +0.000 A 
ATOM     26  C   UNL     1      -1.170  10.523  17.892  0.00  0.00    +0.000 A 
ATOM     27  N   UNL     1      -2.277  10.651  17.113  0.00  0.00    +0.000 N 
ATOM     28  C   UNL     1      -2.655  10.300  15.838  0.00  0.00    +0.000 A 
ATOM     29  C   UNL     1      -3.899  10.731  15.559  0.00  0.00    +0.000 A 
ATOM     30  S   UNL     1      -4.655  11.588  16.918  0.00  0.00    +0.000 S 
ATOM     31  C   UNL     1      -3.199  11.346  17.833  0.00  0.00    +0.000 A 
ATOM     32  N   UNL     1      -2.776  11.718  19.010  0.00  0.00    +0.000 NA
ENDBRANCH  24  25
ENDBRANCH  21  24
ENDBRANCH  19  20
ENDBRANCH   9  19
TORSDOF 6
ENDMDL
MODEL 6
REMARK VINA RESULT:      -7.9      5.437      7.865
REMARK  Name = 
REMARK  7 active torsions:
REMARK  status: ('A' for Active; 'I' for Inactive)
REMARK    1  A    between atoms: C_1  and  C_2
REMARK    2  A    between atoms: C_2  and  C_4
REMARK    3  A    between atoms: C_7  and  C_8
REMARK    4  A    between atoms: C_16  and  C_17
REMARK    5  A    between atoms: C_17  and  N_18
REMARK    6  A    between atoms: C_19  and  C_21
REMARK    7  A    between atoms: C_21  and  C_22
REMARK                            x       y       z     vdW  Elec       q    Type
REMARK                         _______ _______ _______ _____ _____    ______ ____
ROOT
ATOM      1  C   UNL     1       3.609   5.051  18.878  0.00  0.00    +0.000 A 
ATOM      2  C   UNL     1       3.770   3.758  19.413  0.00  0.00    +0.000 A 
ATOM      3  C   UNL     1       3.030   3.336  20.520  0.00  0.00    +0.000 A 
ATOM      4  F   UNL     1       3.209   2.094  20.992  0.00  0.00    +0.000 F 
ATOM      5  C   UNL     1       2.105   4.170  21.130  0.00  0.00    +0.000 A 
ATOM      6  C   UNL     1       1.964   5.452  20.626  0.00  0.00    +0.000 A 
ATOM      7  C   UNL     1       2.720   5.898  19.550  0.00  0.00    +0.000 A 
ATOM      8  O   UNL     1       2.488   7.223  19.257  0.00  0.00    +0.000 OA
ATOM      9  C   UNL     1       1.383   7.643  20.112  0.00  0.00    +0.000 C 
ATOM     10  C   UNL     1       1.036   6.507  21.086  0.00  0.00    +0.000 C 
ENDROOT
BRANCH   1  14
ATOM     11  C   UNL     1       5.701   5.379  15.564  0.00  0.00    +0.000 A 
ATOM     12  C   UNL     1       5.170   6.629  15.813  0.00  0.00    +0.000 A 
ATOM     13  C   UNL     1       4.376   6.665  17.001  0.00  0.00    +0.000 A 
ATOM     14  C   UNL     1       4.319   5.443  17.646  0.00  0.00    +0.000 A 
ATOM     15  S   UNL     1       5.205   4.261  16.759  0.00  0.00    +0.000 S 
BRANCH  11  17
ATOM     16  C   UNL     1       6.014   3.836  13.591  0.00  0.00    +0.000 C 
ATOM     17  C   UNL     1       6.566   4.927  14.480  0.00  0.00    +0.000 C 
ATOM     18  O   UNL     1       7.687   5.381  14.248  0.00  0.00    +0.000 OA
ENDBRANCH  11  17
ENDBRANCH   1  14
BRANCH   9  19
ATOM     19  C   UNL     1       1.752   8.913  20.903  0.00  0.00    +0.000 C 
BRANCH  19  20
ATOM     20  N   UNL     1       0.666   9.869  21.046  0.00  0.00    +0.000 N 
ATOM     21  C   UNL     1       0.160  10.225  22.279  0.00  0.00    +0.000 C 
ATOM     22  O   UNL     1       0.590   9.749  23.328  0.00  0.00    +0.000 OA
ATOM     23  H   UNL     1       0.197  10.183  20.204  0.00  0.00    +0.000 HD
BRANCH  21  24
ATOM     24  C   UNL     1      -0.935  11.283  22.241  0.00  0.00    +0.000 C 
BRANCH  24  25
ATOM     25  C   UNL     1      -0.498  12.507  21.518  0.00  0.00    +0.000 A 
ATOM     26  C   UNL     1      -1.263  13.414  20.791  0.00  0.00    +0.000 A 
ATOM     27  N   UNL     1      -0.362  14.300  20.289  0.00  0.00    +0.000 N 
ATOM     28  C   UNL     1      -0.379  15.379  19.438  0.00  0.00    +0.000 A 
ATOM     29  C   UNL     1       0.857  15.878  19.252  0.00  0.00    +0.000 A 
ATOM     30  S   UNL     1       2.100  15.005  20.172  0.00  0.00    +0.000 S 
ATOM     31  C   UNL     1       0.861  13.946  20.771  0.00  0.00    +0.000 A 
ATOM     32  N   UNL     1       0.843  12.878  21.520  0.00  0.00    +0.000 NA
ENDBRANCH  24  25
ENDBRANCH  21  24
ENDBRANCH  19  20
ENDBRANCH   9  19
TORSDOF 6
ENDMDL
MODEL 7
REMARK VINA RESULT:      -7.8      5.574      8.774
REMARK  Name = 
REMARK  7 active torsions:
REMARK  status: ('A' for Active; 'I' for Inactive)
REMARK    1  A    between atoms: C_1  and  C_2
REMARK    2  A    between atoms: C_2  and  C_4
REMARK    3  A    between atoms: C_7  and  C_8
REMARK    4  A    between atoms: C_16  and  C_17
REMARK    5  A    between atoms: C_17  and  N_18
REMARK    6  A    between atoms: C_19  and  C_21
REMARK    7  A    between atoms: C_21  and  C_22
REMARK                            x       y       z     vdW  Elec       q    Type
REMARK                         _______ _______ _______ _____ _____    ______ ____
ROOT
ATOM      1  C   UNL     1       4.123   4.447  18.549  0.00  0.00    +0.000 A 
ATOM      2  C   UNL     1       4.494   3.172  19.021  0.00  0.00    +0.000 A 
ATOM      3  C   UNL     1       3.849   2.591  20.116  0.00  0.00    +0.000 A 
ATOM      4  F   UNL     1       4.228   1.373  20.528  0.00  0.00    +0.000 F 
ATOM      5  C   UNL     1       2.815   3.241  20.772  0.00  0.00    +0.000 A 
ATOM      6  C   UNL     1       2.465   4.505  20.330  0.00  0.00    +0.000 A 
ATOM      7  C   UNL     1       3.124   5.113  19.267  0.00  0.00    +0.000 A 
ATOM      8  O   UNL     1       2.682   6.395  19.038  0.00  0.00    +0.000 OA
ATOM      9  C   UNL     1       1.539   6.598  19.923  0.00  0.00    +0.000 C 
ATOM     10  C   UNL     1       1.391   5.380  20.847  0.00  0.00    +0.000 C 
ENDROOT
BRANCH   1  14
ATOM     11  C   UNL     1       5.935   5.209  15.143  0.00  0.00    +0.000 A 
ATOM     12  C   UNL     1       5.485   6.423  15.623  0.00  0.00    +0.000 A 
ATOM     13  C   UNL     1       4.798   6.302  16.871  0.00  0.00    +0.000 A 
ATOM     14  C   UNL     1       4.742   4.999  17.329  0.00  0.00    +0.000 A 
ATOM     15  S   UNL     1       5.494   3.939  16.198  0.00  0.00    +0.000 S 
BRANCH  11  17
ATOM     16  C   UNL     1       6.214   3.701  13.138  0.00  0.00    +0.000 C 
ATOM     17  C   UNL     1       6.683   4.901  13.929  0.00  0.00    +0.000 C 
ATOM     18  O   UNL     1       7.643   5.554  13.517  0.00  0.00    +0.000 OA
ENDBRANCH  11  17
ENDBRANCH   1  14
BRANCH   9  19
ATOM     19  C   UNL     1       1.717   7.874  20.767  0.00  0.00    +0.000 C 
BRANCH  19  20
ATOM     20  N   UNL     1       1.419   9.109  20.061  0.00  0.00    +0.000 N 
ATOM     21  C   UNL     1       0.458   9.995  20.505  0.00  0.00    +0.000 C 
ATOM     22  O   UNL     1      -0.208   9.788  21.517  0.00  0.00    +0.000 OA
ATOM     23  H   UNL     1       1.850   9.253  19.156  0.00  0.00    +0.000 HD
BRANCH  21  24
ATOM     24  C   UNL     1       0.323  11.263  19.673  0.00  0.00    +0.000 C 
BRANCH  24  25
ATOM     25  C   UNL     1      -0.852  11.207  18.763  0.00  0.00    +0.000 A 
ATOM     26  C   UNL     1      -2.023  11.960  18.798  0.00  0.00    +0.000 A 
ATOM     27  N   UNL     1      -2.782  11.461  17.787  0.00  0.00    +0.000 N 
ATOM     28  C   UNL     1      -4.052  11.650  17.295  0.00  0.00    +0.000 A 
ATOM     29  C   UNL     1      -4.307  10.825  16.263  0.00  0.00    +0.000 A 
ATOM     30  S   UNL     1      -2.930   9.781  15.856  0.00  0.00    +0.000 S 
ATOM     31  C   UNL     1      -2.042  10.506  17.160  0.00  0.00    +0.000 A 
ATOM     32  N   UNL     1      -0.870  10.311  17.700  0.00  0.00    +0.000 NA
ENDBRANCH  24  25
ENDBRANCH  21  24
ENDBRANCH  19  20
ENDBRANCH   9  19
TORSDOF 6
ENDMDL
MODEL 8
REMARK VINA RESULT:      -7.8      5.639      9.008
REMARK  Name = 
REMARK  7 active torsions:
REMARK  status: ('A' for Active; 'I' for Inactive)
REMARK    1  A    between atoms: C_1  and  C_2
REMARK    2  A    between atoms: C_2  and  C_4
REMARK    3  A    between atoms: C_7  and  C_8
REMARK    4  A    between atoms: C_16  and  C_17
REMARK    5  A    between atoms: C_17  and  N_18
REMARK    6  A    between atoms: C_19  and  C_21
REMARK    7  A    between atoms: C_21  and  C_22
REMARK                            x       y       z     vdW  Elec       q    Type
REMARK                         _______ _______ _______ _____ _____    ______ ____
ROOT
ATOM      1  C   UNL     1       4.320   4.395  18.475  0.00  0.00    +0.000 A 
ATOM      2  C   UNL     1       4.810   3.179  18.990  0.00  0.00    +0.000 A 
ATOM      3  C   UNL     1       4.242   2.592  20.124  0.00  0.00    +0.000 A 
ATOM      4  F   UNL     1       4.734   1.430  20.576  0.00  0.00    +0.000 F 
ATOM      5  C   UNL     1       3.172   3.180  20.780  0.00  0.00    +0.000 A 
ATOM      6  C   UNL     1       2.705   4.390  20.296  0.00  0.00    +0.000 A 
ATOM      7  C   UNL     1       3.284   5.004  19.192  0.00  0.00    +0.000 A 
ATOM      8  O   UNL     1       2.729   6.234  18.922  0.00  0.00    +0.000 OA
ATOM      9  C   UNL     1       1.593   6.377  19.828  0.00  0.00    +0.000 C 
ATOM     10  C   UNL     1       1.572   5.192  20.805  0.00  0.00    +0.000 C 
ENDROOT
BRANCH   1  14
ATOM     11  C   UNL     1       6.004   5.166  15.006  0.00  0.00    +0.000 A 
ATOM     12  C   UNL     1       5.423   6.347  15.427  0.00  0.00    +0.000 A 
ATOM     13  C   UNL     1       4.765   6.219  16.689  0.00  0.00    +0.000 A 
ATOM     14  C   UNL     1       4.862   4.945  17.218  0.00  0.00    +0.000 A 
ATOM     15  S   UNL     1       5.719   3.915  16.135  0.00  0.00    +0.000 S 
BRANCH  11  17
ATOM     16  C   UNL     1       6.307   3.697  12.976  0.00  0.00    +0.000 C 
ATOM     17  C   UNL     1       6.771   4.878  13.799  0.00  0.00    +0.000 C 
ATOM     18  O   UNL     1       7.742   5.531  13.418  0.00  0.00    +0.000 OA
ENDBRANCH  11  17
ENDBRANCH   1  14
BRANCH   9  19
ATOM     19  C   UNL     1       1.680   7.699  20.614  0.00  0.00    +0.000 C 
BRANCH  19  20
ATOM     20  N   UNL     1       1.361   8.884  19.836  0.00  0.00    +0.000 N 
ATOM     21  C   UNL     1       0.493   9.853  20.297  0.00  0.00    +0.000 C 
ATOM     22  O   UNL     1      -0.068   9.766  21.387  0.00  0.00    +0.000 OA
ATOM     23  H   UNL     1       1.697   8.929  18.881  0.00  0.00    +0.000 HD
BRANCH  21  24
ATOM     24  C   UNL     1       0.323  11.052  19.374  0.00  0.00    +0.000 C 
BRANCH  24  25
ATOM     25  C   UNL     1      -1.110  11.389  19.160  0.00  0.00    +0.000 A 
ATOM     26  C   UNL     1      -1.961  12.140  19.966  0.00  0.00    +0.000 A 
ATOM     27  N   UNL     1      -3.167  12.079  19.341  0.00  0.00    +0.000 N 
ATOM     28  C   UNL     1      -4.452  12.500  19.592  0.00  0.00    +0.000 A 
ATOM     29  C   UNL     1      -5.293  12.116  18.614  0.00  0.00    +0.000 A 
ATOM     30  S   UNL     1      -4.482  11.217  17.316  0.00  0.00    +0.000 S 
ATOM     31  C   UNL     1      -2.989  11.376  18.189  0.00  0.00    +0.000 A 
ATOM     32  N   UNL     1      -1.771  10.938  18.024  0.00  0.00    +0.000 NA
ENDBRANCH  24  25
ENDBRANCH  21  24
ENDBRANCH  19  20
ENDBRANCH   9  19
TORSDOF 6
ENDMDL
MODEL 9
REMARK VINA RESULT:      -7.8      5.083      7.434
REMARK  Name = 
REMARK  7 active torsions:
REMARK  status: ('A' for Active; 'I' for Inactive)
REMARK    1  A    between atoms: C_1  and  C_2
REMARK    2  A    between atoms: C_2  and  C_4
REMARK    3  A    between atoms: C_7  and  C_8
REMARK    4  A    between atoms: C_16  and  C_17
REMARK    5  A    between atoms: C_17  and  N_18
REMARK    6  A    between atoms: C_19  and  C_21
REMARK    7  A    between atoms: C_21  and  C_22
REMARK                            x       y       z     vdW  Elec       q    Type
REMARK                         _______ _______ _______ _____ _____    ______ ____
ROOT
ATOM      1  C   UNL     1       4.319   4.309  19.455  0.00  0.00    +0.000 A 
ATOM      2  C   UNL     1       4.332   3.093  20.167  0.00  0.00    +0.000 A 
ATOM      3  C   UNL     1       3.306   2.766  21.057  0.00  0.00    +0.000 A 
ATOM      4  F   UNL     1       3.354   1.595  21.709  0.00  0.00    +0.000 F 
ATOM      5  C   UNL     1       2.234   3.619  21.267  0.00  0.00    +0.000 A 
ATOM      6  C   UNL     1       2.231   4.828  20.591  0.00  0.00    +0.000 A 
ATOM      7  C   UNL     1       3.264   5.184  19.732  0.00  0.00    +0.000 A 
ATOM      8  O   UNL     1       3.112   6.454  19.225  0.00  0.00    +0.000 OA
ATOM      9  C   UNL     1       1.800   6.917  19.667  0.00  0.00    +0.000 C 
ATOM     10  C   UNL     1       1.197   5.884  20.631  0.00  0.00    +0.000 C 
ENDROOT
BRANCH   1  14
ATOM     11  C   UNL     1       6.554   4.853  16.265  0.00  0.00    +0.000 A 
ATOM     12  C   UNL     1       7.325   5.230  17.348  0.00  0.00    +0.000 A 
ATOM     13  C   UNL     1       6.636   5.085  18.592  0.00  0.00    +0.000 A 
ATOM     14  C   UNL     1       5.354   4.590  18.441  0.00  0.00    +0.000 A 
ATOM     15  S   UNL     1       5.000   4.355  16.772  0.00  0.00    +0.000 S 
BRANCH  11  17
ATOM     16  C   UNL     1       6.034   3.936  13.972  0.00  0.00    +0.000 C 
ATOM     17  C   UNL     1       6.882   4.835  14.844  0.00  0.00    +0.000 C 
ATOM     18  O   UNL     1       7.779   5.500  14.327  0.00  0.00    +0.000 OA
ENDBRANCH  11  17
ENDBRANCH   1  14
BRANCH   9  19
ATOM     19  C   UNL     1       1.907   8.284  20.369  0.00  0.00    +0.000 C 
BRANCH  19  20
ATOM     20  N   UNL     1       0.925   9.263  19.932  0.00  0.00    +0.000 N 
ATOM     21  C   UNL     1       0.939   9.799  18.660  0.00  0.00    +0.000 C 
ATOM     22  O   UNL     1       1.787   9.487  17.825  0.00  0.00    +0.000 OA
ATOM     23  H   UNL     1       0.294   9.643  20.626  0.00  0.00    +0.000 HD
BRANCH  21  24
ATOM     24  C   UNL     1      -0.199  10.764  18.359  0.00  0.00    +0.000 C 
BRANCH  24  25
ATOM     25  C   UNL     1       0.144  12.161  18.736  0.00  0.00    +0.000 A 
ATOM     26  C   UNL     1      -0.568  13.333  18.494  0.00  0.00    +0.000 A 
ATOM     27  N   UNL     1       0.222  14.323  18.989  0.00  0.00    +0.000 N 
ATOM     28  C   UNL     1       0.208  15.697  19.026  0.00  0.00    +0.000 A 
ATOM     29  C   UNL     1       1.307  16.184  19.630  0.00  0.00    +0.000 A 
ATOM     30  S   UNL     1       2.405  14.909  20.199  0.00  0.00    +0.000 S 
ATOM     31  C   UNL     1       1.310  13.728  19.551  0.00  0.00    +0.000 A 
ATOM     32  N   UNL     1       1.317  12.428  19.434  0.00  0.00    +0.000 NA
ENDBRANCH  24  25
ENDBRANCH  21  24
ENDBRANCH  19  20
ENDBRANCH   9  19
TORSDOF 6
ENDMDL
