MODEL 1
REMARK VINA RESULT:      -9.1      0.000      0.000
REMARK  Name = 
REMARK  11 active torsions:
REMARK  status: ('A' for Active; 'I' for Inactive)
REMARK    1  A    between atoms: C_8  and  C_9
REMARK    2  A    between atoms: C_9  and  N_10
REMARK    3  A    between atoms: N_10  and  C_13
REMARK    4  A    between atoms: C_16  and  C_17
REMARK    5  A    between atoms: N_19  and  CA_20
REMARK    6  A    between atoms: CA_20  and  CB_21
REMARK    7  A    between atoms: CA_20  and  C_26
REMARK    8  A    between atoms: CB_21  and  CG_22
REMARK    9  A    between atoms: CG_22  and  CD_23
REMARK   10  A    between atoms: CD_23  and  OE2_25
REMARK   11  A    between atoms: C_26  and  OXT_28
REMARK                            x       y       z     vdW  Elec       q    Type
REMARK                         _______ _______ _______ _____ _____    ______ ____
ROOT
ATOM      1  C   UNK A   0       1.564   8.392  19.647  0.00  0.00    +0.000 A 
ATOM      2  C   UNK A   0       1.726   7.152  20.262  0.00  0.00    +0.000 A 
ATOM      3  C   UNK A   0       2.490   6.164  19.633  0.00  0.00    +0.000 A 
ATOM      4  C   UNK A   0       3.060   6.393  18.371  0.00  0.00    +0.000 A 
ATOM      5  C   UNK A   0       2.787   7.585  17.698  0.00  0.00    +0.000 A 
ATOM      6  C   UNK A   0       2.059   8.589  18.346  0.00  0.00    +0.000 A 
ENDROOT
BRANCH   4   7
ATOM      7  C   UNK A   0       3.961   5.347  17.815  0.00  0.00    +0.000 C 
ATOM      8  O   UNK A   0       3.936   4.207  18.265  0.00  0.00    +0.000 OA
ATOM      9  N   GLU A   1       4.826   5.731  16.817  0.00  0.00    +0.000 N 
ATOM     10  H   GLU A   1       4.915   6.704  16.547  0.00  0.00    +0.000 HD
BRANCH   9  11
ATOM     11  CA  GLU A   1       5.776   4.790  16.221  0.00  0.00    +0.000 C 
BRANCH  11  12
ATOM     12  C   GLU A   1       7.177   5.247  16.639  0.00  0.00    +0.000 C 
ATOM     13  O   GLU A   1       7.527   6.422  16.632  0.00  0.00    +0.000 OA
BRANCH  12  14
ATOM     14  OXT GLU A   1       7.994   4.256  17.054  0.00  0.00    +0.000 OA
ATOM     15  HXT GLU A   1       7.622   3.348  16.983  0.00  0.00    +0.000 HD
ENDBRANCH  12  14
ENDBRANCH  11  12
BRANCH  11  16
ATOM     16  CB  GLU A   1       5.635   4.782  14.688  0.00  0.00    +0.000 C 
BRANCH  16  17
ATOM     17  CG  GLU A   1       6.096   3.499  14.011  0.00  0.00    +0.000 C 
BRANCH  17  18
ATOM     18  CD  GLU A   1       6.018   3.639  12.519  0.00  0.00    +0.000 C 
ATOM     19  OE1 GLU A   1       5.008   3.343  11.890  0.00  0.00    +0.000 OA
BRANCH  18  20
ATOM     20  OE2 GLU A   1       7.103   4.206  11.958  0.00  0.00    +0.000 OA
ATOM     21  HE2 GLU A   1       7.392   5.037  12.383  0.00  0.00    +0.000 HD
ENDBRANCH  18  20
ENDBRANCH  17  18
ENDBRANCH  16  17
ENDBRANCH  11  16
ENDBRANCH   9  11
ENDBRANCH   4   7
BRANCH   1  22
ATOM     22  N   UNK A   0       1.031   9.481  20.380  0.00  0.00    +0.000 N 
ATOM     23  C   UNK A   0       0.957   9.392  21.761  0.00  0.00    +0.000 C 
ATOM     24  O   UNK A   0       0.650  10.302  22.527  0.00  0.00    +0.000 OA
BRANCH  22  25
ATOM     25  C   UNK A   0       0.859  10.775  19.733  0.00  0.00    +0.000 C 
BRANCH  25  33
ATOM     26  N   UNK A   0      -6.377  11.987  17.009  0.00  0.00    +0.000 N 
ATOM     27  C   UNK A   0      -5.058  11.649  17.230  0.00  0.00    +0.000 A 
ATOM     28  N   UNK A   0      -4.421  10.949  16.293  0.00  0.00    +0.000 NA
ATOM     29  C   UNK A   0      -3.140  10.628  16.544  0.00  0.00    +0.000 A 
ATOM     30  N   UNK A   0      -2.514   9.898  15.527  0.00  0.00    +0.000 N 
ATOM     31  C   UNK A   0      -2.452  11.014  17.706  0.00  0.00    +0.000 A 
ATOM     32  C   UNK A   0      -1.092  10.713  18.038  0.00  0.00    +0.000 A 
ATOM     33  C   UNK A   0      -0.527  11.148  19.246  0.00  0.00    +0.000 A 
ATOM     34  C   UNK A   0      -1.350  11.869  20.121  0.00  0.00    +0.000 A 
ATOM     35  C   UNK A   0      -2.671  12.172  19.784  0.00  0.00    +0.000 A 
ATOM     36  C   UNK A   0      -3.236  11.756  18.592  0.00  0.00    +0.000 A 
ATOM     37  N   UNK A   0      -4.512  12.079  18.363  0.00  0.00    +0.000 NA
ATOM     38  H   UNK A   0      -6.580  11.998  16.020  0.00  0.00    +0.000 HD
ATOM     39  H   UNK A   0      -6.612  12.817  17.539  0.00  0.00    +0.000 HD
ATOM     40  H   UNK A   0      -3.232   9.688  14.834  0.00  0.00    +0.000 HD
ATOM     41  H   UNK A   0      -2.086   9.051  15.885  0.00  0.00    +0.000 HD
ENDBRANCH  25  33
ENDBRANCH  22  25
ENDBRANCH   1  22
TORSDOF 11
ENDMDL
MODEL 2
REMARK VINA RESULT:      -8.9      2.315      2.905
REMARK  Name = 
REMARK  11 active torsions:
REMARK  status: ('A' for Active; 'I' for Inactive)
REMARK    1  A    between atoms: C_8  and  C_9
REMARK    2  A    between atoms: C_9  and  N_10
REMARK    3  A    between atoms: N_10  and  C_13
REMARK    4  A    between atoms: C_16  and  C_17
REMARK    5  A    between atoms: N_19  and  CA_20
REMARK    6  A    between atoms: CA_20  and  CB_21
REMARK    7  A    between atoms: CA_20  and  C_26
REMARK    8  A    between atoms: CB_21  and  CG_22
REMARK    9  A    between atoms: CG_22  and  CD_23
REMARK   10  A    between atoms: CD_23  and  OE2_25
REMARK   11  A    between atoms: C_26  and  OXT_28
REMARK                            x       y       z     vdW  Elec       q    Type
REMARK                         _______ _______ _______ _____ _____    ______ ____
ROOT
ATOM      1  C   UNK A   0       0.888   9.115  20.351  0.00  0.00    +0.000 A 
ATOM      2  C   UNK A   0       1.245   7.874  20.874  0.00  0.00    +0.000 A 
ATOM      3  C   UNK A   0       2.102   7.039  20.150  0.00  0.00    +0.000 A 
ATOM      4  C   UNK A   0       2.574   7.420  18.884  0.00  0.00    +0.000 A 
ATOM      5  C   UNK A   0       2.110   8.602  18.304  0.00  0.00    +0.000 A 
ATOM      6  C   UNK A   0       1.287   9.456  19.047  0.00  0.00    +0.000 A 
ENDROOT
BRANCH   4   7
ATOM      7  C   UNK A   0       3.577   6.543  18.223  0.00  0.00    +0.000 C 
ATOM      8  O   UNK A   0       3.912   6.753  17.062  0.00  0.00    +0.000 OA
ATOM      9  N   GLU A   1       4.070   5.489  18.957  0.00  0.00    +0.000 N 
ATOM     10  H   GLU A   1       3.688   5.262  19.868  0.00  0.00    +0.000 HD
BRANCH   9  11
ATOM     11  CA  GLU A   1       5.038   4.547  18.392  0.00  0.00    +0.000 C 
BRANCH  11  12
ATOM     12  C   GLU A   1       4.548   3.140  18.748  0.00  0.00    +0.000 C 
ATOM     13  O   GLU A   1       3.640   2.575  18.149  0.00  0.00    +0.000 OA
BRANCH  12  14
ATOM     14  OXT GLU A   1       5.221   2.546  19.756  0.00  0.00    +0.000 OA
ATOM     15  HXT GLU A   1       6.089   2.156  19.508  0.00  0.00    +0.000 HD
ENDBRANCH  12  14
ENDBRANCH  11  12
BRANCH  11  16
ATOM     16  CB  GLU A   1       6.440   4.803  18.974  0.00  0.00    +0.000 C 
BRANCH  16  17
ATOM     17  CG  GLU A   1       7.501   5.165  17.944  0.00  0.00    +0.000 C 
BRANCH  17  18
ATOM     18  CD  GLU A   1       7.484   6.641  17.672  0.00  0.00    +0.000 C 
ATOM     19  OE1 GLU A   1       8.093   7.439  18.377  0.00  0.00    +0.000 OA
BRANCH  18  20
ATOM     20  OE2 GLU A   1       6.836   6.989  16.545  0.00  0.00    +0.000 OA
ATOM     21  HE2 GLU A   1       5.968   7.413  16.689  0.00  0.00    +0.000 HD
ENDBRANCH  18  20
ENDBRANCH  17  18
ENDBRANCH  16  17
ENDBRANCH  11  16
ENDBRANCH   9  11
ENDBRANCH   4   7
BRANCH   1  22
ATOM     22  N   UNK A   0       0.251  10.074  21.176  0.00  0.00    +0.000 N 
ATOM     23  C   UNK A   0       0.115   9.814  22.531  0.00  0.00    +0.000 C 
ATOM     24  O   UNK A   0      -0.287  10.605  23.380  0.00  0.00    +0.000 OA
BRANCH  22  25
ATOM     25  C   UNK A   0       0.028  11.425  20.677  0.00  0.00    +0.000 C 
BRANCH  25  33
ATOM     26  N   UNK A   0      -6.823  12.320  17.003  0.00  0.00    +0.000 N 
ATOM     27  C   UNK A   0      -5.522  12.077  17.390  0.00  0.00    +0.000 A 
ATOM     28  N   UNK A   0      -4.683  11.562  16.492  0.00  0.00    +0.000 NA
ATOM     29  C   UNK A   0      -3.425  11.328  16.903  0.00  0.00    +0.000 A 
ATOM     30  N   UNK A   0      -2.582  10.793  15.922  0.00  0.00    +0.000 N 
ATOM     31  C   UNK A   0      -2.959  11.622  18.195  0.00  0.00    +0.000 A 
ATOM     32  C   UNK A   0      -1.638  11.405  18.700  0.00  0.00    +0.000 A 
ATOM     33  C   UNK A   0      -1.304  11.731  20.024  0.00  0.00    +0.000 A 
ATOM     34  C   UNK A   0      -2.319  12.258  20.834  0.00  0.00    +0.000 A 
ATOM     35  C   UNK A   0      -3.602  12.482  20.330  0.00  0.00    +0.000 A 
ATOM     36  C   UNK A   0      -3.939  12.172  19.025  0.00  0.00    +0.000 A 
ATOM     37  N   UNK A   0      -5.196  12.406  18.636  0.00  0.00    +0.000 NA
ATOM     38  H   UNK A   0      -6.881  12.439  16.002  0.00  0.00    +0.000 HD
ATOM     39  H   UNK A   0      -7.221  13.051  17.580  0.00  0.00    +0.000 HD
ATOM     40  H   UNK A   0      -3.165  10.610  15.106  0.00  0.00    +0.000 HD
ATOM     41  H   UNK A   0      -2.122   9.949  16.245  0.00  0.00    +0.000 HD
ENDBRANCH  25  33
ENDBRANCH  22  25
ENDBRANCH   1  22
TORSDOF 11
ENDMDL
MODEL 3
REMARK VINA RESULT:      -8.9      0.788      1.763
REMARK  Name = 
REMARK  11 active torsions:
REMARK  status: ('A' for Active; 'I' for Inactive)
REMARK    1  A    between atoms: C_8  and  C_9
REMARK    2  A    between atoms: C_9  and  N_10
REMARK    3  A    between atoms: N_10  and  C_13
REMARK    4  A    between atoms: C_16  and  C_17
REMARK    5  A    between atoms: N_19  and  CA_20
REMARK    6  A    between atoms: CA_20  and  CB_21
REMARK    7  A    between atoms: CA_20  and  C_26
REMARK    8  A    between atoms: CB_21  and  CG_22
REMARK    9  A    between atoms: CG_22  and  CD_23
REMARK   10  A    between atoms: CD_23  and  OE2_25
REMARK   11  A    between atoms: C_26  and  OXT_28
REMARK                            x       y       z     vdW  Elec       q    Type
REMARK                         _______ _______ _______ _____ _____    ______ ____
ROOT
ATOM      1  C   UNK A   0       1.672   8.360  19.556  0.00  0.00    +0.000 A 
ATOM      2  C   UNK A   0       1.915   7.156  20.215  0.00  0.00    +0.000 A 
ATOM      3  C   UNK A   0       2.763   6.209  19.632  0.00  0.00    +0.000 A 
ATOM      4  C   UNK A   0       3.339   6.440  18.373  0.00  0.00    +0.000 A 
ATOM      5  C   UNK A   0       2.989   7.586  17.656  0.00  0.00    +0.000 A 
ATOM      6  C   UNK A   0       2.175   8.552  18.258  0.00  0.00    +0.000 A 
ENDROOT
BRANCH   4   7
ATOM      7  C   UNK A   0       4.326   5.449  17.866  0.00  0.00    +0.000 C 
ATOM      8  O   UNK A   0       4.796   4.604  18.620  0.00  0.00    +0.000 OA
ATOM      9  N   GLU A   1       4.699   5.553  16.546  0.00  0.00    +0.000 N 
ATOM     10  H   GLU A   1       4.392   6.333  15.976  0.00  0.00    +0.000 HD
BRANCH   9  11
ATOM     11  CA  GLU A   1       5.686   4.649  15.954  0.00  0.00    +0.000 C 
BRANCH  11  12
ATOM     12  C   GLU A   1       7.066   5.147  16.394  0.00  0.00    +0.000 C 
ATOM     13  O   GLU A   1       7.534   6.223  16.037  0.00  0.00    +0.000 OA
BRANCH  12  14
ATOM     14  OXT GLU A   1       7.720   4.324  17.241  0.00  0.00    +0.000 OA
ATOM     15  HXT GLU A   1       7.438   4.380  18.181  0.00  0.00    +0.000 HD
ENDBRANCH  12  14
ENDBRANCH  11  12
BRANCH  11  16
ATOM     16  CB  GLU A   1       5.565   4.651  14.420  0.00  0.00    +0.000 C 
BRANCH  16  17
ATOM     17  CG  GLU A   1       6.605   3.808  13.696  0.00  0.00    +0.000 C 
BRANCH  17  18
ATOM     18  CD  GLU A   1       6.053   3.300  12.396  0.00  0.00    +0.000 C 
ATOM     19  OE1 GLU A   1       6.734   2.647  11.611  0.00  0.00    +0.000 OA
BRANCH  18  20
ATOM     20  OE2 GLU A   1       4.739   3.534  12.223  0.00  0.00    +0.000 OA
ATOM     21  HE2 GLU A   1       4.157   3.075  12.859  0.00  0.00    +0.000 HD
ENDBRANCH  18  20
ENDBRANCH  17  18
ENDBRANCH  16  17
ENDBRANCH  11  16
ENDBRANCH   9  11
ENDBRANCH   4   7
BRANCH   1  22
ATOM     22  N   UNK A   0       1.045   9.428  20.245  0.00  0.00    +0.000 N 
ATOM     23  C   UNK A   0       1.044   9.429  21.630  0.00  0.00    +0.000 C 
ATOM     24  O   UNK A   0       0.664  10.349  22.351  0.00  0.00    +0.000 OA
BRANCH  22  25
ATOM     25  C   UNK A   0       0.687  10.643  19.524  0.00  0.00    +0.000 C 
BRANCH  25  33
ATOM     26  N   UNK A   0      -6.614  12.091  17.109  0.00  0.00    +0.000 N 
ATOM     27  C   UNK A   0      -5.410  11.980  17.772  0.00  0.00    +0.000 A 
ATOM     28  N   UNK A   0      -5.278  12.595  18.946  0.00  0.00    +0.000 NA
ATOM     29  C   UNK A   0      -4.089  12.476  19.562  0.00  0.00    +0.000 A 
ATOM     30  N   UNK A   0      -4.004  13.135  20.794  0.00  0.00    +0.000 N 
ATOM     31  C   UNK A   0      -3.018  11.725  19.051  0.00  0.00    +0.000 A 
ATOM     32  C   UNK A   0      -1.730  11.550  19.651  0.00  0.00    +0.000 A 
ATOM     33  C   UNK A   0      -0.737  10.782  19.025  0.00  0.00    +0.000 A 
ATOM     34  C   UNK A   0      -1.048  10.212  17.784  0.00  0.00    +0.000 A 
ATOM     35  C   UNK A   0      -2.312  10.374  17.211  0.00  0.00    +0.000 A 
ATOM     36  C   UNK A   0      -3.301  11.121  17.824  0.00  0.00    +0.000 A 
ATOM     37  N   UNK A   0      -4.474  11.235  17.194  0.00  0.00    +0.000 NA
ATOM     38  H   UNK A   0      -7.360  12.296  17.758  0.00  0.00    +0.000 HD
ATOM     39  H   UNK A   0      -6.741  11.297  16.494  0.00  0.00    +0.000 HD
ATOM     40  H   UNK A   0      -4.873  13.656  20.907  0.00  0.00    +0.000 HD
ATOM     41  H   UNK A   0      -3.197  13.748  20.833  0.00  0.00    +0.000 HD
ENDBRANCH  25  33
ENDBRANCH  22  25
ENDBRANCH   1  22
TORSDOF 11
ENDMDL
MODEL 4
REMARK VINA RESULT:      -8.9      0.881      1.938
REMARK  Name = 
REMARK  11 active torsions:
REMARK  status: ('A' for Active; 'I' for Inactive)
REMARK    1  A    between atoms: C_8  and  C_9
REMARK    2  A    between atoms: C_9  and  N_10
REMARK    3  A    between atoms: N_10  and  C_13
REMARK    4  A    between atoms: C_16  and  C_17
REMARK    5  A    between atoms: N_19  and  CA_20
REMARK    6  A    between atoms: CA_20  and  CB_21
REMARK    7  A    between atoms: CA_20  and  C_26
REMARK    8  A    between atoms: CB_21  and  CG_22
REMARK    9  A    between atoms: CG_22  and  CD_23
REMARK   10  A    between atoms: CD_23  and  OE2_25
REMARK   11  A    between atoms: C_26  and  OXT_28
REMARK                            x       y       z     vdW  Elec       q    Type
REMARK                         _______ _______ _______ _____ _____    ______ ____
ROOT
ATOM      1  C   UNK A   0       1.621   8.412  19.588  0.00  0.00    +0.000 A 
ATOM      2  C   UNK A   0       2.172   8.629  18.326  0.00  0.00    +0.000 A 
ATOM      3  C   UNK A   0       2.908   7.611  17.711  0.00  0.00    +0.000 A 
ATOM      4  C   UNK A   0       3.133   6.391  18.366  0.00  0.00    +0.000 A 
ATOM      5  C   UNK A   0       2.695   6.225  19.681  0.00  0.00    +0.000 A 
ATOM      6  C   UNK A   0       1.922   7.226  20.280  0.00  0.00    +0.000 A 
ENDROOT
BRANCH   4   7
ATOM      7  C   UNK A   0       3.818   5.310  17.607  0.00  0.00    +0.000 C 
ATOM      8  O   UNK A   0       3.369   4.168  17.616  0.00  0.00    +0.000 OA
ATOM      9  N   GLU A   1       4.973   5.646  16.941  0.00  0.00    +0.000 N 
ATOM     10  H   GLU A   1       5.391   6.563  17.048  0.00  0.00    +0.000 HD
BRANCH   9  11
ATOM     11  CA  GLU A   1       5.742   4.652  16.189  0.00  0.00    +0.000 C 
BRANCH  11  12
ATOM     12  C   GLU A   1       7.221   5.013  16.358  0.00  0.00    +0.000 C 
ATOM     13  O   GLU A   1       7.685   6.102  16.039  0.00  0.00    +0.000 OA
BRANCH  12  14
ATOM     14  OXT GLU A   1       7.976   4.048  16.925  0.00  0.00    +0.000 OA
ATOM     15  HXT GLU A   1       7.533   3.177  17.030  0.00  0.00    +0.000 HD
ENDBRANCH  12  14
ENDBRANCH  11  12
BRANCH  11  16
ATOM     16  CB  GLU A   1       5.339   4.671  14.703  0.00  0.00    +0.000 C 
BRANCH  16  17
ATOM     17  CG  GLU A   1       6.396   4.136  13.748  0.00  0.00    +0.000 C 
BRANCH  17  18
ATOM     18  CD  GLU A   1       5.750   3.367  12.633  0.00  0.00    +0.000 C 
ATOM     19  OE1 GLU A   1       4.610   3.610  12.250  0.00  0.00    +0.000 OA
BRANCH  18  20
ATOM     20  OE2 GLU A   1       6.560   2.473  12.035  0.00  0.00    +0.000 OA
ATOM     21  HE2 GLU A   1       7.433   2.367  12.461  0.00  0.00    +0.000 HD
ENDBRANCH  18  20
ENDBRANCH  17  18
ENDBRANCH  16  17
ENDBRANCH  11  16
ENDBRANCH   9  11
ENDBRANCH   4   7
BRANCH   1  22
ATOM     22  N   UNK A   0       0.659   9.315  20.104  0.00  0.00    +0.000 N 
ATOM     23  C   UNK A   0       0.235   9.171  21.415  0.00  0.00    +0.000 C 
ATOM     24  O   UNK A   0      -0.483   9.955  22.031  0.00  0.00    +0.000 OA
BRANCH  22  25
ATOM     25  C   UNK A   0       0.357  10.543  19.380  0.00  0.00    +0.000 C 
BRANCH  25  33
ATOM     26  N   UNK A   0      -6.863  12.279  16.912  0.00  0.00    +0.000 N 
ATOM     27  C   UNK A   0      -5.671  12.114  17.586  0.00  0.00    +0.000 A 
ATOM     28  N   UNK A   0      -5.535  12.699  18.776  0.00  0.00    +0.000 NA
ATOM     29  C   UNK A   0      -4.358  12.527  19.403  0.00  0.00    +0.000 A 
ATOM     30  N   UNK A   0      -4.267  13.156  20.650  0.00  0.00    +0.000 N 
ATOM     31  C   UNK A   0      -3.305  11.754  18.888  0.00  0.00    +0.000 A 
ATOM     32  C   UNK A   0      -2.031  11.525  19.499  0.00  0.00    +0.000 A 
ATOM     33  C   UNK A   0      -1.055  10.739  18.868  0.00  0.00    +0.000 A 
ATOM     34  C   UNK A   0      -1.369  10.207  17.610  0.00  0.00    +0.000 A 
ATOM     35  C   UNK A   0      -2.619  10.422  17.027  0.00  0.00    +0.000 A 
ATOM     36  C   UNK A   0      -3.592  11.187  17.644  0.00  0.00    +0.000 A 
ATOM     37  N   UNK A   0      -4.752  11.353  17.003  0.00  0.00    +0.000 NA
ATOM     38  H   UNK A   0      -7.610  12.494  17.556  0.00  0.00    +0.000 HD
ATOM     39  H   UNK A   0      -7.007  11.503  16.277  0.00  0.00    +0.000 HD
ATOM     40  H   UNK A   0      -5.121  13.702  20.765  0.00  0.00    +0.000 HD
ATOM     41  H   UNK A   0      -3.442  13.742  20.713  0.00  0.00    +0.000 HD
ENDBRANCH  25  33
ENDBRANCH  22  25
ENDBRANCH   1  22
TORSDOF 11
ENDMDL
MODEL 5
REMARK VINA RESULT:      -8.8      1.809      2.461
REMARK  Name = 
REMARK  11 active torsions:
REMARK  status: ('A' for Active; 'I' for Inactive)
REMARK    1  A    between atoms: C_8  and  C_9
REMARK    2  A    between atoms: C_9  and  N_10
REMARK    3  A    between atoms: N_10  and  C_13
REMARK    4  A    between atoms: C_16  and  C_17
REMARK    5  A    between atoms: N_19  and  CA_20
REMARK    6  A    between atoms: CA_20  and  CB_21
REMARK    7  A    between atoms: CA_20  and  C_26
REMARK    8  A    between atoms: CB_21  and  CG_22
REMARK    9  A    between atoms: CG_22  and  CD_23
REMARK   10  A    between atoms: CD_23  and  OE2_25
REMARK   11  A    between atoms: C_26  and  OXT_28
REMARK                            x       y       z     vdW  Elec       q    Type
REMARK                         _______ _______ _______ _____ _____    ______ ____
ROOT
ATOM      1  C   UNK A   0       1.553   9.854  19.103  0.00  0.00    +0.000 A 
ATOM      2  C   UNK A   0       1.345   8.986  20.173  0.00  0.00    +0.000 A 
ATOM      3  C   UNK A   0       1.678   7.634  20.040  0.00  0.00    +0.000 A 
ATOM      4  C   UNK A   0       2.181   7.135  18.829  0.00  0.00    +0.000 A 
ATOM      5  C   UNK A   0       2.264   7.977  17.719  0.00  0.00    +0.000 A 
ATOM      6  C   UNK A   0       1.971   9.337  17.864  0.00  0.00    +0.000 A 
ENDROOT
BRANCH   4   7
ATOM      7  C   UNK A   0       2.630   5.716  18.794  0.00  0.00    +0.000 C 
ATOM      8  O   UNK A   0       2.100   4.882  19.521  0.00  0.00    +0.000 OA
ATOM      9  N   GLU A   1       3.669   5.408  17.948  0.00  0.00    +0.000 N 
ATOM     10  H   GLU A   1       4.172   6.134  17.450  0.00  0.00    +0.000 HD
BRANCH   9  11
ATOM     11  CA  GLU A   1       4.209   4.050  17.859  0.00  0.00    +0.000 C 
BRANCH  11  12
ATOM     12  C   GLU A   1       5.113   3.849  19.079  0.00  0.00    +0.000 C 
ATOM     13  O   GLU A   1       5.013   2.890  19.837  0.00  0.00    +0.000 OA
BRANCH  12  14
ATOM     14  OXT GLU A   1       6.061   4.796  19.241  0.00  0.00    +0.000 OA
ATOM     15  HXT GLU A   1       6.462   4.839  20.137  0.00  0.00    +0.000 HD
ENDBRANCH  12  14
ENDBRANCH  11  12
BRANCH  11  16
ATOM     16  CB  GLU A   1       5.003   3.871  16.552  0.00  0.00    +0.000 C 
BRANCH  16  17
ATOM     17  CG  GLU A   1       5.601   5.153  15.989  0.00  0.00    +0.000 C 
BRANCH  17  18
ATOM     18  CD  GLU A   1       7.086   5.010  15.831  0.00  0.00    +0.000 C 
ATOM     19  OE1 GLU A   1       7.788   4.508  16.703  0.00  0.00    +0.000 OA
BRANCH  18  20
ATOM     20  OE2 GLU A   1       7.553   5.381  14.624  0.00  0.00    +0.000 OA
ATOM     21  HE2 GLU A   1       8.506   5.593  14.604  0.00  0.00    +0.000 HD
ENDBRANCH  18  20
ENDBRANCH  17  18
ENDBRANCH  16  17
ENDBRANCH  11  16
ENDBRANCH   9  11
ENDBRANCH   4   7
BRANCH   1  22
ATOM     22  N   UNK A   0       1.480  11.255  19.304  0.00  0.00    +0.000 N 
ATOM     23  C   UNK A   0       2.149  12.097  18.430  0.00  0.00    +0.000 C 
ATOM     24  O   UNK A   0       2.062  13.322  18.401  0.00  0.00    +0.000 OA
BRANCH  22  25
ATOM     25  C   UNK A   0       0.481  11.805  20.210  0.00  0.00    +0.000 C 
BRANCH  25  33
ATOM     26  N   UNK A   0      -6.776  11.892  17.282  0.00  0.00    +0.000 N 
ATOM     27  C   UNK A   0      -5.422  11.795  17.530  0.00  0.00    +0.000 A 
ATOM     28  N   UNK A   0      -4.634  11.348  16.554  0.00  0.00    +0.000 NA
ATOM     29  C   UNK A   0      -3.321  11.256  16.831  0.00  0.00    +0.000 A 
ATOM     30  N   UNK A   0      -2.535  10.787  15.772  0.00  0.00    +0.000 N 
ATOM     31  C   UNK A   0      -2.755  11.629  18.061  0.00  0.00    +0.000 A 
ATOM     32  C   UNK A   0      -1.373  11.562  18.424  0.00  0.00    +0.000 A 
ATOM     33  C   UNK A   0      -0.938  11.955  19.699  0.00  0.00    +0.000 A 
ATOM     34  C   UNK A   0      -1.912  12.393  20.606  0.00  0.00    +0.000 A 
ATOM     35  C   UNK A   0      -3.257  12.470  20.240  0.00  0.00    +0.000 A 
ATOM     36  C   UNK A   0      -3.695  12.095  18.984  0.00  0.00    +0.000 A 
ATOM     37  N   UNK A   0      -5.004  12.186  18.728  0.00  0.00    +0.000 NA
ATOM     38  H   UNK A   0      -6.951  11.979  16.291  0.00  0.00    +0.000 HD
ATOM     39  H   UNK A   0      -7.186  12.591  17.888  0.00  0.00    +0.000 HD
ATOM     40  H   UNK A   0      -3.178  10.524  15.026  0.00  0.00    +0.000 HD
ATOM     41  H   UNK A   0      -1.956  10.004  16.055  0.00  0.00    +0.000 HD
ENDBRANCH  25  33
ENDBRANCH  22  25
ENDBRANCH   1  22
TORSDOF 11
ENDMDL
MODEL 6
REMARK VINA RESULT:      -8.7      1.218      1.750
REMARK  Name = 
REMARK  11 active torsions:
REMARK  status: ('A' for Active; 'I' for Inactive)
REMARK    1  A    between atoms: C_8  and  C_9
REMARK    2  A    between atoms: C_9  and  N_10
REMARK    3  A    between atoms: N_10  and  C_13
REMARK    4  A    between atoms: C_16  and  C_17
REMARK    5  A    between atoms: N_19  and  CA_20
REMARK    6  A    between atoms: CA_20  and  CB_21
REMARK    7  A    between atoms: CA_20  and  C_26
REMARK    8  A    between atoms: CB_21  and  CG_22
REMARK    9  A    between atoms: CG_22  and  CD_23
REMARK   10  A    between atoms: CD_23  and  OE2_25
REMARK   11  A    between atoms: C_26  and  OXT_28
REMARK                            x       y       z     vdW  Elec       q    Type
REMARK                         _______ _______ _______ _____ _____    ______ ____
ROOT
ATOM      1  C   UNK A   0       1.059   9.168  20.641  0.00  0.00    +0.000 A 
ATOM      2  C   UNK A   0       1.448   9.425  19.327  0.00  0.00    +0.000 A 
ATOM      3  C   UNK A   0       2.075   8.419  18.584  0.00  0.00    +0.000 A 
ATOM      4  C   UNK A   0       2.352   7.169  19.158  0.00  0.00    +0.000 A 
ATOM      5  C   UNK A   0       2.083   6.959  20.512  0.00  0.00    +0.000 A 
ATOM      6  C   UNK A   0       1.417   7.950  21.243  0.00  0.00    +0.000 A 
ENDROOT
BRANCH   4   7
ATOM      7  C   UNK A   0       2.908   6.106  18.278  0.00  0.00    +0.000 C 
ATOM      8  O   UNK A   0       2.165   5.272  17.771  0.00  0.00    +0.000 OA
ATOM      9  N   GLU A   1       4.271   6.090  18.097  0.00  0.00    +0.000 N 
ATOM     10  H   GLU A   1       4.876   6.711  18.623  0.00  0.00    +0.000 HD
BRANCH   9  11
ATOM     11  CA  GLU A   1       4.924   5.069  17.275  0.00  0.00    +0.000 C 
BRANCH  11  12
ATOM     12  C   GLU A   1       6.157   4.596  18.052  0.00  0.00    +0.000 C 
ATOM     13  O   GLU A   1       7.259   4.450  17.534  0.00  0.00    +0.000 OA
BRANCH  12  14
ATOM     14  OXT GLU A   1       5.948   4.385  19.368  0.00  0.00    +0.000 OA
ATOM     15  HXT GLU A   1       6.583   3.770  19.800  0.00  0.00    +0.000 HD
ENDBRANCH  12  14
ENDBRANCH  11  12
BRANCH  11  16
ATOM     16  CB  GLU A   1       5.327   5.655  15.910  0.00  0.00    +0.000 C 
BRANCH  16  17
ATOM     17  CG  GLU A   1       5.292   4.664  14.755  0.00  0.00    +0.000 C 
BRANCH  17  18
ATOM     18  CD  GLU A   1       6.626   4.613  14.070  0.00  0.00    +0.000 C 
ATOM     19  OE1 GLU A   1       6.785   4.038  12.998  0.00  0.00    +0.000 OA
BRANCH  18  20
ATOM     20  OE2 GLU A   1       7.588   5.332  14.678  0.00  0.00    +0.000 OA
ATOM     21  HE2 GLU A   1       7.946   4.925  15.491  0.00  0.00    +0.000 HD
ENDBRANCH  18  20
ENDBRANCH  17  18
ENDBRANCH  16  17
ENDBRANCH  11  16
ENDBRANCH   9  11
ENDBRANCH   4   7
BRANCH   1  22
ATOM     22  N   UNK A   0       0.192  10.067  21.310  0.00  0.00    +0.000 N 
ATOM     23  C   UNK A   0      -0.220   9.772  22.600  0.00  0.00    +0.000 C 
ATOM     24  O   UNK A   0      -0.852  10.519  23.343  0.00  0.00    +0.000 OA
BRANCH  22  25
ATOM     25  C   UNK A   0      -0.009  11.409  20.779  0.00  0.00    +0.000 C 
BRANCH  25  33
ATOM     26  N   UNK A   0      -6.795  12.256  16.974  0.00  0.00    +0.000 N 
ATOM     27  C   UNK A   0      -5.508  11.989  17.396  0.00  0.00    +0.000 A 
ATOM     28  N   UNK A   0      -4.695  11.340  16.564  0.00  0.00    +0.000 NA
ATOM     29  C   UNK A   0      -3.452  11.087  17.008  0.00  0.00    +0.000 A 
ATOM     30  N   UNK A   0      -2.635  10.408  16.096  0.00  0.00    +0.000 N 
ATOM     31  C   UNK A   0      -2.975  11.493  18.266  0.00  0.00    +0.000 A 
ATOM     32  C   UNK A   0      -1.668  11.263  18.802  0.00  0.00    +0.000 A 
ATOM     33  C   UNK A   0      -1.322  11.712  20.086  0.00  0.00    +0.000 A 
ATOM     34  C   UNK A   0      -2.310  12.372  20.826  0.00  0.00    +0.000 A 
ATOM     35  C   UNK A   0      -3.578  12.606  20.291  0.00  0.00    +0.000 A 
ATOM     36  C   UNK A   0      -3.927  12.177  19.024  0.00  0.00    +0.000 A 
ATOM     37  N   UNK A   0      -5.169  12.431  18.602  0.00  0.00    +0.000 NA
ATOM     38  H   UNK A   0      -6.843  12.270  15.966  0.00  0.00    +0.000 HD
ATOM     39  H   UNK A   0      -7.156  13.063  17.467  0.00  0.00    +0.000 HD
ATOM     40  H   UNK A   0      -3.224  10.168  15.300  0.00  0.00    +0.000 HD
ATOM     41  H   UNK A   0      -2.220   9.581  16.511  0.00  0.00    +0.000 HD
ENDBRANCH  25  33
ENDBRANCH  22  25
ENDBRANCH   1  22
TORSDOF 11
ENDMDL
MODEL 7
REMARK VINA RESULT:      -8.6      0.787      1.229
REMARK  Name = 
REMARK  11 active torsions:
REMARK  status: ('A' for Active; 'I' for Inactive)
REMARK    1  A    between atoms: C_8  and  C_9
REMARK    2  A    between atoms: C_9  and  N_10
REMARK    3  A    between atoms: N_10  and  C_13
REMARK    4  A    between atoms: C_16  and  C_17
REMARK    5  A    between atoms: N_19  and  CA_20
REMARK    6  A    between atoms: CA_20  and  CB_21
REMARK    7  A    between atoms: CA_20  and  C_26
REMARK    8  A    between atoms: CB_21  and  CG_22
REMARK    9  A    between atoms: CG_22  and  CD_23
REMARK   10  A    between atoms: CD_23  and  OE2_25
REMARK   11  A    between atoms: C_26  and  OXT_28
REMARK                            x       y       z     vdW  Elec       q    Type
REMARK                         _______ _______ _______ _____ _____    ______ ____
ROOT
ATOM      1  C   UNK A   0       1.381   8.458  20.093  0.00  0.00    +0.000 A 
ATOM      2  C   UNK A   0       1.867   8.767  18.824  0.00  0.00    +0.000 A 
ATOM      3  C   UNK A   0       2.556   7.794  18.093  0.00  0.00    +0.000 A 
ATOM      4  C   UNK A   0       2.800   6.525  18.639  0.00  0.00    +0.000 A 
ATOM      5  C   UNK A   0       2.430   6.261  19.959  0.00  0.00    +0.000 A 
ATOM      6  C   UNK A   0       1.704   7.220  20.674  0.00  0.00    +0.000 A 
ENDROOT
BRANCH   4   7
ATOM      7  C   UNK A   0       3.429   5.500  17.763  0.00  0.00    +0.000 C 
ATOM      8  O   UNK A   0       2.820   4.475  17.475  0.00  0.00    +0.000 OA
ATOM      9  N   GLU A   1       4.713   5.743  17.335  0.00  0.00    +0.000 N 
ATOM     10  H   GLU A   1       5.240   6.536  17.685  0.00  0.00    +0.000 HD
BRANCH   9  11
ATOM     11  CA  GLU A   1       5.437   4.787  16.495  0.00  0.00    +0.000 C 
BRANCH  11  12
ATOM     12  C   GLU A   1       6.894   4.795  16.966  0.00  0.00    +0.000 C 
ATOM     13  O   GLU A   1       7.757   5.506  16.463  0.00  0.00    +0.000 OA
BRANCH  12  14
ATOM     14  OXT GLU A   1       7.154   3.980  18.011  0.00  0.00    +0.000 OA
ATOM     15  HXT GLU A   1       6.519   3.239  18.132  0.00  0.00    +0.000 HD
ENDBRANCH  12  14
ENDBRANCH  11  12
BRANCH  11  16
ATOM     16  CB  GLU A   1       5.337   5.189  15.013  0.00  0.00    +0.000 C 
BRANCH  16  17
ATOM     17  CG  GLU A   1       5.301   4.022  14.036  0.00  0.00    +0.000 C 
BRANCH  17  18
ATOM     18  CD  GLU A   1       6.518   4.039  13.158  0.00  0.00    +0.000 C 
ATOM     19  OE1 GLU A   1       7.380   4.907  13.257  0.00  0.00    +0.000 OA
BRANCH  18  20
ATOM     20  OE2 GLU A   1       6.625   2.976  12.339  0.00  0.00    +0.000 OA
ATOM     21  HE2 GLU A   1       7.474   2.917  11.858  0.00  0.00    +0.000 HD
ENDBRANCH  18  20
ENDBRANCH  17  18
ENDBRANCH  16  17
ENDBRANCH  11  16
ENDBRANCH   9  11
ENDBRANCH   4   7
BRANCH   1  22
ATOM     22  N   UNK A   0       0.459   9.326  20.728  0.00  0.00    +0.000 N 
ATOM     23  C   UNK A   0      -0.102   8.946  21.937  0.00  0.00    +0.000 C 
ATOM     24  O   UNK A   0      -0.802   9.650  22.660  0.00  0.00    +0.000 OA
BRANCH  22  25
ATOM     25  C   UNK A   0       0.343  10.709  20.284  0.00  0.00    +0.000 C 
BRANCH  25  33
ATOM     26  N   UNK A   0      -6.539  12.262  16.897  0.00  0.00    +0.000 N 
ATOM     27  C   UNK A   0      -5.272  11.843  17.249  0.00  0.00    +0.000 A 
ATOM     28  N   UNK A   0      -4.623  11.032  16.415  0.00  0.00    +0.000 NA
ATOM     29  C   UNK A   0      -3.395  10.635  16.792  0.00  0.00    +0.000 A 
ATOM     30  N   UNK A   0      -2.752   9.790  15.879  0.00  0.00    +0.000 N 
ATOM     31  C   UNK A   0      -2.770  11.050  17.979  0.00  0.00    +0.000 A 
ATOM     32  C   UNK A   0      -1.469  10.672  18.441  0.00  0.00    +0.000 A 
ATOM     33  C   UNK A   0      -0.966  11.149  19.661  0.00  0.00    +0.000 A 
ATOM     34  C   UNK A   0      -1.794  11.990  20.416  0.00  0.00    +0.000 A 
ATOM     35  C   UNK A   0      -3.057  12.366  19.952  0.00  0.00    +0.000 A 
ATOM     36  C   UNK A   0      -3.559  11.910  18.748  0.00  0.00    +0.000 A 
ATOM     37  N   UNK A   0      -4.783  12.310  18.393  0.00  0.00    +0.000 NA
ATOM     38  H   UNK A   0      -6.663  12.217  15.896  0.00  0.00    +0.000 HD
ATOM     39  H   UNK A   0      -6.747  13.142  17.352  0.00  0.00    +0.000 HD
ATOM     40  H   UNK A   0      -3.429   9.585  15.145  0.00  0.00    +0.000 HD
ATOM     41  H   UNK A   0      -2.423   8.941  16.326  0.00  0.00    +0.000 HD
ENDBRANCH  25  33
ENDBRANCH  22  25
ENDBRANCH   1  22
TORSDOF 11
ENDMDL
MODEL 8
REMARK VINA RESULT:      -8.6      2.631      3.805
REMARK  Name = 
REMARK  11 active torsions:
REMARK  status: ('A' for Active; 'I' for Inactive)
REMARK    1  A    between atoms: C_8  and  C_9
REMARK    2  A    between atoms: C_9  and  N_10
REMARK    3  A    between atoms: N_10  and  C_13
REMARK    4  A    between atoms: C_16  and  C_17
REMARK    5  A    between atoms: N_19  and  CA_20
REMARK    6  A    between atoms: CA_20  and  CB_21
REMARK    7  A    between atoms: CA_20  and  C_26
REMARK    8  A    between atoms: CB_21  and  CG_22
REMARK    9  A    between atoms: CG_22  and  CD_23
REMARK   10  A    between atoms: CD_23  and  OE2_25
REMARK   11  A    between atoms: C_26  and  OXT_28
REMARK                            x       y       z     vdW  Elec       q    Type
REMARK                         _______ _______ _______ _____ _____    ______ ____
ROOT
ATOM      1  C   UNK A   0       1.028   9.649  18.868  0.00  0.00    +0.000 A 
ATOM      2  C   UNK A   0       1.875   9.348  17.803  0.00  0.00    +0.000 A 
ATOM      3  C   UNK A   0       2.663   8.193  17.853  0.00  0.00    +0.000 A 
ATOM      4  C   UNK A   0       2.641   7.358  18.980  0.00  0.00    +0.000 A 
ATOM      5  C   UNK A   0       1.894   7.731  20.099  0.00  0.00    +0.000 A 
ATOM      6  C   UNK A   0       1.074   8.863  20.032  0.00  0.00    +0.000 A 
ENDROOT
BRANCH   4   7
ATOM      7  C   UNK A   0       3.408   6.085  18.918  0.00  0.00    +0.000 C 
ATOM      8  O   UNK A   0       3.165   5.176  19.705  0.00  0.00    +0.000 OA
ATOM      9  N   GLU A   1       4.406   5.999  17.975  0.00  0.00    +0.000 N 
ATOM     10  H   GLU A   1       4.671   6.804  17.419  0.00  0.00    +0.000 HD
BRANCH   9  11
ATOM     11  CA  GLU A   1       5.242   4.804  17.848  0.00  0.00    +0.000 C 
BRANCH  11  12
ATOM     12  C   GLU A   1       6.690   5.249  18.071  0.00  0.00    +0.000 C 
ATOM     13  O   GLU A   1       7.026   6.426  18.144  0.00  0.00    +0.000 OA
BRANCH  12  14
ATOM     14  OXT GLU A   1       7.575   4.239  18.218  0.00  0.00    +0.000 OA
ATOM     15  HXT GLU A   1       8.508   4.517  18.357  0.00  0.00    +0.000 HD
ENDBRANCH  12  14
ENDBRANCH  11  12
BRANCH  11  16
ATOM     16  CB  GLU A   1       5.070   4.172  16.455  0.00  0.00    +0.000 C 
BRANCH  16  17
ATOM     17  CG  GLU A   1       5.359   5.108  15.290  0.00  0.00    +0.000 C 
BRANCH  17  18
ATOM     18  CD  GLU A   1       6.583   4.656  14.549  0.00  0.00    +0.000 C 
ATOM     19  OE1 GLU A   1       7.640   5.279  14.598  0.00  0.00    +0.000 OA
BRANCH  18  20
ATOM     20  OE2 GLU A   1       6.447   3.472  13.923  0.00  0.00    +0.000 OA
ATOM     21  HE2 GLU A   1       7.097   3.311  13.212  0.00  0.00    +0.000 HD
ENDBRANCH  18  20
ENDBRANCH  17  18
ENDBRANCH  16  17
ENDBRANCH  11  16
ENDBRANCH   9  11
ENDBRANCH   4   7
BRANCH   1  22
ATOM     22  N   UNK A   0       0.036  10.650  18.721  0.00  0.00    +0.000 N 
ATOM     23  C   UNK A   0      -1.145  10.337  18.066  0.00  0.00    +0.000 C 
ATOM     24  O   UNK A   0      -2.138  11.057  17.988  0.00  0.00    +0.000 OA
BRANCH  22  25
ATOM     25  C   UNK A   0       0.122  11.875  19.505  0.00  0.00    +0.000 C 
BRANCH  25  33
ATOM     26  N   UNK A   0      -5.370  12.644  25.028  0.00  0.00    +0.000 N 
ATOM     27  C   UNK A   0      -4.562  12.703  23.911  0.00  0.00    +0.000 A 
ATOM     28  N   UNK A   0      -4.960  13.454  22.885  0.00  0.00    +0.000 NA
ATOM     29  C   UNK A   0      -4.155  13.482  21.808  0.00  0.00    +0.000 A 
ATOM     30  N   UNK A   0      -4.614  14.290  20.761  0.00  0.00    +0.000 N 
ATOM     31  C   UNK A   0      -2.930  12.798  21.731  0.00  0.00    +0.000 A 
ATOM     32  C   UNK A   0      -2.024  12.786  20.623  0.00  0.00    +0.000 A 
ATOM     33  C   UNK A   0      -0.834  12.044  20.669  0.00  0.00    +0.000 A 
ATOM     34  C   UNK A   0      -0.580  11.302  21.830  0.00  0.00    +0.000 A 
ATOM     35  C   UNK A   0      -1.461  11.331  22.913  0.00  0.00    +0.000 A 
ATOM     36  C   UNK A   0      -2.632  12.065  22.882  0.00  0.00    +0.000 A 
ATOM     37  N   UNK A   0      -3.423  12.020  23.958  0.00  0.00    +0.000 NA
ATOM     38  H   UNK A   0      -5.958  13.462  25.085  0.00  0.00    +0.000 HD
ATOM     39  H   UNK A   0      -4.813  12.416  25.841  0.00  0.00    +0.000 HD
ATOM     40  H   UNK A   0      -5.541  14.616  21.029  0.00  0.00    +0.000 HD
ATOM     41  H   UNK A   0      -4.639  13.782  19.883  0.00  0.00    +0.000 HD
ENDBRANCH  25  33
ENDBRANCH  22  25
ENDBRANCH   1  22
TORSDOF 11
ENDMDL
MODEL 9
REMARK VINA RESULT:      -8.5      2.270      3.074
REMARK  Name = 
REMARK  11 active torsions:
REMARK  status: ('A' for Active; 'I' for Inactive)
REMARK    1  A    between atoms: C_8  and  C_9
REMARK    2  A    between atoms: C_9  and  N_10
REMARK    3  A    between atoms: N_10  and  C_13
REMARK    4  A    between atoms: C_16  and  C_17
REMARK    5  A    between atoms: N_19  and  CA_20
REMARK    6  A    between atoms: CA_20  and  CB_21
REMARK    7  A    between atoms: CA_20  and  C_26
REMARK    8  A    between atoms: CB_21  and  CG_22
REMARK    9  A    between atoms: CG_22  and  CD_23
REMARK   10  A    between atoms: CD_23  and  OE2_25
REMARK   11  A    between atoms: C_26  and  OXT_28
REMARK                            x       y       z     vdW  Elec       q    Type
REMARK                         _______ _______ _______ _____ _____    ______ ____
ROOT
ATOM      1  C   UNK A   0       1.030   8.952  20.236  0.00  0.00    +0.000 A 
ATOM      2  C   UNK A   0       1.384   7.709  20.758  0.00  0.00    +0.000 A 
ATOM      3  C   UNK A   0       2.237   6.872  20.030  0.00  0.00    +0.000 A 
ATOM      4  C   UNK A   0       2.705   7.252  18.763  0.00  0.00    +0.000 A 
ATOM      5  C   UNK A   0       2.244   8.437  18.185  0.00  0.00    +0.000 A 
ATOM      6  C   UNK A   0       1.426   9.292  18.931  0.00  0.00    +0.000 A 
ENDROOT
BRANCH   4   7
ATOM      7  C   UNK A   0       3.704   6.373  18.098  0.00  0.00    +0.000 C 
ATOM      8  O   UNK A   0       3.357   5.304  17.607  0.00  0.00    +0.000 OA
ATOM      9  N   GLU A   1       5.012   6.798  18.097  0.00  0.00    +0.000 N 
ATOM     10  H   GLU A   1       5.295   7.622  18.615  0.00  0.00    +0.000 HD
BRANCH   9  11
ATOM     11  CA  GLU A   1       6.080   5.994  17.497  0.00  0.00    +0.000 C 
BRANCH  11  12
ATOM     12  C   GLU A   1       6.605   5.064  18.595  0.00  0.00    +0.000 C 
ATOM     13  O   GLU A   1       6.786   5.428  19.751  0.00  0.00    +0.000 OA
BRANCH  12  14
ATOM     14  OXT GLU A   1       6.822   3.792  18.199  0.00  0.00    +0.000 OA
ATOM     15  HXT GLU A   1       7.547   3.673  17.546  0.00  0.00    +0.000 HD
ENDBRANCH  12  14
ENDBRANCH  11  12
BRANCH  11  16
ATOM     16  CB  GLU A   1       7.202   6.903  16.964  0.00  0.00    +0.000 C 
BRANCH  16  17
ATOM     17  CG  GLU A   1       7.133   8.348  17.438  0.00  0.00    +0.000 C 
BRANCH  17  18
ATOM     18  CD  GLU A   1       8.322   8.674  18.294  0.00  0.00    +0.000 C 
ATOM     19  OE1 GLU A   1       8.801   9.803  18.339  0.00  0.00    +0.000 OA
BRANCH  18  20
ATOM     20  OE2 GLU A   1       8.740   7.658  19.072  0.00  0.00    +0.000 OA
ATOM     21  HE2 GLU A   1       9.710   7.593  19.170  0.00  0.00    +0.000 HD
ENDBRANCH  18  20
ENDBRANCH  17  18
ENDBRANCH  16  17
ENDBRANCH  11  16
ENDBRANCH   9  11
ENDBRANCH   4   7
BRANCH   1  22
ATOM     22  N   UNK A   0       0.399   9.913  21.064  0.00  0.00    +0.000 N 
ATOM     23  C   UNK A   0       0.262   9.650  22.418  0.00  0.00    +0.000 C 
ATOM     24  O   UNK A   0      -0.135  10.441  23.270  0.00  0.00    +0.000 OA
BRANCH  22  25
ATOM     25  C   UNK A   0       0.183  11.266  20.568  0.00  0.00    +0.000 C 
BRANCH  25  33
ATOM     26  N   UNK A   0      -6.800  12.242  17.174  0.00  0.00    +0.000 N 
ATOM     27  C   UNK A   0      -5.496  11.953  17.517  0.00  0.00    +0.000 A 
ATOM     28  N   UNK A   0      -4.742  11.299  16.634  0.00  0.00    +0.000 NA
ATOM     29  C   UNK A   0      -3.479  11.025  17.003  0.00  0.00    +0.000 A 
ATOM     30  N   UNK A   0      -2.727  10.342  16.039  0.00  0.00    +0.000 N 
ATOM     31  C   UNK A   0      -2.923  11.413  18.233  0.00  0.00    +0.000 A 
ATOM     32  C   UNK A   0      -1.591  11.160  18.690  0.00  0.00    +0.000 A 
ATOM     33  C   UNK A   0      -1.164  11.593  19.955  0.00  0.00    +0.000 A 
ATOM     34  C   UNK A   0      -2.097  12.261  20.758  0.00  0.00    +0.000 A 
ATOM     35  C   UNK A   0      -3.391  12.518  20.299  0.00  0.00    +0.000 A 
ATOM     36  C   UNK A   0      -3.820  12.105  19.052  0.00  0.00    +0.000 A 
ATOM     37  N   UNK A   0      -5.081  12.380  18.705  0.00  0.00    +0.000 NA
ATOM     38  H   UNK A   0      -6.908  12.265  16.170  0.00  0.00    +0.000 HD
ATOM     39  H   UNK A   0      -7.120  13.049  17.693  0.00  0.00    +0.000 HD
ATOM     40  H   UNK A   0      -3.365  10.118  15.277  0.00  0.00    +0.000 HD
ATOM     41  H   UNK A   0      -2.300   9.506  16.423  0.00  0.00    +0.000 HD
ENDBRANCH  25  33
ENDBRANCH  22  25
ENDBRANCH   1  22
TORSDOF 11
ENDMDL
