MODEL 1
REMARK VINA RESULT:      -7.2      0.000      0.000
REMARK  Name = 
REMARK  9 active torsions:
REMARK  status: ('A' for Active; 'I' for Inactive)
REMARK    1  A    between atoms: C_1  and  O_2
REMARK    2  A    between atoms: O_2  and  C_3
REMARK    3  A    between atoms: C_9  and  C_10
REMARK    4  A    between atoms: C_10  and  C_11
REMARK    5  A    between atoms: C_10  and  N_12
REMARK    6  A    between atoms: N_15  and  C_16
REMARK    7  A    between atoms: N_15  and  S_17
REMARK    8  A    between atoms: S_17  and  C_20
REMARK    9  A    between atoms: C_23  and  C_24
REMARK                            x       y       z     vdW  Elec       q    Type
REMARK                         _______ _______ _______ _____ _____    ______ ____
ROOT
ATOM      1  N   UNL     1       2.100   6.934  18.699  0.00  0.00    +0.000 N 
ATOM      2  C   UNL     1       1.786   8.245  18.458  0.00  0.00    +0.000 C 
ATOM      3  O   UNL     1       1.909   8.736  17.344  0.00  0.00    +0.000 OA
ATOM      4  N   UNL     1       1.293   8.975  19.564  0.00  0.00    +0.000 N 
ATOM      5  C   UNL     1       1.256   8.512  20.966  0.00  0.00    +0.000 C 
ATOM      6  H   UNL     1       1.813   6.500  19.560  0.00  0.00    +0.000 HD
ENDROOT
BRANCH   4   7
ATOM      7  S   UNL     1       1.005  10.656  19.424  0.00  0.00    +0.000 S 
ATOM      8  O   UNL     1       1.048  11.225  20.760  0.00  0.00    +0.000 OA
ATOM      9  O   UNL     1       1.867  11.196  18.392  0.00  0.00    +0.000 OA
BRANCH   7  10
ATOM     10  C   UNL     1      -0.689  10.809  18.893  0.00  0.00    +0.000 A 
ATOM     11  C   UNL     1      -1.516  11.758  19.505  0.00  0.00    +0.000 A 
ATOM     12  C   UNL     1      -2.811  11.967  19.022  0.00  0.00    +0.000 A 
ATOM     13  C   UNL     1      -3.286  11.240  17.923  0.00  0.00    +0.000 A 
ATOM     14  C   UNL     1      -4.683  11.439  17.410  0.00  0.00    +0.000 C 
ATOM     15  C   UNL     1      -2.438  10.311  17.302  0.00  0.00    +0.000 A 
ATOM     16  C   UNL     1      -1.139  10.106  17.775  0.00  0.00    +0.000 A 
ENDBRANCH   7  10
ENDBRANCH   4   7
BRANCH   1  17
ATOM     17  C   UNL     1       2.510   6.001  17.666  0.00  0.00    +0.000 C 
ATOM     18  C   UNL     1       1.561   4.800  17.635  0.00  0.00    +0.000 C 
BRANCH  17  25
ATOM     19  C   UNL     1       4.551   5.134  19.044  0.00  0.00    +0.000 A 
ATOM     20  C   UNL     1       5.867   4.643  19.054  0.00  0.00    +0.000 A 
ATOM     21  C   UNL     1       6.617   4.569  17.879  0.00  0.00    +0.000 A 
ATOM     22  C   UNL     1       6.049   4.979  16.682  0.00  0.00    +0.000 A 
ATOM     23 BR   UNL     1       7.058   4.883  15.088  0.00  0.00    +0.000 Br
ATOM     24  C   UNL     1       4.736   5.449  16.649  0.00  0.00    +0.000 A 
ATOM     25  C   UNL     1       3.957   5.530  17.826  0.00  0.00    +0.000 A 
BRANCH  19  27
ATOM     26  C   UNL     1       3.182   3.987  20.607  0.00  0.00    +0.000 C 
ATOM     27  O   UNL     1       3.787   5.211  20.187  0.00  0.00    +0.000 OA
ENDBRANCH  19  27
ENDBRANCH  17  25
ENDBRANCH   1  17
TORSDOF 5
ENDMDL
MODEL 2
REMARK VINA RESULT:      -7.0      1.208      1.213
REMARK  Name = 
REMARK  9 active torsions:
REMARK  status: ('A' for Active; 'I' for Inactive)
REMARK    1  A    between atoms: C_1  and  O_2
REMARK    2  A    between atoms: O_2  and  C_3
REMARK    3  A    between atoms: C_9  and  C_10
REMARK    4  A    between atoms: C_10  and  C_11
REMARK    5  A    between atoms: C_10  and  N_12
REMARK    6  A    between atoms: N_15  and  C_16
REMARK    7  A    between atoms: N_15  and  S_17
REMARK    8  A    between atoms: S_17  and  C_20
REMARK    9  A    between atoms: C_23  and  C_24
REMARK                            x       y       z     vdW  Elec       q    Type
REMARK                         _______ _______ _______ _____ _____    ______ ____
ROOT
ATOM      1  N   UNL     1       2.339   6.982  18.768  0.00  0.00    +0.000 N 
ATOM      2  C   UNL     1       1.990   8.277  18.492  0.00  0.00    +0.000 C 
ATOM      3  O   UNL     1       2.196   8.773  17.393  0.00  0.00    +0.000 OA
ATOM      4  N   UNL     1       1.361   8.984  19.543  0.00  0.00    +0.000 N 
ATOM      5  C   UNL     1       1.212   8.521  20.937  0.00  0.00    +0.000 C 
ATOM      6  H   UNL     1       1.993   6.536  19.600  0.00  0.00    +0.000 HD
ENDROOT
BRANCH   4   7
ATOM      7  S   UNL     1       1.011  10.650  19.369  0.00  0.00    +0.000 S 
ATOM      8  O   UNL     1       0.988  11.239  20.696  0.00  0.00    +0.000 OA
ATOM      9  O   UNL     1       1.883  11.210  18.356  0.00  0.00    +0.000 OA
BRANCH   7  10
ATOM     10  C   UNL     1      -0.671  10.727  18.782  0.00  0.00    +0.000 A 
ATOM     11  C   UNL     1      -1.556  11.646  19.357  0.00  0.00    +0.000 A 
ATOM     12  C   UNL     1      -2.842  11.796  18.830  0.00  0.00    +0.000 A 
ATOM     13  C   UNL     1      -3.250  11.039  17.724  0.00  0.00    +0.000 A 
ATOM     14  C   UNL     1      -4.636  11.175  17.165  0.00  0.00    +0.000 C 
ATOM     15  C   UNL     1      -2.345  10.141  17.141  0.00  0.00    +0.000 A 
ATOM     16  C   UNL     1      -1.054   9.995  17.657  0.00  0.00    +0.000 A 
ENDBRANCH   7  10
ENDBRANCH   4   7
BRANCH   1  17
ATOM     17  C   UNL     1       2.888   6.070  17.783  0.00  0.00    +0.000 C 
ATOM     18  C   UNL     1       2.095   4.760  17.780  0.00  0.00    +0.000 C 
BRANCH  17  25
ATOM     19  C   UNL     1       4.920   4.544  18.381  0.00  0.00    +0.000 A 
ATOM     20  C   UNL     1       6.314   4.383  18.465  0.00  0.00    +0.000 A 
ATOM     21  C   UNL     1       7.178   5.448  18.203  0.00  0.00    +0.000 A 
ATOM     22  C   UNL     1       6.651   6.681  17.845  0.00  0.00    +0.000 A 
ATOM     23 BR   UNL     1       7.815   8.126  17.490  0.00  0.00    +0.000 Br
ATOM     24  C   UNL     1       5.271   6.853  17.735  0.00  0.00    +0.000 A 
ATOM     25  C   UNL     1       4.378   5.788  17.993  0.00  0.00    +0.000 A 
BRANCH  19  27
ATOM     26  C   UNL     1       4.363   2.691  19.755  0.00  0.00    +0.000 C 
ATOM     27  O   UNL     1       4.047   3.509  18.627  0.00  0.00    +0.000 OA
ENDBRANCH  19  27
ENDBRANCH  17  25
ENDBRANCH   1  17
TORSDOF 5
ENDMDL
MODEL 3
REMARK VINA RESULT:      -6.9      1.108      1.462
REMARK  Name = 
REMARK  9 active torsions:
REMARK  status: ('A' for Active; 'I' for Inactive)
REMARK    1  A    between atoms: C_1  and  O_2
REMARK    2  A    between atoms: O_2  and  C_3
REMARK    3  A    between atoms: C_9  and  C_10
REMARK    4  A    between atoms: C_10  and  C_11
REMARK    5  A    between atoms: C_10  and  N_12
REMARK    6  A    between atoms: N_15  and  C_16
REMARK    7  A    between atoms: N_15  and  S_17
REMARK    8  A    between atoms: S_17  and  C_20
REMARK    9  A    between atoms: C_23  and  C_24
REMARK                            x       y       z     vdW  Elec       q    Type
REMARK                         _______ _______ _______ _____ _____    ______ ____
ROOT
ATOM      1  N   UNL     1       2.181   7.129  18.877  0.00  0.00    +0.000 N 
ATOM      2  C   UNL     1       1.903   8.434  18.571  0.00  0.00    +0.000 C 
ATOM      3  O   UNL     1       2.221   8.919  17.493  0.00  0.00    +0.000 OA
ATOM      4  N   UNL     1       1.211   9.168  19.563  0.00  0.00    +0.000 N 
ATOM      5  C   UNL     1       0.926   8.715  20.939  0.00  0.00    +0.000 C 
ATOM      6  H   UNL     1       1.748   6.699  19.676  0.00  0.00    +0.000 HD
ENDROOT
BRANCH   4   7
ATOM      7  S   UNL     1       0.938  10.844  19.358  0.00  0.00    +0.000 S 
ATOM      8  O   UNL     1       0.903  11.451  20.676  0.00  0.00    +0.000 OA
ATOM      9  O   UNL     1       1.860  11.352  18.362  0.00  0.00    +0.000 OA
BRANCH   7  10
ATOM     10  C   UNL     1      -0.723  10.983  18.723  0.00  0.00    +0.000 A 
ATOM     11  C   UNL     1      -1.146  10.107  17.716  0.00  0.00    +0.000 A 
ATOM     12  C   UNL     1      -2.477  10.129  17.290  0.00  0.00    +0.000 A 
ATOM     13  C   UNL     1      -3.394  11.016  17.869  0.00  0.00    +0.000 A 
ATOM     14  C   UNL     1      -4.821  11.065  17.403  0.00  0.00    +0.000 C 
ATOM     15  C   UNL     1      -2.964  11.869  18.895  0.00  0.00    +0.000 A 
ATOM     16  C   UNL     1      -1.636  11.844  19.331  0.00  0.00    +0.000 A 
ENDBRANCH   7  10
ENDBRANCH   4   7
BRANCH   1  17
ATOM     17  C   UNL     1       2.781   6.194  17.944  0.00  0.00    +0.000 C 
ATOM     18  C   UNL     1       1.963   4.900  17.897  0.00  0.00    +0.000 C 
BRANCH  17  25
ATOM     19  C   UNL     1       4.698   4.743  18.960  0.00  0.00    +0.000 A 
ATOM     20  C   UNL     1       6.077   4.526  19.126  0.00  0.00    +0.000 A 
ATOM     21  C   UNL     1       7.013   5.441  18.641  0.00  0.00    +0.000 A 
ATOM     22  C   UNL     1       6.574   6.577  17.978  0.00  0.00    +0.000 A 
ATOM     23 BR   UNL     1       7.835   7.820  17.320  0.00  0.00    +0.000 Br
ATOM     24  C   UNL     1       5.210   6.799  17.784  0.00  0.00    +0.000 A 
ATOM     25  C   UNL     1       4.245   5.884  18.265  0.00  0.00    +0.000 A 
BRANCH  19  27
ATOM     26  C   UNL     1       4.225   2.525  19.661  0.00  0.00    +0.000 C 
ATOM     27  O   UNL     1       3.755   3.853  19.423  0.00  0.00    +0.000 OA
ENDBRANCH  19  27
ENDBRANCH  17  25
ENDBRANCH   1  17
TORSDOF 5
ENDMDL
MODEL 4
REMARK VINA RESULT:      -6.8      1.525      2.014
REMARK  Name = 
REMARK  9 active torsions:
REMARK  status: ('A' for Active; 'I' for Inactive)
REMARK    1  A    between atoms: C_1  and  O_2
REMARK    2  A    between atoms: O_2  and  C_3
REMARK    3  A    between atoms: C_9  and  C_10
REMARK    4  A    between atoms: C_10  and  C_11
REMARK    5  A    between atoms: C_10  and  N_12
REMARK    6  A    between atoms: N_15  and  C_16
REMARK    7  A    between atoms: N_15  and  S_17
REMARK    8  A    between atoms: S_17  and  C_20
REMARK    9  A    between atoms: C_23  and  C_24
REMARK                            x       y       z     vdW  Elec       q    Type
REMARK                         _______ _______ _______ _____ _____    ______ ____
ROOT
ATOM      1  N   UNL     1       2.062   6.500  20.219  0.00  0.00    +0.000 N 
ATOM      2  C   UNL     1       1.837   7.449  19.258  0.00  0.00    +0.000 C 
ATOM      3  O   UNL     1       1.866   7.169  18.067  0.00  0.00    +0.000 OA
ATOM      4  N   UNL     1       1.549   8.750  19.730  0.00  0.00    +0.000 N 
ATOM      5  C   UNL     1       1.644   9.209  21.130  0.00  0.00    +0.000 C 
ATOM      6  H   UNL     1       1.847   6.700  21.180  0.00  0.00    +0.000 HD
ENDROOT
BRANCH   4   7
ATOM      7  S   UNL     1       1.395  10.050  18.627  0.00  0.00    +0.000 S 
ATOM      8  O   UNL     1       1.867  11.251  19.291  0.00  0.00    +0.000 OA
ATOM      9  O   UNL     1       1.977   9.660  17.359  0.00  0.00    +0.000 OA
BRANCH   7  10
ATOM     10  C   UNL     1      -0.358  10.282  18.405  0.00  0.00    +0.000 A 
ATOM     11  C   UNL     1      -1.021  11.257  19.161  0.00  0.00    +0.000 A 
ATOM     12  C   UNL     1      -2.370  11.528  18.916  0.00  0.00    +0.000 A 
ATOM     13  C   UNL     1      -3.063  10.838  17.913  0.00  0.00    +0.000 A 
ATOM     14  C   UNL     1      -4.518  11.105  17.657  0.00  0.00    +0.000 C 
ATOM     15  C   UNL     1      -2.381   9.883  17.145  0.00  0.00    +0.000 A 
ATOM     16  C   UNL     1      -1.030   9.616  17.379  0.00  0.00    +0.000 A 
ENDBRANCH   7  10
ENDBRANCH   4   7
BRANCH   1  17
ATOM     17  C   UNL     1       2.260   5.092  19.930  0.00  0.00    +0.000 C 
ATOM     18  C   UNL     1       2.429   4.306  21.233  0.00  0.00    +0.000 C 
BRANCH  17  25
ATOM     19  C   UNL     1       3.372   4.161  17.759  0.00  0.00    +0.000 A 
ATOM     20  C   UNL     1       4.516   4.054  16.951  0.00  0.00    +0.000 A 
ATOM     21  C   UNL     1       5.742   4.574  17.367  0.00  0.00    +0.000 A 
ATOM     22  C   UNL     1       5.829   5.216  18.594  0.00  0.00    +0.000 A 
ATOM     23 BR   UNL     1       7.486   5.922  19.164  0.00  0.00    +0.000 Br
ATOM     24  C   UNL     1       4.699   5.351  19.400  0.00  0.00    +0.000 A 
ATOM     25  C   UNL     1       3.446   4.833  18.998  0.00  0.00    +0.000 A 
BRANCH  19  27
ATOM     26  C   UNL     1       1.820   2.369  17.879  0.00  0.00    +0.000 C 
ATOM     27  O   UNL     1       2.149   3.662  17.369  0.00  0.00    +0.000 OA
ENDBRANCH  19  27
ENDBRANCH  17  25
ENDBRANCH   1  17
TORSDOF 5
ENDMDL
MODEL 5
REMARK VINA RESULT:      -6.5      2.161      2.981
REMARK  Name = 
REMARK  9 active torsions:
REMARK  status: ('A' for Active; 'I' for Inactive)
REMARK    1  A    between atoms: C_1  and  O_2
REMARK    2  A    between atoms: O_2  and  C_3
REMARK    3  A    between atoms: C_9  and  C_10
REMARK    4  A    between atoms: C_10  and  C_11
REMARK    5  A    between atoms: C_10  and  N_12
REMARK    6  A    between atoms: N_15  and  C_16
REMARK    7  A    between atoms: N_15  and  S_17
REMARK    8  A    between atoms: S_17  and  C_20
REMARK    9  A    between atoms: C_23  and  C_24
REMARK                            x       y       z     vdW  Elec       q    Type
REMARK                         _______ _______ _______ _____ _____    ______ ____
ROOT
ATOM      1  N   UNL     1       1.937   7.686  19.790  0.00  0.00    +0.000 N 
ATOM      2  C   UNL     1       1.489   8.979  19.733  0.00  0.00    +0.000 C 
ATOM      3  O   UNL     1       1.937   9.773  18.916  0.00  0.00    +0.000 OA
ATOM      4  N   UNL     1       0.471   9.322  20.653  0.00  0.00    +0.000 N 
ATOM      5  C   UNL     1      -0.015   8.482  21.765  0.00  0.00    +0.000 C 
ATOM      6  H   UNL     1       1.431   7.004  20.328  0.00  0.00    +0.000 HD
ENDROOT
BRANCH   4   7
ATOM      7  S   UNL     1      -0.065  10.942  20.776  0.00  0.00    +0.000 S 
ATOM      8  O   UNL     1      -0.748  11.086  22.049  0.00  0.00    +0.000 OA
ATOM      9  O   UNL     1       1.036  11.827  20.453  0.00  0.00    +0.000 OA
BRANCH   7  10
ATOM     10  C   UNL     1      -1.328  11.123  19.532  0.00  0.00    +0.000 A 
ATOM     11  C   UNL     1      -1.320  10.273  18.419  0.00  0.00    +0.000 A 
ATOM     12  C   UNL     1      -2.367  10.328  17.495  0.00  0.00    +0.000 A 
ATOM     13  C   UNL     1      -3.431  11.221  17.678  0.00  0.00    +0.000 A 
ATOM     14  C   UNL     1      -4.549  11.305  16.679  0.00  0.00    +0.000 C 
ATOM     15  C   UNL     1      -3.440  12.048  18.810  0.00  0.00    +0.000 A 
ATOM     16  C   UNL     1      -2.401  11.991  19.742  0.00  0.00    +0.000 A 
ENDBRANCH   7  10
ENDBRANCH   4   7
BRANCH   1  17
ATOM     17  C   UNL     1       2.892   7.123  18.855  0.00  0.00    +0.000 C 
ATOM     18  C   UNL     1       2.342   7.205  17.429  0.00  0.00    +0.000 C 
BRANCH  17  25
ATOM     19  C   UNL     1       4.466   5.041  18.771  0.00  0.00    +0.000 A 
ATOM     20  C   UNL     1       4.752   3.738  19.211  0.00  0.00    +0.000 A 
ATOM     21  C   UNL     1       3.864   3.045  20.035  0.00  0.00    +0.000 A 
ATOM     22  C   UNL     1       2.685   3.658  20.434  0.00  0.00    +0.000 A 
ATOM     23 BR   UNL     1       1.479   2.727  21.550  0.00  0.00    +0.000 Br
ATOM     24  C   UNL     1       2.394   4.960  20.026  0.00  0.00    +0.000 A 
ATOM     25  C   UNL     1       3.281   5.681  19.192  0.00  0.00    +0.000 A 
BRANCH  19  27
ATOM     26  C   UNL     1       5.432   5.282  16.617  0.00  0.00    +0.000 C 
ATOM     27  O   UNL     1       5.327   5.749  17.963  0.00  0.00    +0.000 OA
ENDBRANCH  19  27
ENDBRANCH  17  25
ENDBRANCH   1  17
TORSDOF 5
ENDMDL
MODEL 6
REMARK VINA RESULT:      -6.5      4.575      9.349
REMARK  Name = 
REMARK  9 active torsions:
REMARK  status: ('A' for Active; 'I' for Inactive)
REMARK    1  A    between atoms: C_1  and  O_2
REMARK    2  A    between atoms: O_2  and  C_3
REMARK    3  A    between atoms: C_9  and  C_10
REMARK    4  A    between atoms: C_10  and  C_11
REMARK    5  A    between atoms: C_10  and  N_12
REMARK    6  A    between atoms: N_15  and  C_16
REMARK    7  A    between atoms: N_15  and  S_17
REMARK    8  A    between atoms: S_17  and  C_20
REMARK    9  A    between atoms: C_23  and  C_24
REMARK                            x       y       z     vdW  Elec       q    Type
REMARK                         _______ _______ _______ _____ _____    ______ ____
ROOT
ATOM      1  N   UNL     1      -2.771  12.108  18.411  0.00  0.00    +0.000 N 
ATOM      2  C   UNL     1      -1.728  11.573  19.120  0.00  0.00    +0.000 C 
ATOM      3  O   UNL     1      -1.830  10.494  19.688  0.00  0.00    +0.000 OA
ATOM      4  N   UNL     1      -0.535  12.331  19.129  0.00  0.00    +0.000 N 
ATOM      5  C   UNL     1      -0.370  13.702  18.605  0.00  0.00    +0.000 C 
ATOM      6  H   UNL     1      -2.612  12.888  17.798  0.00  0.00    +0.000 HD
ENDROOT
BRANCH   4   7
ATOM      7  S   UNL     1       0.787  11.840  20.098  0.00  0.00    +0.000 S 
ATOM      8  O   UNL     1       1.921  12.682  19.759  0.00  0.00    +0.000 OA
ATOM      9  O   UNL     1       0.352  11.753  21.477  0.00  0.00    +0.000 OA
BRANCH   7  10
ATOM     10  C   UNL     1       1.216  10.206  19.529  0.00  0.00    +0.000 A 
ATOM     11  C   UNL     1       1.625  10.028  18.202  0.00  0.00    +0.000 A 
ATOM     12  C   UNL     1       2.072   8.775  17.774  0.00  0.00    +0.000 A 
ATOM     13  C   UNL     1       2.124   7.696  18.667  0.00  0.00    +0.000 A 
ATOM     14  C   UNL     1       2.580   6.340  18.212  0.00  0.00    +0.000 C 
ATOM     15  C   UNL     1       1.737   7.894  20.000  0.00  0.00    +0.000 A 
ATOM     16  C   UNL     1       1.298   9.148  20.435  0.00  0.00    +0.000 A 
ENDBRANCH   7  10
ENDBRANCH   4   7
BRANCH   1  17
ATOM     17  C   UNL     1      -4.032  11.423  18.195  0.00  0.00    +0.000 C 
ATOM     18  C   UNL     1      -4.479  11.593  16.740  0.00  0.00    +0.000 C 
BRANCH  17  25
ATOM     19  C   UNL     1      -6.274  11.132  19.499  0.00  0.00    +0.000 A 
ATOM     20  C   UNL     1      -7.182  11.633  20.448  0.00  0.00    +0.000 A 
ATOM     21  C   UNL     1      -6.996  12.889  21.028  0.00  0.00    +0.000 A 
ATOM     22  C   UNL     1      -5.893  13.649  20.669  0.00  0.00    +0.000 A 
ATOM     23 BR   UNL     1      -5.635  15.350  21.449  0.00  0.00    +0.000 Br
ATOM     24  C   UNL     1      -4.969  13.159  19.745  0.00  0.00    +0.000 A 
ATOM     25  C   UNL     1      -5.136  11.888  19.147  0.00  0.00    +0.000 A 
BRANCH  19  27
ATOM     26  C   UNL     1      -7.109   8.921  19.713  0.00  0.00    +0.000 C 
ATOM     27  O   UNL     1      -6.430   9.894  18.917  0.00  0.00    +0.000 OA
ENDBRANCH  19  27
ENDBRANCH  17  25
ENDBRANCH   1  17
TORSDOF 5
ENDMDL
MODEL 7
REMARK VINA RESULT:      -6.4      2.119      2.740
REMARK  Name = 
REMARK  9 active torsions:
REMARK  status: ('A' for Active; 'I' for Inactive)
REMARK    1  A    between atoms: C_1  and  O_2
REMARK    2  A    between atoms: O_2  and  C_3
REMARK    3  A    between atoms: C_9  and  C_10
REMARK    4  A    between atoms: C_10  and  C_11
REMARK    5  A    between atoms: C_10  and  N_12
REMARK    6  A    between atoms: N_15  and  C_16
REMARK    7  A    between atoms: N_15  and  S_17
REMARK    8  A    between atoms: S_17  and  C_20
REMARK    9  A    between atoms: C_23  and  C_24
REMARK                            x       y       z     vdW  Elec       q    Type
REMARK                         _______ _______ _______ _____ _____    ______ ____
ROOT
ATOM      1  N   UNL     1       2.152   7.652  19.686  0.00  0.00    +0.000 N 
ATOM      2  C   UNL     1       1.685   8.927  19.512  0.00  0.00    +0.000 C 
ATOM      3  O   UNL     1       1.887   9.544  18.474  0.00  0.00    +0.000 OA
ATOM      4  N   UNL     1       0.944   9.466  20.589  0.00  0.00    +0.000 N 
ATOM      5  C   UNL     1       0.784   8.859  21.926  0.00  0.00    +0.000 C 
ATOM      6  H   UNL     1       1.818   7.097  20.455  0.00  0.00    +0.000 HD
ENDROOT
BRANCH   4   7
ATOM      7  S   UNL     1       0.434  11.099  20.549  0.00  0.00    +0.000 S 
ATOM      8  O   UNL     1       0.108  11.494  21.908  0.00  0.00    +0.000 OA
ATOM      9  O   UNL     1       1.399  11.874  19.794  0.00  0.00    +0.000 OA
BRANCH   7  10
ATOM     10  C   UNL     1      -1.114  11.096  19.666  0.00  0.00    +0.000 A 
ATOM     11  C   UNL     1      -2.091  12.044  19.993  0.00  0.00    +0.000 A 
ATOM     12  C   UNL     1      -3.262  12.126  19.234  0.00  0.00    +0.000 A 
ATOM     13  C   UNL     1      -3.462  11.272  18.142  0.00  0.00    +0.000 A 
ATOM     14  C   UNL     1      -4.726  11.335  17.334  0.00  0.00    +0.000 C 
ATOM     15  C   UNL     1      -2.464  10.344  17.809  0.00  0.00    +0.000 A 
ATOM     16  C   UNL     1      -1.288  10.265  18.558  0.00  0.00    +0.000 A 
ENDBRANCH   7  10
ENDBRANCH   4   7
BRANCH   1  17
ATOM     17  C   UNL     1       2.833   6.895  18.652  0.00  0.00    +0.000 C 
ATOM     18  C   UNL     1       1.947   6.792  17.408  0.00  0.00    +0.000 C 
BRANCH  17  25
ATOM     19  C   UNL     1       4.490   4.884  18.798  0.00  0.00    +0.000 A 
ATOM     20  C   UNL     1       4.807   3.630  19.348  0.00  0.00    +0.000 A 
ATOM     21  C   UNL     1       3.909   2.963  20.182  0.00  0.00    +0.000 A 
ATOM     22  C   UNL     1       2.689   3.552  20.480  0.00  0.00    +0.000 A 
ATOM     23 BR   UNL     1       1.468   2.654  21.608  0.00  0.00    +0.000 Br
ATOM     24  C   UNL     1       2.366   4.806  19.961  0.00  0.00    +0.000 A 
ATOM     25  C   UNL     1       3.262   5.501  19.115  0.00  0.00    +0.000 A 
BRANCH  19  27
ATOM     26  C   UNL     1       6.418   4.786  17.417  0.00  0.00    +0.000 C 
ATOM     27  O   UNL     1       5.360   5.566  17.977  0.00  0.00    +0.000 OA
ENDBRANCH  19  27
ENDBRANCH  17  25
ENDBRANCH   1  17
TORSDOF 5
ENDMDL
MODEL 8
REMARK VINA RESULT:      -6.4      3.271      8.100
REMARK  Name = 
REMARK  9 active torsions:
REMARK  status: ('A' for Active; 'I' for Inactive)
REMARK    1  A    between atoms: C_1  and  O_2
REMARK    2  A    between atoms: O_2  and  C_3
REMARK    3  A    between atoms: C_9  and  C_10
REMARK    4  A    between atoms: C_10  and  C_11
REMARK    5  A    between atoms: C_10  and  N_12
REMARK    6  A    between atoms: N_15  and  C_16
REMARK    7  A    between atoms: N_15  and  S_17
REMARK    8  A    between atoms: S_17  and  C_20
REMARK    9  A    between atoms: C_23  and  C_24
REMARK                            x       y       z     vdW  Elec       q    Type
REMARK                         _______ _______ _______ _____ _____    ______ ____
ROOT
ATOM      1  N   UNL     1       2.317   7.271  18.544  0.00  0.00    +0.000 N 
ATOM      2  C   UNL     1       3.558   6.703  18.431  0.00  0.00    +0.000 C 
ATOM      3  O   UNL     1       4.393   7.144  17.652  0.00  0.00    +0.000 OA
ATOM      4  N   UNL     1       3.813   5.601  19.280  0.00  0.00    +0.000 N 
ATOM      5  C   UNL     1       2.823   4.911  20.131  0.00  0.00    +0.000 C 
ATOM      6  H   UNL     1       1.721   7.022  19.314  0.00  0.00    +0.000 HD
ENDROOT
BRANCH   4   7
ATOM      7  S   UNL     1       5.271   4.718  19.128  0.00  0.00    +0.000 S 
ATOM      8  O   UNL     1       6.347   5.551  19.633  0.00  0.00    +0.000 OA
ATOM      9  O   UNL     1       5.076   3.392  19.680  0.00  0.00    +0.000 OA
BRANCH   7  10
ATOM     10  C   UNL     1       5.560   4.571  17.375  0.00  0.00    +0.000 A 
ATOM     11  C   UNL     1       6.820   4.896  16.859  0.00  0.00    +0.000 A 
ATOM     12  C   UNL     1       7.095   4.678  15.506  0.00  0.00    +0.000 A 
ATOM     13  C   UNL     1       6.121   4.127  14.663  0.00  0.00    +0.000 A 
ATOM     14  C   UNL     1       6.398   3.910  13.203  0.00  0.00    +0.000 C 
ATOM     15  C   UNL     1       4.872   3.781  15.198  0.00  0.00    +0.000 A 
ATOM     16  C   UNL     1       4.596   3.988  16.552  0.00  0.00    +0.000 A 
ENDBRANCH   7  10
ENDBRANCH   4   7
BRANCH   1  17
ATOM     17  C   UNL     1       1.915   8.473  17.839  0.00  0.00    +0.000 C 
ATOM     18  C   UNL     1       3.114   9.411  17.673  0.00  0.00    +0.000 C 
BRANCH  17  25
ATOM     19  C   UNL     1       0.638   9.419  19.910  0.00  0.00    +0.000 A 
ATOM     20  C   UNL     1      -0.431  10.179  20.414  0.00  0.00    +0.000 A 
ATOM     21  C   UNL     1      -1.404  10.704  19.562  0.00  0.00    +0.000 A 
ATOM     22  C   UNL     1      -1.307  10.481  18.196  0.00  0.00    +0.000 A 
ATOM     23 BR   UNL     1      -2.620  11.189  17.037  0.00  0.00    +0.000 Br
ATOM     24  C   UNL     1      -0.240   9.747  17.676  0.00  0.00    +0.000 A 
ATOM     25  C   UNL     1       0.758   9.207  18.520  0.00  0.00    +0.000 A 
BRANCH  19  27
ATOM     26  C   UNL     1       1.327   8.922  22.127  0.00  0.00    +0.000 C 
ATOM     27  O   UNL     1       1.614   8.894  20.727  0.00  0.00    +0.000 OA
ENDBRANCH  19  27
ENDBRANCH  17  25
ENDBRANCH   1  17
TORSDOF 5
ENDMDL
MODEL 9
REMARK VINA RESULT:      -6.3      2.303      2.901
REMARK  Name = 
REMARK  9 active torsions:
REMARK  status: ('A' for Active; 'I' for Inactive)
REMARK    1  A    between atoms: C_1  and  O_2
REMARK    2  A    between atoms: O_2  and  C_3
REMARK    3  A    between atoms: C_9  and  C_10
REMARK    4  A    between atoms: C_10  and  C_11
REMARK    5  A    between atoms: C_10  and  N_12
REMARK    6  A    between atoms: N_15  and  C_16
REMARK    7  A    between atoms: N_15  and  S_17
REMARK    8  A    between atoms: S_17  and  C_20
REMARK    9  A    between atoms: C_23  and  C_24
REMARK                            x       y       z     vdW  Elec       q    Type
REMARK                         _______ _______ _______ _____ _____    ______ ____
ROOT
ATOM      1  N   UNL     1       2.063   7.712  19.837  0.00  0.00    +0.000 N 
ATOM      2  C   UNL     1       1.452   8.927  19.672  0.00  0.00    +0.000 C 
ATOM      3  O   UNL     1       1.683   9.630  18.697  0.00  0.00    +0.000 OA
ATOM      4  N   UNL     1       0.530   9.296  20.679  0.00  0.00    +0.000 N 
ATOM      5  C   UNL     1       0.305   8.588  21.955  0.00  0.00    +0.000 C 
ATOM      6  H   UNL     1       1.723   7.071  20.532  0.00  0.00    +0.000 HD
ENDROOT
BRANCH   4   7
ATOM      7  S   UNL     1      -0.186  10.850  20.660  0.00  0.00    +0.000 S 
ATOM      8  O   UNL     1      -1.138  10.912  21.754  0.00  0.00    +0.000 OA
ATOM      9  O   UNL     1       0.861  11.848  20.567  0.00  0.00    +0.000 OA
BRANCH   7  10
ATOM     10  C   UNL     1      -1.164  10.908  19.170  0.00  0.00    +0.000 A 
ATOM     11  C   UNL     1      -1.048  12.012  18.317  0.00  0.00    +0.000 A 
ATOM     12  C   UNL     1      -1.722  12.018  17.092  0.00  0.00    +0.000 A 
ATOM     13  C   UNL     1      -2.506  10.922  16.707  0.00  0.00    +0.000 A 
ATOM     14  C   UNL     1      -3.252  10.928  15.404  0.00  0.00    +0.000 C 
ATOM     15  C   UNL     1      -2.592   9.812  17.558  0.00  0.00    +0.000 A 
ATOM     16  C   UNL     1      -1.913   9.797  18.780  0.00  0.00    +0.000 A 
ENDBRANCH   7  10
ENDBRANCH   4   7
BRANCH   1  17
ATOM     17  C   UNL     1       2.950   7.117  18.855  0.00  0.00    +0.000 C 
ATOM     18  C   UNL     1       2.310   7.176  17.466  0.00  0.00    +0.000 C 
BRANCH  17  25
ATOM     19  C   UNL     1       4.552   5.057  18.822  0.00  0.00    +0.000 A 
ATOM     20  C   UNL     1       4.838   3.754  19.264  0.00  0.00    +0.000 A 
ATOM     21  C   UNL     1       3.926   3.044  20.047  0.00  0.00    +0.000 A 
ATOM     22  C   UNL     1       2.723   3.639  20.401  0.00  0.00    +0.000 A 
ATOM     23 BR   UNL     1       1.484   2.684  21.460  0.00  0.00    +0.000 Br
ATOM     24  C   UNL     1       2.433   4.940  19.990  0.00  0.00    +0.000 A 
ATOM     25  C   UNL     1       3.343   5.678  19.198  0.00  0.00    +0.000 A 
BRANCH  19  27
ATOM     26  C   UNL     1       6.798   5.746  18.485  0.00  0.00    +0.000 C 
ATOM     27  O   UNL     1       5.437   5.781  18.054  0.00  0.00    +0.000 OA
ENDBRANCH  19  27
ENDBRANCH  17  25
ENDBRANCH   1  17
TORSDOF 5
ENDMDL
