MODEL 1
REMARK VINA RESULT:      -7.5      0.000      0.000
REMARK  Name = 
REMARK  6 active torsions:
REMARK  status: ('A' for Active; 'I' for Inactive)
REMARK    1  A    between atoms: C_1  and  N_2
REMARK    2  A    between atoms: N_2  and  C_3
REMARK    3  A    between atoms: N_2  and  C_4
REMARK    4  A    between atoms: C_4  and  C_5
REMARK    5  A    between atoms: C_6  and  C_7
REMARK    6  A    between atoms: C_6  and  C_13
REMARK                            x       y       z     vdW  Elec       q    Type
REMARK                         _______ _______ _______ _____ _____    ______ ____
ROOT
ATOM      1  C   UNL     1       2.406   4.704  17.674  0.00  0.00    +0.000 C 
ATOM      2  C   UNL     1       3.235   5.670  18.138  0.00  0.00    +0.000 C 
ENDROOT
BRANCH   2   3
ATOM      3  C   UNL     1       2.533   6.832  18.760  0.00  0.00    +0.000 A 
ATOM      4  C   UNL     1       2.377   8.002  17.998  0.00  0.00    +0.000 A 
ATOM      5  C   UNL     1       1.726   9.117  18.535  0.00  0.00    +0.000 A 
ATOM      6  C   UNL     1       1.229   9.076  19.834  0.00  0.00    +0.000 A 
ATOM      7 CL   UNL     1       0.433  10.453  20.490  0.00  0.00    +0.000 Cl
ATOM      8  C   UNL     1       1.376   7.929  20.612  0.00  0.00    +0.000 A 
ATOM      9  C   UNL     1       2.023   6.810  20.076  0.00  0.00    +0.000 A 
ATOM     10 CL   UNL     1       2.184   5.420  21.093  0.00  0.00    +0.000 Cl
ENDBRANCH   2   3
BRANCH   2  11
ATOM     11  C   UNL     1       4.727   5.583  18.065  0.00  0.00    +0.000 A 
ATOM     12  C   UNL     1       5.477   6.054  16.977  0.00  0.00    +0.000 A 
ATOM     13  C   UNL     1       6.859   5.892  16.934  0.00  0.00    +0.000 A 
ATOM     14  C   UNL     1       7.486   5.323  18.026  0.00  0.00    +0.000 A 
ATOM     15  N   UNL     1       6.827   4.917  19.128  0.00  0.00    +0.000 NA
ATOM     16  C   UNL     1       5.476   5.054  19.119  0.00  0.00    +0.000 A 
ENDBRANCH   2  11
BRANCH   1  17
ATOM     17  C   UNL     1       2.793   3.366  17.098  0.00  0.00    +0.000 C 
BRANCH  17  19
ATOM     18  C   UNL     1       3.482   1.674  18.628  0.00  0.00    +0.000 C 
ATOM     19  N   UNL     1       2.342   2.185  17.850  0.00  0.00    +0.000 NA
ATOM     20  C   UNL     1       1.244   2.507  18.764  0.00  0.00    +0.000 C 
ENDBRANCH  17  19
ENDBRANCH   1  17
TORSDOF 4
ENDMDL
MODEL 2
REMARK VINA RESULT:      -7.3      0.799      1.151
REMARK  Name = 
REMARK  6 active torsions:
REMARK  status: ('A' for Active; 'I' for Inactive)
REMARK    1  A    between atoms: C_1  and  N_2
REMARK    2  A    between atoms: N_2  and  C_3
REMARK    3  A    between atoms: N_2  and  C_4
REMARK    4  A    between atoms: C_4  and  C_5
REMARK    5  A    between atoms: C_6  and  C_7
REMARK    6  A    between atoms: C_6  and  C_13
REMARK                            x       y       z     vdW  Elec       q    Type
REMARK                         _______ _______ _______ _____ _____    ______ ____
ROOT
ATOM      1  C   UNL     1       2.320   4.750  17.757  0.00  0.00    +0.000 C 
ATOM      2  C   UNL     1       3.124   5.788  18.092  0.00  0.00    +0.000 C 
ENDROOT
BRANCH   2   3
ATOM      3  C   UNL     1       2.427   6.894  18.813  0.00  0.00    +0.000 A 
ATOM      4  C   UNL     1       2.212   8.102  18.131  0.00  0.00    +0.000 A 
ATOM      5  C   UNL     1       1.562   9.168  18.762  0.00  0.00    +0.000 A 
ATOM      6  C   UNL     1       1.126   9.038  20.077  0.00  0.00    +0.000 A 
ATOM      7 CL   UNL     1       0.331  10.355  20.849  0.00  0.00    +0.000 Cl
ATOM      8  C   UNL     1       1.332   7.852  20.778  0.00  0.00    +0.000 A 
ATOM      9  C   UNL     1       1.977   6.781  20.146  0.00  0.00    +0.000 A 
ATOM     10 CL   UNL     1       2.214   5.339  21.070  0.00  0.00    +0.000 Cl
ENDBRANCH   2   3
BRANCH   2  11
ATOM     11  C   UNL     1       4.590   5.825  17.797  0.00  0.00    +0.000 A 
ATOM     12  C   UNL     1       5.571   5.367  18.690  0.00  0.00    +0.000 A 
ATOM     13  C   UNL     1       6.926   5.482  18.389  0.00  0.00    +0.000 A 
ATOM     14  C   UNL     1       7.282   5.992  17.155  0.00  0.00    +0.000 A 
ATOM     15  N   UNL     1       6.384   6.382  16.230  0.00  0.00    +0.000 NA
ATOM     16  C   UNL     1       5.073   6.292  16.573  0.00  0.00    +0.000 A 
ENDBRANCH   2  11
BRANCH   1  17
ATOM     17  C   UNL     1       2.728   3.442  17.128  0.00  0.00    +0.000 C 
BRANCH  17  19
ATOM     18  C   UNL     1       3.470   1.787  18.674  0.00  0.00    +0.000 C 
ATOM     19  N   UNL     1       2.330   2.226  17.853  0.00  0.00    +0.000 NA
ATOM     20  C   UNL     1       1.176   2.463  18.723  0.00  0.00    +0.000 C 
ENDBRANCH  17  19
ENDBRANCH   1  17
TORSDOF 4
ENDMDL
MODEL 3
REMARK VINA RESULT:      -7.1      3.006      4.826
REMARK  Name = 
REMARK  6 active torsions:
REMARK  status: ('A' for Active; 'I' for Inactive)
REMARK    1  A    between atoms: C_1  and  N_2
REMARK    2  A    between atoms: N_2  and  C_3
REMARK    3  A    between atoms: N_2  and  C_4
REMARK    4  A    between atoms: C_4  and  C_5
REMARK    5  A    between atoms: C_6  and  C_7
REMARK    6  A    between atoms: C_6  and  C_13
REMARK                            x       y       z     vdW  Elec       q    Type
REMARK                         _______ _______ _______ _____ _____    ______ ____
ROOT
ATOM      1  C   UNL     1       5.396   4.372  15.260  0.00  0.00    +0.000 C 
ATOM      2  C   UNL     1       5.269   4.746  16.556  0.00  0.00    +0.000 C 
ENDROOT
BRANCH   2   3
ATOM      3  C   UNL     1       4.036   4.231  17.223  0.00  0.00    +0.000 A 
ATOM      4  C   UNL     1       3.853   2.842  17.305  0.00  0.00    +0.000 A 
ATOM      5  C   UNL     1       2.716   2.311  17.922  0.00  0.00    +0.000 A 
ATOM      6  C   UNL     1       1.753   3.159  18.459  0.00  0.00    +0.000 A 
ATOM      7 CL   UNL     1       0.354   2.499  19.212  0.00  0.00    +0.000 Cl
ATOM      8  C   UNL     1       1.908   4.542  18.385  0.00  0.00    +0.000 A 
ATOM      9  C   UNL     1       3.048   5.077  17.773  0.00  0.00    +0.000 A 
ATOM     10 CL   UNL     1       3.180   6.800  17.703  0.00  0.00    +0.000 Cl
ENDBRANCH   2   3
BRANCH   2  11
ATOM     11  C   UNL     1       6.279   5.581  17.277  0.00  0.00    +0.000 A 
ATOM     12  C   UNL     1       6.579   6.906  16.928  0.00  0.00    +0.000 A 
ATOM     13  C   UNL     1       7.573   7.617  17.595  0.00  0.00    +0.000 A 
ATOM     14  C   UNL     1       8.208   7.011  18.662  0.00  0.00    +0.000 A 
ATOM     15  N   UNL     1       7.913   5.768  19.088  0.00  0.00    +0.000 NA
ATOM     16  C   UNL     1       6.966   5.090  18.390  0.00  0.00    +0.000 A 
ENDBRANCH   2  11
BRANCH   1  17
ATOM     17  C   UNL     1       6.566   4.627  14.344  0.00  0.00    +0.000 C 
BRANCH  17  19
ATOM     18  C   UNL     1       5.220   3.586  12.676  0.00  0.00    +0.000 C 
ATOM     19  N   UNL     1       6.606   3.828  13.110  0.00  0.00    +0.000 NA
ATOM     20  C   UNL     1       7.331   4.514  12.038  0.00  0.00    +0.000 C 
ENDBRANCH  17  19
ENDBRANCH   1  17
TORSDOF 4
ENDMDL
MODEL 4
REMARK VINA RESULT:      -7.1      3.082      4.921
REMARK  Name = 
REMARK  6 active torsions:
REMARK  status: ('A' for Active; 'I' for Inactive)
REMARK    1  A    between atoms: C_1  and  N_2
REMARK    2  A    between atoms: N_2  and  C_3
REMARK    3  A    between atoms: N_2  and  C_4
REMARK    4  A    between atoms: C_4  and  C_5
REMARK    5  A    between atoms: C_6  and  C_7
REMARK    6  A    between atoms: C_6  and  C_13
REMARK                            x       y       z     vdW  Elec       q    Type
REMARK                         _______ _______ _______ _____ _____    ______ ____
ROOT
ATOM      1  C   UNL     1       5.397   4.239  15.246  0.00  0.00    +0.000 C 
ATOM      2  C   UNL     1       5.269   4.682  16.519  0.00  0.00    +0.000 C 
ENDROOT
BRANCH   2   3
ATOM      3  C   UNL     1       4.034   4.208  17.211  0.00  0.00    +0.000 A 
ATOM      4  C   UNL     1       3.814   2.824  17.308  0.00  0.00    +0.000 A 
ATOM      5  C   UNL     1       2.672   2.330  17.948  0.00  0.00    +0.000 A 
ATOM      6  C   UNL     1       1.742   3.210  18.492  0.00  0.00    +0.000 A 
ATOM      7 CL   UNL     1       0.337   2.596  19.274  0.00  0.00    +0.000 Cl
ATOM      8  C   UNL     1       1.934   4.587  18.404  0.00  0.00    +0.000 A 
ATOM      9  C   UNL     1       3.078   5.085  17.768  0.00  0.00    +0.000 A 
ATOM     10 CL   UNL     1       3.256   6.803  17.680  0.00  0.00    +0.000 Cl
ENDBRANCH   2   3
BRANCH   2  11
ATOM     11  C   UNL     1       6.281   5.551  17.198  0.00  0.00    +0.000 A 
ATOM     12  C   UNL     1       7.053   5.129  18.290  0.00  0.00    +0.000 A 
ATOM     13  C   UNL     1       7.938   5.999  18.923  0.00  0.00    +0.000 A 
ATOM     14  C   UNL     1       8.093   7.269  18.401  0.00  0.00    +0.000 A 
ATOM     15  N   UNL     1       7.431   7.706  17.312  0.00  0.00    +0.000 NA
ATOM     16  C   UNL     1       6.549   6.844  16.744  0.00  0.00    +0.000 A 
ENDBRANCH   2  11
BRANCH   1  17
ATOM     17  C   UNL     1       6.570   4.442  14.320  0.00  0.00    +0.000 C 
BRANCH  17  19
ATOM     18  C   UNL     1       5.106   3.600  12.637  0.00  0.00    +0.000 C 
ATOM     19  N   UNL     1       6.517   3.713  13.043  0.00  0.00    +0.000 NA
ATOM     20  C   UNL     1       7.265   4.403  11.989  0.00  0.00    +0.000 C 
ENDBRANCH  17  19
ENDBRANCH   1  17
TORSDOF 4
ENDMDL
MODEL 5
REMARK VINA RESULT:      -7.0      0.948      1.471
REMARK  Name = 
REMARK  6 active torsions:
REMARK  status: ('A' for Active; 'I' for Inactive)
REMARK    1  A    between atoms: C_1  and  N_2
REMARK    2  A    between atoms: N_2  and  C_3
REMARK    3  A    between atoms: N_2  and  C_4
REMARK    4  A    between atoms: C_4  and  C_5
REMARK    5  A    between atoms: C_6  and  C_7
REMARK    6  A    between atoms: C_6  and  C_13
REMARK                            x       y       z     vdW  Elec       q    Type
REMARK                         _______ _______ _______ _____ _____    ______ ____
ROOT
ATOM      1  C   UNL     1       2.196   5.114  17.832  0.00  0.00    +0.000 C 
ATOM      2  C   UNL     1       3.050   6.135  18.085  0.00  0.00    +0.000 C 
ENDROOT
BRANCH   2   3
ATOM      3  C   UNL     1       2.385   7.386  18.556  0.00  0.00    +0.000 A 
ATOM      4  C   UNL     1       2.334   8.484  17.682  0.00  0.00    +0.000 A 
ATOM      5  C   UNL     1       1.721   9.678  18.076  0.00  0.00    +0.000 A 
ATOM      6  C   UNL     1       1.159   9.787  19.343  0.00  0.00    +0.000 A 
ATOM      7 CL   UNL     1       0.410  11.260  19.824  0.00  0.00    +0.000 Cl
ATOM      8  C   UNL     1       1.201   8.715  20.232  0.00  0.00    +0.000 A 
ATOM      9  C   UNL     1       1.809   7.516  19.838  0.00  0.00    +0.000 A 
ATOM     10 CL   UNL     1       1.841   6.225  20.988  0.00  0.00    +0.000 Cl
ENDBRANCH   2   3
BRANCH   2  11
ATOM     11  C   UNL     1       4.535   6.026  17.935  0.00  0.00    +0.000 A 
ATOM     12  C   UNL     1       5.374   5.490  18.923  0.00  0.00    +0.000 A 
ATOM     13  C   UNL     1       6.757   5.469  18.756  0.00  0.00    +0.000 A 
ATOM     14  C   UNL     1       7.279   5.922  17.560  0.00  0.00    +0.000 A 
ATOM     15  N   UNL     1       6.518   6.382  16.548  0.00  0.00    +0.000 NA
ATOM     16  C   UNL     1       5.177   6.424  16.761  0.00  0.00    +0.000 A 
ENDBRANCH   2  11
BRANCH   1  17
ATOM     17  C   UNL     1       2.549   3.698  17.452  0.00  0.00    +0.000 C 
BRANCH  17  19
ATOM     18  C   UNL     1       1.261   2.241  18.829  0.00  0.00    +0.000 C 
ATOM     19  N   UNL     1       2.622   2.733  18.560  0.00  0.00    +0.000 NA
ATOM     20  C   UNL     1       3.487   1.596  18.237  0.00  0.00    +0.000 C 
ENDBRANCH  17  19
ENDBRANCH   1  17
TORSDOF 4
ENDMDL
MODEL 6
REMARK VINA RESULT:      -6.9      1.142      3.559
REMARK  Name = 
REMARK  6 active torsions:
REMARK  status: ('A' for Active; 'I' for Inactive)
REMARK    1  A    between atoms: C_1  and  N_2
REMARK    2  A    between atoms: N_2  and  C_3
REMARK    3  A    between atoms: N_2  and  C_4
REMARK    4  A    between atoms: C_4  and  C_5
REMARK    5  A    between atoms: C_6  and  C_7
REMARK    6  A    between atoms: C_6  and  C_13
REMARK                            x       y       z     vdW  Elec       q    Type
REMARK                         _______ _______ _______ _____ _____    ______ ____
ROOT
ATOM      1  C   UNL     1       4.549   6.622  17.022  0.00  0.00    +0.000 C 
ATOM      2  C   UNL     1       3.564   6.150  17.822  0.00  0.00    +0.000 C 
ENDROOT
BRANCH   2   3
ATOM      3  C   UNL     1       2.728   7.213  18.455  0.00  0.00    +0.000 A 
ATOM      4  C   UNL     1       2.461   8.378  17.718  0.00  0.00    +0.000 A 
ATOM      5  C   UNL     1       1.681   9.402  18.266  0.00  0.00    +0.000 A 
ATOM      6  C   UNL     1       1.166   9.274  19.552  0.00  0.00    +0.000 A 
ATOM      7 CL   UNL     1       0.212  10.539  20.223  0.00  0.00    +0.000 Cl
ATOM      8  C   UNL     1       1.422   8.131  20.306  0.00  0.00    +0.000 A 
ATOM      9  C   UNL     1       2.197   7.101  19.758  0.00  0.00    +0.000 A 
ATOM     10 CL   UNL     1       2.489   5.712  20.746  0.00  0.00    +0.000 Cl
ENDBRANCH   2   3
BRANCH   2  11
ATOM     11  C   UNL     1       3.305   4.693  18.043  0.00  0.00    +0.000 A 
ATOM     12  C   UNL     1       2.148   4.037  17.598  0.00  0.00    +0.000 A 
ATOM     13  C   UNL     1       1.930   2.691  17.884  0.00  0.00    +0.000 A 
ATOM     14  C   UNL     1       2.918   1.997  18.555  0.00  0.00    +0.000 A 
ATOM     15  N   UNL     1       4.080   2.556  18.945  0.00  0.00    +0.000 NA
ATOM     16  C   UNL     1       4.241   3.879  18.684  0.00  0.00    +0.000 A 
ENDBRANCH   2  11
BRANCH   1  17
ATOM     17  C   UNL     1       5.489   5.820  16.157  0.00  0.00    +0.000 C 
BRANCH  17  19
ATOM     18  C   UNL     1       7.097   7.080  17.384  0.00  0.00    +0.000 C 
ATOM     19  N   UNL     1       6.919   5.927  16.486  0.00  0.00    +0.000 NA
ATOM     20  C   UNL     1       7.418   4.721  17.150  0.00  0.00    +0.000 C 
ENDBRANCH  17  19
ENDBRANCH   1  17
TORSDOF 4
ENDMDL
MODEL 7
REMARK VINA RESULT:      -6.9      1.282      1.704
REMARK  Name = 
REMARK  6 active torsions:
REMARK  status: ('A' for Active; 'I' for Inactive)
REMARK    1  A    between atoms: C_1  and  N_2
REMARK    2  A    between atoms: N_2  and  C_3
REMARK    3  A    between atoms: N_2  and  C_4
REMARK    4  A    between atoms: C_4  and  C_5
REMARK    5  A    between atoms: C_6  and  C_7
REMARK    6  A    between atoms: C_6  and  C_13
REMARK                            x       y       z     vdW  Elec       q    Type
REMARK                         _______ _______ _______ _____ _____    ______ ____
ROOT
ATOM      1  C   UNL     1       2.189   4.870  17.932  0.00  0.00    +0.000 C 
ATOM      2  C   UNL     1       2.996   5.785  18.521  0.00  0.00    +0.000 C 
ENDROOT
BRANCH   2   3
ATOM      3  C   UNL     1       2.272   6.804  19.338  0.00  0.00    +0.000 A 
ATOM      4  C   UNL     1       1.804   6.431  20.608  0.00  0.00    +0.000 A 
ATOM      5  C   UNL     1       1.122   7.351  21.411  0.00  0.00    +0.000 A 
ATOM      6  C   UNL     1       0.898   8.645  20.954  0.00  0.00    +0.000 A 
ATOM      7 CL   UNL     1       0.053   9.770  21.945  0.00  0.00    +0.000 Cl
ATOM      8  C   UNL     1       1.347   9.038  19.695  0.00  0.00    +0.000 A 
ATOM      9  C   UNL     1       2.035   8.122  18.890  0.00  0.00    +0.000 A 
ATOM     10 CL   UNL     1       2.557   8.665  17.334  0.00  0.00    +0.000 Cl
ENDBRANCH   2   3
BRANCH   2  11
ATOM     11  C   UNL     1       4.487   5.773  18.397  0.00  0.00    +0.000 A 
ATOM     12  C   UNL     1       5.182   6.420  17.364  0.00  0.00    +0.000 A 
ATOM     13  C   UNL     1       6.567   6.326  17.262  0.00  0.00    +0.000 A 
ATOM     14  C   UNL     1       7.252   5.640  18.246  0.00  0.00    +0.000 A 
ATOM     15  N   UNL     1       6.645   5.059  19.299  0.00  0.00    +0.000 NA
ATOM     16  C   UNL     1       5.290   5.138  19.346  0.00  0.00    +0.000 A 
ENDBRANCH   2  11
BRANCH   1  17
ATOM     17  C   UNL     1       2.606   3.657  17.141  0.00  0.00    +0.000 C 
BRANCH  17  19
ATOM     18  C   UNL     1       3.345   1.742  18.352  0.00  0.00    +0.000 C 
ATOM     19  N   UNL     1       2.186   2.356  17.685  0.00  0.00    +0.000 NA
ATOM     20  C   UNL     1       1.095   2.496  18.652  0.00  0.00    +0.000 C 
ENDBRANCH  17  19
ENDBRANCH   1  17
TORSDOF 4
ENDMDL
MODEL 8
REMARK VINA RESULT:      -6.9      1.176      3.702
REMARK  Name = 
REMARK  6 active torsions:
REMARK  status: ('A' for Active; 'I' for Inactive)
REMARK    1  A    between atoms: C_1  and  N_2
REMARK    2  A    between atoms: N_2  and  C_3
REMARK    3  A    between atoms: N_2  and  C_4
REMARK    4  A    between atoms: C_4  and  C_5
REMARK    5  A    between atoms: C_6  and  C_7
REMARK    6  A    between atoms: C_6  and  C_13
REMARK                            x       y       z     vdW  Elec       q    Type
REMARK                         _______ _______ _______ _____ _____    ______ ____
ROOT
ATOM      1  C   UNL     1       4.465   6.747  17.029  0.00  0.00    +0.000 C 
ATOM      2  C   UNL     1       3.437   6.274  17.774  0.00  0.00    +0.000 C 
ENDROOT
BRANCH   2   3
ATOM      3  C   UNL     1       2.633   7.334  18.452  0.00  0.00    +0.000 A 
ATOM      4  C   UNL     1       2.336   8.505  17.736  0.00  0.00    +0.000 A 
ATOM      5  C   UNL     1       1.584   9.527  18.326  0.00  0.00    +0.000 A 
ATOM      6  C   UNL     1       1.128   9.390  19.633  0.00  0.00    +0.000 A 
ATOM      7 CL   UNL     1       0.208  10.653  20.356  0.00  0.00    +0.000 Cl
ATOM      8  C   UNL     1       1.414   8.241  20.367  0.00  0.00    +0.000 A 
ATOM      9  C   UNL     1       2.162   7.214  19.777  0.00  0.00    +0.000 A 
ATOM     10 CL   UNL     1       2.494   5.817  20.740  0.00  0.00    +0.000 Cl
ENDBRANCH   2   3
BRANCH   2  11
ATOM     11  C   UNL     1       3.106   4.820  17.896  0.00  0.00    +0.000 A 
ATOM     12  C   UNL     1       4.026   3.851  18.326  0.00  0.00    +0.000 A 
ATOM     13  C   UNL     1       3.683   2.502  18.363  0.00  0.00    +0.000 A 
ATOM     14  C   UNL     1       2.388   2.146  18.036  0.00  0.00    +0.000 A 
ATOM     15  N   UNL     1       1.443   3.039  17.684  0.00  0.00    +0.000 NA
ATOM     16  C   UNL     1       1.823   4.341  17.622  0.00  0.00    +0.000 A 
ENDBRANCH   2  11
BRANCH   1  17
ATOM     17  C   UNL     1       5.390   5.957  16.139  0.00  0.00    +0.000 C 
BRANCH  17  19
ATOM     18  C   UNL     1       7.013   7.143  17.420  0.00  0.00    +0.000 C 
ATOM     19  N   UNL     1       6.823   6.042  16.461  0.00  0.00    +0.000 NA
ATOM     20  C   UNL     1       7.325   4.800  17.051  0.00  0.00    +0.000 C 
ENDBRANCH  17  19
ENDBRANCH   1  17
TORSDOF 4
ENDMDL
MODEL 9
REMARK VINA RESULT:      -6.7      3.005      4.594
REMARK  Name = 
REMARK  6 active torsions:
REMARK  status: ('A' for Active; 'I' for Inactive)
REMARK    1  A    between atoms: C_1  and  N_2
REMARK    2  A    between atoms: N_2  and  C_3
REMARK    3  A    between atoms: N_2  and  C_4
REMARK    4  A    between atoms: C_4  and  C_5
REMARK    5  A    between atoms: C_6  and  C_7
REMARK    6  A    between atoms: C_6  and  C_13
REMARK                            x       y       z     vdW  Elec       q    Type
REMARK                         _______ _______ _______ _____ _____    ______ ____
ROOT
ATOM      1  C   UNL     1       5.312   3.591  16.510  0.00  0.00    +0.000 C 
ATOM      2  C   UNL     1       5.301   4.413  17.587  0.00  0.00    +0.000 C 
ENDROOT
BRANCH   2   3
ATOM      3  C   UNL     1       4.264   4.073  18.605  0.00  0.00    +0.000 A 
ATOM      4  C   UNL     1       4.451   2.924  19.390  0.00  0.00    +0.000 A 
ATOM      5  C   UNL     1       3.508   2.565  20.359  0.00  0.00    +0.000 A 
ATOM      6  C   UNL     1       2.373   3.345  20.550  0.00  0.00    +0.000 A 
ATOM      7 CL   UNL     1       1.214   2.894  21.740  0.00  0.00    +0.000 Cl
ATOM      8  C   UNL     1       2.160   4.487  19.780  0.00  0.00    +0.000 A 
ATOM      9  C   UNL     1       3.105   4.852  18.813  0.00  0.00    +0.000 A 
ATOM     10 CL   UNL     1       2.782   6.273  17.882  0.00  0.00    +0.000 Cl
ENDBRANCH   2   3
BRANCH   2  11
ATOM     11  C   UNL     1       6.257   5.550  17.767  0.00  0.00    +0.000 A 
ATOM     12  C   UNL     1       7.336   5.518  18.662  0.00  0.00    +0.000 A 
ATOM     13  C   UNL     1       8.159   6.629  18.835  0.00  0.00    +0.000 A 
ATOM     14  C   UNL     1       7.932   7.741  18.048  0.00  0.00    +0.000 A 
ATOM     15  N   UNL     1       6.955   7.803  17.122  0.00  0.00    +0.000 NA
ATOM     16  C   UNL     1       6.148   6.717  17.008  0.00  0.00    +0.000 A 
ENDBRANCH   2  11
BRANCH   1  17
ATOM     17  C   UNL     1       6.296   3.592  15.367  0.00  0.00    +0.000 C 
BRANCH  17  19
ATOM     18  C   UNL     1       7.175   5.148  13.791  0.00  0.00    +0.000 C 
ATOM     19  N   UNL     1       5.954   4.450  14.222  0.00  0.00    +0.000 NA
ATOM     20  C   UNL     1       5.424   3.674  13.098  0.00  0.00    +0.000 C 
ENDBRANCH  17  19
ENDBRANCH   1  17
TORSDOF 4
ENDMDL
