MODEL 1
REMARK VINA RESULT:      -8.5      0.000      0.000
REMARK  Name = 
REMARK  7 active torsions:
REMARK  status: ('A' for Active; 'I' for Inactive)
REMARK    1  A    between atoms: C_2  and  C_3
REMARK    2  A    between atoms: C_3  and  O_4
REMARK    3  A    between atoms: O_4  and  C_5
REMARK    4  A    between atoms: C_5  and  C_7
REMARK    5  A    between atoms: N_11  and  C_12
REMARK    6  A    between atoms: C_12  and  C_13
REMARK    7  A    between atoms: N_20  and  C_21
REMARK                            x       y       z     vdW  Elec       q    Type
REMARK                         _______ _______ _______ _____ _____    ______ ____
ROOT
ATOM      1  C   UNL     1       7.678   6.871  17.667  0.00  0.00    +0.000 C 
ATOM      2  O   UNL     1       7.680   6.901  16.444  0.00  0.00    +0.000 OA
ENDROOT
BRANCH   1   3
ATOM      3  C   UNL     1       7.118   5.749  18.515  0.00  0.00    +0.000 C 
ATOM      4  C   UNL     1       6.990   4.464  17.697  0.00  0.00    +0.000 C 
ATOM      5  C   UNL     1       5.607   4.583  17.105  0.00  0.00    +0.000 C 
ATOM      6  O   UNL     1       5.182   3.932  16.167  0.00  0.00    +0.000 OA
ATOM      7  N   UNL     1       4.904   5.504  17.863  0.00  0.00    +0.000 N 
ATOM      8  C   UNL     1       5.691   6.050  18.938  0.00  0.00    +0.000 C 
BRANCH   7   9
ATOM      9  C   UNL     1       3.483   5.758  17.718  0.00  0.00    +0.000 C 
BRANCH   9  10
ATOM     10  C   UNL     1       2.622   4.803  18.508  0.00  0.00    +0.000 A 
ATOM     11  C   UNL     1       2.304   5.073  19.848  0.00  0.00    +0.000 A 
ATOM     12  C   UNL     1       1.424   4.248  20.551  0.00  0.00    +0.000 A 
ATOM     13  C   UNL     1       0.850   3.144  19.923  0.00  0.00    +0.000 A 
ATOM     14  C   UNL     1       1.169   2.856  18.597  0.00  0.00    +0.000 A 
ATOM     15  C   UNL     1       2.053   3.678  17.894  0.00  0.00    +0.000 A 
ENDBRANCH   9  10
ENDBRANCH   7   9
ENDBRANCH   1   3
BRANCH   1  16
ATOM     16  O   UNL     1       8.232   7.834  18.451  0.00  0.00    +0.000 OA
BRANCH  16  17
ATOM     17  C   UNL     1       8.189   9.144  17.885  0.00  0.00    +0.000 C 
BRANCH  17  19
ATOM     18  O   UNL     1       9.277   9.855  19.892  0.00  0.00    +0.000 OA
ATOM     19  C   UNL     1       8.944  10.156  18.747  0.00  0.00    +0.000 C 
ATOM     20  N   UNL     1       9.202  11.359  18.124  0.00  0.00    +0.000 N 
ATOM     21  H   UNL     1       8.803  11.515  17.195  0.00  0.00    +0.000 HD
BRANCH  20  22
ATOM     22  C   UNL     1       9.988  12.421  18.631  0.00  0.00    +0.000 A 
ATOM     23  C   UNL     1       9.446  13.521  19.301  0.00  0.00    +0.000 A 
ATOM     24  C   UNL     1      10.276  14.528  19.806  0.00  0.00    +0.000 A 
ATOM     25  C   UNL     1      11.658  14.453  19.638  0.00  0.00    +0.000 A 
ATOM     26  C   UNL     1      12.212  13.362  18.972  0.00  0.00    +0.000 A 
ATOM     27  C   UNL     1      11.380  12.356  18.486  0.00  0.00    +0.000 A 
ATOM     28  F   UNL     1      11.934  11.316  17.840  0.00  0.00    +0.000 F 
ENDBRANCH  20  22
ENDBRANCH  17  19
ENDBRANCH  16  17
ENDBRANCH   1  16
TORSDOF 7
ENDMDL
MODEL 2
REMARK VINA RESULT:      -8.4      1.879      2.771
REMARK  Name = 
REMARK  7 active torsions:
REMARK  status: ('A' for Active; 'I' for Inactive)
REMARK    1  A    between atoms: C_2  and  C_3
REMARK    2  A    between atoms: C_3  and  O_4
REMARK    3  A    between atoms: O_4  and  C_5
REMARK    4  A    between atoms: C_5  and  C_7
REMARK    5  A    between atoms: N_11  and  C_12
REMARK    6  A    between atoms: C_12  and  C_13
REMARK    7  A    between atoms: N_20  and  C_21
REMARK                            x       y       z     vdW  Elec       q    Type
REMARK                         _______ _______ _______ _____ _____    ______ ____
ROOT
ATOM      1  C   UNL     1       6.671   5.066  17.631  0.00  0.00    +0.000 C 
ATOM      2  O   UNL     1       6.465   4.275  18.541  0.00  0.00    +0.000 OA
ENDROOT
BRANCH   1   3
ATOM      3  C   UNL     1       5.736   5.326  16.469  0.00  0.00    +0.000 C 
ATOM      4  C   UNL     1       4.751   6.445  16.806  0.00  0.00    +0.000 C 
ATOM      5  C   UNL     1       3.604   5.698  17.442  0.00  0.00    +0.000 C 
ATOM      6  O   UNL     1       2.721   6.201  18.115  0.00  0.00    +0.000 OA
ATOM      7  N   UNL     1       3.705   4.371  17.060  0.00  0.00    +0.000 N 
ATOM      8  C   UNL     1       4.842   4.125  16.213  0.00  0.00    +0.000 C 
BRANCH   7   9
ATOM      9  C   UNL     1       2.686   3.373  17.322  0.00  0.00    +0.000 C 
BRANCH   9  10
ATOM     10  C   UNL     1       2.459   3.122  18.793  0.00  0.00    +0.000 A 
ATOM     11  C   UNL     1       3.524   2.742  19.623  0.00  0.00    +0.000 A 
ATOM     12  C   UNL     1       3.340   2.611  21.001  0.00  0.00    +0.000 A 
ATOM     13  C   UNL     1       2.090   2.857  21.566  0.00  0.00    +0.000 A 
ATOM     14  C   UNL     1       1.020   3.220  20.750  0.00  0.00    +0.000 A 
ATOM     15  C   UNL     1       1.201   3.348  19.371  0.00  0.00    +0.000 A 
ENDBRANCH   9  10
ENDBRANCH   7   9
ENDBRANCH   1   3
BRANCH   1  16
ATOM     16  O   UNL     1       7.762   5.873  17.558  0.00  0.00    +0.000 OA
BRANCH  16  17
ATOM     17  C   UNL     1       7.941   6.719  18.694  0.00  0.00    +0.000 C 
BRANCH  17  19
ATOM     18  O   UNL     1       7.640   8.616  17.272  0.00  0.00    +0.000 OA
ATOM     19  C   UNL     1       8.178   8.172  18.284  0.00  0.00    +0.000 C 
ATOM     20  N   UNL     1       8.999   8.881  19.136  0.00  0.00    +0.000 N 
ATOM     21  H   UNL     1       9.448   8.375  19.903  0.00  0.00    +0.000 HD
BRANCH  20  22
ATOM     22  C   UNL     1       9.284  10.266  19.076  0.00  0.00    +0.000 A 
ATOM     23  C   UNL     1       9.493  10.952  17.877  0.00  0.00    +0.000 A 
ATOM     24  C   UNL     1       9.743  12.328  17.877  0.00  0.00    +0.000 A 
ATOM     25  C   UNL     1       9.799  13.035  19.077  0.00  0.00    +0.000 A 
ATOM     26  C   UNL     1       9.594  12.364  20.281  0.00  0.00    +0.000 A 
ATOM     27  C   UNL     1       9.329  10.995  20.271  0.00  0.00    +0.000 A 
ATOM     28  F   UNL     1       9.141  10.366  21.443  0.00  0.00    +0.000 F 
ENDBRANCH  20  22
ENDBRANCH  17  19
ENDBRANCH  16  17
ENDBRANCH   1  16
TORSDOF 7
ENDMDL
MODEL 3
REMARK VINA RESULT:      -8.4      1.727      2.214
REMARK  Name = 
REMARK  7 active torsions:
REMARK  status: ('A' for Active; 'I' for Inactive)
REMARK    1  A    between atoms: C_2  and  C_3
REMARK    2  A    between atoms: C_3  and  O_4
REMARK    3  A    between atoms: O_4  and  C_5
REMARK    4  A    between atoms: C_5  and  C_7
REMARK    5  A    between atoms: N_11  and  C_12
REMARK    6  A    between atoms: C_12  and  C_13
REMARK    7  A    between atoms: N_20  and  C_21
REMARK                            x       y       z     vdW  Elec       q    Type
REMARK                         _______ _______ _______ _____ _____    ______ ____
ROOT
ATOM      1  C   UNL     1       6.894   5.996  16.646  0.00  0.00    +0.000 C 
ATOM      2  O   UNL     1       7.730   5.103  16.685  0.00  0.00    +0.000 OA
ENDROOT
BRANCH   1   3
ATOM      3  C   UNL     1       5.411   5.798  16.418  0.00  0.00    +0.000 C 
ATOM      4  C   UNL     1       4.597   6.532  17.483  0.00  0.00    +0.000 C 
ATOM      5  C   UNL     1       4.472   5.500  18.577  0.00  0.00    +0.000 C 
ATOM      6  O   UNL     1       4.148   5.728  19.729  0.00  0.00    +0.000 OA
ATOM      7  N   UNL     1       4.722   4.260  18.014  0.00  0.00    +0.000 N 
ATOM      8  C   UNL     1       5.023   4.342  16.609  0.00  0.00    +0.000 C 
BRANCH   7   9
ATOM      9  C   UNL     1       4.522   3.000  18.705  0.00  0.00    +0.000 C 
BRANCH   9  10
ATOM     10  C   UNL     1       3.177   2.897  19.382  0.00  0.00    +0.000 A 
ATOM     11  C   UNL     1       3.090   2.796  20.780  0.00  0.00    +0.000 A 
ATOM     12  C   UNL     1       1.847   2.806  21.417  0.00  0.00    +0.000 A 
ATOM     13  C   UNL     1       0.678   2.917  20.667  0.00  0.00    +0.000 A 
ATOM     14  C   UNL     1       0.751   3.002  19.277  0.00  0.00    +0.000 A 
ATOM     15  C   UNL     1       1.992   2.989  18.637  0.00  0.00    +0.000 A 
ENDBRANCH   9  10
ENDBRANCH   7   9
ENDBRANCH   1   3
BRANCH   1  16
ATOM     16  O   UNL     1       7.177   7.309  16.854  0.00  0.00    +0.000 OA
BRANCH  16  17
ATOM     17  C   UNL     1       7.964   7.561  18.017  0.00  0.00    +0.000 C 
BRANCH  17  19
ATOM     18  O   UNL     1       7.610   9.877  17.548  0.00  0.00    +0.000 OA
ATOM     19  C   UNL     1       8.253   9.051  18.193  0.00  0.00    +0.000 C 
ATOM     20  N   UNL     1       9.242   9.339  19.109  0.00  0.00    +0.000 N 
ATOM     21  H   UNL     1       9.757   8.558  19.523  0.00  0.00    +0.000 HD
BRANCH  20  22
ATOM     22  C   UNL     1       9.624  10.624  19.565  0.00  0.00    +0.000 A 
ATOM     23  C   UNL     1       9.335  11.097  20.847  0.00  0.00    +0.000 A 
ATOM     24  C   UNL     1       9.763  12.366  21.252  0.00  0.00    +0.000 A 
ATOM     25  C   UNL     1      10.476  13.183  20.376  0.00  0.00    +0.000 A 
ATOM     26  C   UNL     1      10.771  12.725  19.094  0.00  0.00    +0.000 A 
ATOM     27  C   UNL     1      10.354  11.453  18.704  0.00  0.00    +0.000 A 
ATOM     28  F   UNL     1      10.642  11.033  17.460  0.00  0.00    +0.000 F 
ENDBRANCH  20  22
ENDBRANCH  17  19
ENDBRANCH  16  17
ENDBRANCH   1  16
TORSDOF 7
ENDMDL
MODEL 4
REMARK VINA RESULT:      -8.2      1.563      1.673
REMARK  Name = 
REMARK  7 active torsions:
REMARK  status: ('A' for Active; 'I' for Inactive)
REMARK    1  A    between atoms: C_2  and  C_3
REMARK    2  A    between atoms: C_3  and  O_4
REMARK    3  A    between atoms: O_4  and  C_5
REMARK    4  A    between atoms: C_5  and  C_7
REMARK    5  A    between atoms: N_11  and  C_12
REMARK    6  A    between atoms: C_12  and  C_13
REMARK    7  A    between atoms: N_20  and  C_21
REMARK                            x       y       z     vdW  Elec       q    Type
REMARK                         _______ _______ _______ _____ _____    ______ ____
ROOT
ATOM      1  C   UNL     1       6.462   7.052  17.274  0.00  0.00    +0.000 C 
ATOM      2  O   UNL     1       5.387   7.410  16.814  0.00  0.00    +0.000 OA
ENDROOT
BRANCH   1   3
ATOM      3  C   UNL     1       6.706   5.763  18.028  0.00  0.00    +0.000 C 
ATOM      4  C   UNL     1       7.246   4.682  17.092  0.00  0.00    +0.000 C 
ATOM      5  C   UNL     1       5.986   4.032  16.574  0.00  0.00    +0.000 C 
ATOM      6  O   UNL     1       5.915   3.311  15.595  0.00  0.00    +0.000 OA
ATOM      7  N   UNL     1       4.961   4.347  17.450  0.00  0.00    +0.000 N 
ATOM      8  C   UNL     1       5.401   5.178  18.539  0.00  0.00    +0.000 C 
BRANCH   7   9
ATOM      9  C   UNL     1       3.635   3.760  17.391  0.00  0.00    +0.000 C 
BRANCH   9  10
ATOM     10  C   UNL     1       2.969   3.654  18.741  0.00  0.00    +0.000 A 
ATOM     11  C   UNL     1       1.786   4.360  19.009  0.00  0.00    +0.000 A 
ATOM     12  C   UNL     1       1.110   4.183  20.218  0.00  0.00    +0.000 A 
ATOM     13  C   UNL     1       1.608   3.300  21.173  0.00  0.00    +0.000 A 
ATOM     14  C   UNL     1       2.790   2.604  20.926  0.00  0.00    +0.000 A 
ATOM     15  C   UNL     1       3.469   2.782  19.719  0.00  0.00    +0.000 A 
ENDBRANCH   9  10
ENDBRANCH   7   9
ENDBRANCH   1   3
BRANCH   1  16
ATOM     16  O   UNL     1       7.620   7.749  17.129  0.00  0.00    +0.000 OA
BRANCH  16  17
ATOM     17  C   UNL     1       8.298   8.020  18.356  0.00  0.00    +0.000 C 
BRANCH  17  19
ATOM     18  O   UNL     1       8.120  10.319  17.727  0.00  0.00    +0.000 OA
ATOM     19  C   UNL     1       8.599   9.510  18.519  0.00  0.00    +0.000 C 
ATOM     20  N   UNL     1       9.405   9.817  19.595  0.00  0.00    +0.000 N 
ATOM     21  H   UNL     1       9.804   9.044  20.133  0.00  0.00    +0.000 HD
BRANCH  20  22
ATOM     22  C   UNL     1       9.737  11.112  20.059  0.00  0.00    +0.000 A 
ATOM     23  C   UNL     1       9.078  11.736  21.121  0.00  0.00    +0.000 A 
ATOM     24  C   UNL     1       9.469  13.007  21.555  0.00  0.00    +0.000 A 
ATOM     25  C   UNL     1      10.518  13.675  20.926  0.00  0.00    +0.000 A 
ATOM     26  C   UNL     1      11.184  13.066  19.865  0.00  0.00    +0.000 A 
ATOM     27  C   UNL     1      10.798  11.793  19.448  0.00  0.00    +0.000 A 
ATOM     28  F   UNL     1      11.449  11.227  18.419  0.00  0.00    +0.000 F 
ENDBRANCH  20  22
ENDBRANCH  17  19
ENDBRANCH  16  17
ENDBRANCH   1  16
TORSDOF 7
ENDMDL
MODEL 5
REMARK VINA RESULT:      -8.2      1.894      2.601
REMARK  Name = 
REMARK  7 active torsions:
REMARK  status: ('A' for Active; 'I' for Inactive)
REMARK    1  A    between atoms: C_2  and  C_3
REMARK    2  A    between atoms: C_3  and  O_4
REMARK    3  A    between atoms: O_4  and  C_5
REMARK    4  A    between atoms: C_5  and  C_7
REMARK    5  A    between atoms: N_11  and  C_12
REMARK    6  A    between atoms: C_12  and  C_13
REMARK    7  A    between atoms: N_20  and  C_21
REMARK                            x       y       z     vdW  Elec       q    Type
REMARK                         _______ _______ _______ _____ _____    ______ ____
ROOT
ATOM      1  C   UNL     1       6.788   5.356  17.790  0.00  0.00    +0.000 C 
ATOM      2  O   UNL     1       7.322   4.320  18.164  0.00  0.00    +0.000 OA
ENDROOT
BRANCH   1   3
ATOM      3  C   UNL     1       5.922   5.499  16.557  0.00  0.00    +0.000 C 
ATOM      4  C   UNL     1       4.885   6.606  16.750  0.00  0.00    +0.000 C 
ATOM      5  C   UNL     1       3.722   5.867  17.367  0.00  0.00    +0.000 C 
ATOM      6  O   UNL     1       2.784   6.386  17.946  0.00  0.00    +0.000 OA
ATOM      7  N   UNL     1       3.887   4.521  17.092  0.00  0.00    +0.000 N 
ATOM      8  C   UNL     1       5.082   4.253  16.336  0.00  0.00    +0.000 C 
BRANCH   7   9
ATOM      9  C   UNL     1       2.883   3.509  17.364  0.00  0.00    +0.000 C 
BRANCH   9  10
ATOM     10  C   UNL     1       2.562   3.365  18.831  0.00  0.00    +0.000 A 
ATOM     11  C   UNL     1       1.264   3.613  19.305  0.00  0.00    +0.000 A 
ATOM     12  C   UNL     1       0.938   3.380  20.642  0.00  0.00    +0.000 A 
ATOM     13  C   UNL     1       1.904   2.897  21.523  0.00  0.00    +0.000 A 
ATOM     14  C   UNL     1       3.201   2.661  21.069  0.00  0.00    +0.000 A 
ATOM     15  C   UNL     1       3.530   2.897  19.733  0.00  0.00    +0.000 A 
ENDBRANCH   9  10
ENDBRANCH   7   9
ENDBRANCH   1   3
BRANCH   1  16
ATOM     16  O   UNL     1       6.858   6.532  18.467  0.00  0.00    +0.000 OA
BRANCH  16  17
ATOM     17  C   UNL     1       8.185   7.029  18.640  0.00  0.00    +0.000 C 
BRANCH  17  19
ATOM     18  O   UNL     1       7.485   9.060  17.592  0.00  0.00    +0.000 OA
ATOM     19  C   UNL     1       8.263   8.535  18.387  0.00  0.00    +0.000 C 
ATOM     20  N   UNL     1       9.233   9.189  19.116  0.00  0.00    +0.000 N 
ATOM     21  H   UNL     1       9.869   8.626  19.685  0.00  0.00    +0.000 HD
BRANCH  20  22
ATOM     22  C   UNL     1       9.443  10.588  19.179  0.00  0.00    +0.000 A 
ATOM     23  C   UNL     1       9.699  11.373  18.053  0.00  0.00    +0.000 A 
ATOM     24  C   UNL     1       9.870  12.757  18.173  0.00  0.00    +0.000 A 
ATOM     25  C   UNL     1       9.797  13.371  19.422  0.00  0.00    +0.000 A 
ATOM     26  C   UNL     1       9.543  12.599  20.554  0.00  0.00    +0.000 A 
ATOM     27  C   UNL     1       9.359  11.224  20.424  0.00  0.00    +0.000 A 
ATOM     28  F   UNL     1       9.122  10.498  21.529  0.00  0.00    +0.000 F 
ENDBRANCH  20  22
ENDBRANCH  17  19
ENDBRANCH  16  17
ENDBRANCH   1  16
TORSDOF 7
ENDMDL
MODEL 6
REMARK VINA RESULT:      -8.2      1.227      1.934
REMARK  Name = 
REMARK  7 active torsions:
REMARK  status: ('A' for Active; 'I' for Inactive)
REMARK    1  A    between atoms: C_2  and  C_3
REMARK    2  A    between atoms: C_3  and  O_4
REMARK    3  A    between atoms: O_4  and  C_5
REMARK    4  A    between atoms: C_5  and  C_7
REMARK    5  A    between atoms: N_11  and  C_12
REMARK    6  A    between atoms: C_12  and  C_13
REMARK    7  A    between atoms: N_20  and  C_21
REMARK                            x       y       z     vdW  Elec       q    Type
REMARK                         _______ _______ _______ _____ _____    ______ ____
ROOT
ATOM      1  C   UNL     1       7.451   7.097  17.640  0.00  0.00    +0.000 C 
ATOM      2  O   UNL     1       6.891   7.347  16.581  0.00  0.00    +0.000 OA
ENDROOT
BRANCH   1   3
ATOM      3  C   UNL     1       7.454   5.752  18.333  0.00  0.00    +0.000 C 
ATOM      4  C   UNL     1       7.434   4.616  17.310  0.00  0.00    +0.000 C 
ATOM      5  C   UNL     1       5.958   4.394  17.088  0.00  0.00    +0.000 C 
ATOM      6  O   UNL     1       5.468   3.784  16.154  0.00  0.00    +0.000 OA
ATOM      7  N   UNL     1       5.284   4.945  18.165  0.00  0.00    +0.000 N 
ATOM      8  C   UNL     1       6.174   5.546  19.124  0.00  0.00    +0.000 C 
BRANCH   7   9
ATOM      9  C   UNL     1       3.863   4.776  18.405  0.00  0.00    +0.000 C 
BRANCH   9  10
ATOM     10  C   UNL     1       3.162   6.061  18.770  0.00  0.00    +0.000 A 
ATOM     11  C   UNL     1       3.049   7.102  17.836  0.00  0.00    +0.000 A 
ATOM     12  C   UNL     1       2.312   8.249  18.134  0.00  0.00    +0.000 A 
ATOM     13  C   UNL     1       1.679   8.371  19.369  0.00  0.00    +0.000 A 
ATOM     14  C   UNL     1       1.796   7.352  20.313  0.00  0.00    +0.000 A 
ATOM     15  C   UNL     1       2.536   6.205  20.017  0.00  0.00    +0.000 A 
ENDBRANCH   9  10
ENDBRANCH   7   9
ENDBRANCH   1   3
BRANCH   1  16
ATOM     16  O   UNL     1       8.202   7.994  18.332  0.00  0.00    +0.000 OA
BRANCH  16  17
ATOM     17  C   UNL     1       8.139   9.326  17.822  0.00  0.00    +0.000 C 
BRANCH  17  19
ATOM     18  O   UNL     1       9.328   9.960  19.796  0.00  0.00    +0.000 OA
ATOM     19  C   UNL     1       8.958  10.297  18.673  0.00  0.00    +0.000 C 
ATOM     20  N   UNL     1       9.227  11.505  18.065  0.00  0.00    +0.000 N 
ATOM     21  H   UNL     1       8.796  11.693  17.157  0.00  0.00    +0.000 HD
BRANCH  20  22
ATOM     22  C   UNL     1      10.065  12.532  18.561  0.00  0.00    +0.000 A 
ATOM     23  C   UNL     1       9.579  13.665  19.217  0.00  0.00    +0.000 A 
ATOM     24  C   UNL     1      10.458  14.635  19.712  0.00  0.00    +0.000 A 
ATOM     25  C   UNL     1      11.834  14.489  19.548  0.00  0.00    +0.000 A 
ATOM     26  C   UNL     1      12.333  13.364  18.895  0.00  0.00    +0.000 A 
ATOM     27  C   UNL     1      11.452  12.395  18.419  0.00  0.00    +0.000 A 
ATOM     28  F   UNL     1      11.954  11.322  17.786  0.00  0.00    +0.000 F 
ENDBRANCH  20  22
ENDBRANCH  17  19
ENDBRANCH  16  17
ENDBRANCH   1  16
TORSDOF 7
ENDMDL
MODEL 7
REMARK VINA RESULT:      -8.1      1.058      1.613
REMARK  Name = 
REMARK  7 active torsions:
REMARK  status: ('A' for Active; 'I' for Inactive)
REMARK    1  A    between atoms: C_2  and  C_3
REMARK    2  A    between atoms: C_3  and  O_4
REMARK    3  A    between atoms: O_4  and  C_5
REMARK    4  A    between atoms: C_5  and  C_7
REMARK    5  A    between atoms: N_11  and  C_12
REMARK    6  A    between atoms: C_12  and  C_13
REMARK    7  A    between atoms: N_20  and  C_21
REMARK                            x       y       z     vdW  Elec       q    Type
REMARK                         _______ _______ _______ _____ _____    ______ ____
ROOT
ATOM      1  C   UNL     1       7.739   6.927  17.694  0.00  0.00    +0.000 C 
ATOM      2  O   UNL     1       7.747   6.978  16.472  0.00  0.00    +0.000 OA
ENDROOT
BRANCH   1   3
ATOM      3  C   UNL     1       7.288   5.740  18.518  0.00  0.00    +0.000 C 
ATOM      4  C   UNL     1       7.400   4.447  17.711  0.00  0.00    +0.000 C 
ATOM      5  C   UNL     1       6.057   4.364  17.027  0.00  0.00    +0.000 C 
ATOM      6  O   UNL     1       5.794   3.655  16.072  0.00  0.00    +0.000 OA
ATOM      7  N   UNL     1       5.181   5.178  17.725  0.00  0.00    +0.000 N 
ATOM      8  C   UNL     1       5.808   5.835  18.842  0.00  0.00    +0.000 C 
BRANCH   7   9
ATOM      9  C   UNL     1       3.751   5.226  17.483  0.00  0.00    +0.000 C 
BRANCH   9  10
ATOM     10  C   UNL     1       2.944   4.492  18.526  0.00  0.00    +0.000 A 
ATOM     11  C   UNL     1       3.047   3.098  18.655  0.00  0.00    +0.000 A 
ATOM     12  C   UNL     1       2.383   2.428  19.684  0.00  0.00    +0.000 A 
ATOM     13  C   UNL     1       1.609   3.142  20.597  0.00  0.00    +0.000 A 
ATOM     14  C   UNL     1       1.486   4.525  20.471  0.00  0.00    +0.000 A 
ATOM     15  C   UNL     1       2.147   5.196  19.440  0.00  0.00    +0.000 A 
ENDBRANCH   9  10
ENDBRANCH   7   9
ENDBRANCH   1   3
BRANCH   1  16
ATOM     16  O   UNL     1       8.187   7.927  18.498  0.00  0.00    +0.000 OA
BRANCH  16  17
ATOM     17  C   UNL     1       8.139   9.223  17.902  0.00  0.00    +0.000 C 
BRANCH  17  19
ATOM     18  O   UNL     1       9.375   9.954  19.813  0.00  0.00    +0.000 OA
ATOM     19  C   UNL     1       8.971  10.238  18.687  0.00  0.00    +0.000 C 
ATOM     20  N   UNL     1       9.210  11.420  18.020  0.00  0.00    +0.000 N 
ATOM     21  H   UNL     1       8.753  11.565  17.117  0.00  0.00    +0.000 HD
BRANCH  20  22
ATOM     22  C   UNL     1      10.051  12.476  18.447  0.00  0.00    +0.000 A 
ATOM     23  C   UNL     1      11.430  12.492  18.225  0.00  0.00    +0.000 A 
ATOM     24  C   UNL     1      12.207  13.576  18.646  0.00  0.00    +0.000 A 
ATOM     25  C   UNL     1      11.617  14.655  19.302  0.00  0.00    +0.000 A 
ATOM     26  C   UNL     1      10.243  14.652  19.531  0.00  0.00    +0.000 A 
ATOM     27  C   UNL     1       9.473  13.575  19.095  0.00  0.00    +0.000 A 
ATOM     28  F   UNL     1       8.151  13.589  19.332  0.00  0.00    +0.000 F 
ENDBRANCH  20  22
ENDBRANCH  17  19
ENDBRANCH  16  17
ENDBRANCH   1  16
TORSDOF 7
ENDMDL
MODEL 8
REMARK VINA RESULT:      -8.1      1.541      1.988
REMARK  Name = 
REMARK  7 active torsions:
REMARK  status: ('A' for Active; 'I' for Inactive)
REMARK    1  A    between atoms: C_2  and  C_3
REMARK    2  A    between atoms: C_3  and  O_4
REMARK    3  A    between atoms: O_4  and  C_5
REMARK    4  A    between atoms: C_5  and  C_7
REMARK    5  A    between atoms: N_11  and  C_12
REMARK    6  A    between atoms: C_12  and  C_13
REMARK    7  A    between atoms: N_20  and  C_21
REMARK                            x       y       z     vdW  Elec       q    Type
REMARK                         _______ _______ _______ _____ _____    ______ ____
ROOT
ATOM      1  C   UNL     1       7.293   6.763  17.282  0.00  0.00    +0.000 C 
ATOM      2  O   UNL     1       7.672   6.502  16.148  0.00  0.00    +0.000 OA
ENDROOT
BRANCH   1   3
ATOM      3  C   UNL     1       6.772   5.756  18.284  0.00  0.00    +0.000 C 
ATOM      4  C   UNL     1       6.559   4.394  17.623  0.00  0.00    +0.000 C 
ATOM      5  C   UNL     1       5.139   4.487  17.120  0.00  0.00    +0.000 C 
ATOM      6  O   UNL     1       4.635   3.751  16.290  0.00  0.00    +0.000 OA
ATOM      7  N   UNL     1       4.512   5.504  17.819  0.00  0.00    +0.000 N 
ATOM      8  C   UNL     1       5.386   6.141  18.770  0.00  0.00    +0.000 C 
BRANCH   7   9
ATOM      9  C   UNL     1       3.090   5.781  17.746  0.00  0.00    +0.000 C 
BRANCH   9  10
ATOM     10  C   UNL     1       2.257   4.861  18.604  0.00  0.00    +0.000 A 
ATOM     11  C   UNL     1       1.701   3.691  18.062  0.00  0.00    +0.000 A 
ATOM     12  C   UNL     1       1.019   2.785  18.876  0.00  0.00    +0.000 A 
ATOM     13  C   UNL     1       0.884   3.036  20.240  0.00  0.00    +0.000 A 
ATOM     14  C   UNL     1       1.417   4.202  20.788  0.00  0.00    +0.000 A 
ATOM     15  C   UNL     1       2.097   5.111  19.975  0.00  0.00    +0.000 A 
ENDBRANCH   9  10
ENDBRANCH   7   9
ENDBRANCH   1   3
BRANCH   1  16
ATOM     16  O   UNL     1       7.332   8.007  17.827  0.00  0.00    +0.000 OA
BRANCH  16  17
ATOM     17  C   UNL     1       8.484   8.257  18.632  0.00  0.00    +0.000 C 
BRANCH  17  19
ATOM     18  O   UNL     1       8.379  10.509  17.838  0.00  0.00    +0.000 OA
ATOM     19  C   UNL     1       8.813   9.748  18.701  0.00  0.00    +0.000 C 
ATOM     20  N   UNL     1       9.590  10.114  19.779  0.00  0.00    +0.000 N 
ATOM     21  H   UNL     1       9.953   9.374  20.384  0.00  0.00    +0.000 HD
BRANCH  20  22
ATOM     22  C   UNL     1       9.936  11.433  20.162  0.00  0.00    +0.000 A 
ATOM     23  C   UNL     1      10.858  12.214  19.462  0.00  0.00    +0.000 A 
ATOM     24  C   UNL     1      11.139  13.522  19.872  0.00  0.00    +0.000 A 
ATOM     25  C   UNL     1      10.510  14.062  20.992  0.00  0.00    +0.000 A 
ATOM     26  C   UNL     1       9.588  13.293  21.700  0.00  0.00    +0.000 A 
ATOM     27  C   UNL     1       9.302  11.996  21.276  0.00  0.00    +0.000 A 
ATOM     28  F   UNL     1       8.416  11.270  21.978  0.00  0.00    +0.000 F 
ENDBRANCH  20  22
ENDBRANCH  17  19
ENDBRANCH  16  17
ENDBRANCH   1  16
TORSDOF 7
ENDMDL
MODEL 9
REMARK VINA RESULT:      -8.0      0.920      1.348
REMARK  Name = 
REMARK  7 active torsions:
REMARK  status: ('A' for Active; 'I' for Inactive)
REMARK    1  A    between atoms: C_2  and  C_3
REMARK    2  A    between atoms: C_3  and  O_4
REMARK    3  A    between atoms: O_4  and  C_5
REMARK    4  A    between atoms: C_5  and  C_7
REMARK    5  A    between atoms: N_11  and  C_12
REMARK    6  A    between atoms: C_12  and  C_13
REMARK    7  A    between atoms: N_20  and  C_21
REMARK                            x       y       z     vdW  Elec       q    Type
REMARK                         _______ _______ _______ _____ _____    ______ ____
ROOT
ATOM      1  C   UNL     1       7.398   6.888  17.299  0.00  0.00    +0.000 C 
ATOM      2  O   UNL     1       7.671   6.504  16.170  0.00  0.00    +0.000 OA
ENDROOT
BRANCH   1   3
ATOM      3  C   UNL     1       6.866   6.016  18.416  0.00  0.00    +0.000 C 
ATOM      4  C   UNL     1       6.782   4.556  17.970  0.00  0.00    +0.000 C 
ATOM      5  C   UNL     1       5.400   4.470  17.370  0.00  0.00    +0.000 C 
ATOM      6  O   UNL     1       5.001   3.580  16.640  0.00  0.00    +0.000 OA
ATOM      7  N   UNL     1       4.665   5.538  17.856  0.00  0.00    +0.000 N 
ATOM      8  C   UNL     1       5.428   6.375  18.745  0.00  0.00    +0.000 C 
BRANCH   7   9
ATOM      9  C   UNL     1       3.238   5.701  17.651  0.00  0.00    +0.000 C 
BRANCH   9  10
ATOM     10  C   UNL     1       2.401   4.849  18.574  0.00  0.00    +0.000 A 
ATOM     11  C   UNL     1       1.712   3.730  18.081  0.00  0.00    +0.000 A 
ATOM     12  C   UNL     1       1.022   2.880  18.948  0.00  0.00    +0.000 A 
ATOM     13  C   UNL     1       1.013   3.138  20.318  0.00  0.00    +0.000 A 
ATOM     14  C   UNL     1       1.680   4.255  20.819  0.00  0.00    +0.000 A 
ATOM     15  C   UNL     1       2.367   5.108  19.952  0.00  0.00    +0.000 A 
ENDBRANCH   9  10
ENDBRANCH   7   9
ENDBRANCH   1   3
BRANCH   1  16
ATOM     16  O   UNL     1       7.583   8.163  17.732  0.00  0.00    +0.000 OA
BRANCH  16  17
ATOM     17  C   UNL     1       8.649   8.313  18.669  0.00  0.00    +0.000 C 
BRANCH  17  19
ATOM     18  O   UNL     1       9.133  10.137  20.136  0.00  0.00    +0.000 OA
ATOM     19  C   UNL     1       8.930   9.784  18.976  0.00  0.00    +0.000 C 
ATOM     20  N   UNL     1       8.942  10.608  17.870  0.00  0.00    +0.000 N 
ATOM     21  H   UNL     1       8.680  10.204  16.967  0.00  0.00    +0.000 HD
BRANCH  20  22
ATOM     22  C   UNL     1       9.299  11.977  17.840  0.00  0.00    +0.000 A 
ATOM     23  C   UNL     1       8.364  13.012  17.923  0.00  0.00    +0.000 A 
ATOM     24  C   UNL     1       8.779  14.348  17.918  0.00  0.00    +0.000 A 
ATOM     25  C   UNL     1      10.132  14.667  17.819  0.00  0.00    +0.000 A 
ATOM     26  C   UNL     1      11.075  13.645  17.735  0.00  0.00    +0.000 A 
ATOM     27  C   UNL     1      10.655  12.316  17.757  0.00  0.00    +0.000 A 
ATOM     28  F   UNL     1      11.580  11.346  17.667  0.00  0.00    +0.000 F 
ENDBRANCH  20  22
ENDBRANCH  17  19
ENDBRANCH  16  17
ENDBRANCH   1  16
TORSDOF 7
ENDMDL
