MODEL 1
REMARK VINA RESULT:      -9.7      0.000      0.000
REMARK  Name = 
REMARK  5 active torsions:
REMARK  status: ('A' for Active; 'I' for Inactive)
REMARK    1  A    between atoms: C_6  and  O_7
REMARK    2  A    between atoms: O_7  and  C_8
REMARK    3  A    between atoms: C_8  and  C_9
REMARK    4  A    between atoms: C_20  and  C_21
REMARK    5  A    between atoms: C_25  and  C_26
REMARK                            x       y       z     vdW  Elec       q    Type
REMARK                         _______ _______ _______ _____ _____    ______ ____
ROOT
ATOM      1  O   UNL     1       2.088   4.317  21.476  0.00  0.00    +0.000 OA
ATOM      2  C   UNL     1       2.331   4.992  20.500  0.00  0.00    +0.000 C 
ATOM      3  C   UNL     1       3.074   4.582  19.286  0.00  0.00    +0.000 A 
ATOM      4  C   UNL     1       3.665   3.376  18.975  0.00  0.00    +0.000 A 
ATOM      5  C   UNL     1       4.339   3.307  17.753  0.00  0.00    +0.000 A 
ATOM      6  C   UNL     1       4.410   4.426  16.895  0.00  0.00    +0.000 A 
ATOM      7  C   UNL     1       3.758   5.621  17.218  0.00  0.00    +0.000 A 
ATOM      8  C   UNL     1       3.110   5.694  18.431  0.00  0.00    +0.000 A 
ATOM      9  C   UNL     1       2.419   6.782  19.059  0.00  0.00    +0.000 A 
ATOM     10  N   UNL     1       2.245   8.010  18.568  0.00  0.00    +0.000 NA
ATOM     11  N   UNL     1       1.555   8.904  19.351  0.00  0.00    +0.000 NA
ATOM     12  C   UNL     1       1.072   8.553  20.585  0.00  0.00    +0.000 A 
ATOM     13  C   UNL     1       1.253   7.272  21.096  0.00  0.00    +0.000 A 
ATOM     14  C   UNL     1       1.944   6.400  20.296  0.00  0.00    +0.000 A 
ENDROOT
BRANCH  12  15
ATOM     15  C   UNL     1       0.336   9.600  21.315  0.00  0.00    +0.000 A 
ATOM     16  C   UNL     1      -0.158   9.382  22.613  0.00  0.00    +0.000 A 
ATOM     17  C   UNL     1      -0.895  10.356  23.285  0.00  0.00    +0.000 A 
ATOM     18  C   UNL     1      -1.154  11.579  22.674  0.00  0.00    +0.000 A 
ATOM     19  C   UNL     1      -0.667  11.843  21.387  0.00  0.00    +0.000 A 
ATOM     20  C   UNL     1       0.081  10.852  20.725  0.00  0.00    +0.000 A 
BRANCH  19  21
ATOM     21  C   UNL     1      -0.947  13.159  20.703  0.00  0.00    +0.000 C 
ATOM     22  F   UNL     1      -1.068  13.052  19.350  0.00  0.00    +0.000 F 
ATOM     23  F   UNL     1      -2.099  13.740  21.136  0.00  0.00    +0.000 F 
ATOM     24  F   UNL     1       0.039  14.074  20.916  0.00  0.00    +0.000 F 
ENDBRANCH  19  21
ENDBRANCH  12  15
BRANCH   6  25
ATOM     25  O   UNL     1       5.159   4.252  15.762  0.00  0.00    +0.000 OA
BRANCH  25  26
ATOM     26  C   UNL     1       6.564   4.083  15.994  0.00  0.00    +0.000 C 
BRANCH  26  27
ATOM     27  C   UNL     1       7.078   5.158  16.917  0.00  0.00    +0.000 A 
ATOM     28  C   UNL     1       7.078   6.507  16.541  0.00  0.00    +0.000 A 
ATOM     29  C   UNL     1       7.589   7.476  17.403  0.00  0.00    +0.000 A 
ATOM     30  C   UNL     1       8.083   7.110  18.653  0.00  0.00    +0.000 A 
ATOM     31  C   UNL     1       8.051   5.775  19.053  0.00  0.00    +0.000 A 
ATOM     32  C   UNL     1       7.544   4.804  18.192  0.00  0.00    +0.000 A 
ENDBRANCH  26  27
ENDBRANCH  25  26
ENDBRANCH   6  25
TORSDOF 5
ENDMDL
MODEL 2
REMARK VINA RESULT:      -9.4      5.389     10.036
REMARK  Name = 
REMARK  5 active torsions:
REMARK  status: ('A' for Active; 'I' for Inactive)
REMARK    1  A    between atoms: C_6  and  O_7
REMARK    2  A    between atoms: O_7  and  C_8
REMARK    3  A    between atoms: C_8  and  C_9
REMARK    4  A    between atoms: C_20  and  C_21
REMARK    5  A    between atoms: C_25  and  C_26
REMARK                            x       y       z     vdW  Elec       q    Type
REMARK                         _______ _______ _______ _____ _____    ______ ____
ROOT
ATOM      1  O   UNL     1       3.362   2.313  18.595  0.00  0.00    +0.000 OA
ATOM      2  C   UNL     1       3.404   3.517  18.473  0.00  0.00    +0.000 C 
ATOM      3  C   UNL     1       2.802   4.533  19.367  0.00  0.00    +0.000 A 
ATOM      4  C   UNL     1       2.061   4.371  20.518  0.00  0.00    +0.000 A 
ATOM      5  C   UNL     1       1.589   5.537  21.126  0.00  0.00    +0.000 A 
ATOM      6  C   UNL     1       1.860   6.809  20.574  0.00  0.00    +0.000 A 
ATOM      7  C   UNL     1       2.656   6.941  19.432  0.00  0.00    +0.000 A 
ATOM      8  C   UNL     1       3.105   5.790  18.822  0.00  0.00    +0.000 A 
ATOM      9  C   UNL     1       3.872   5.603  17.625  0.00  0.00    +0.000 A 
ATOM     10  N   UNL     1       4.340   6.555  16.817  0.00  0.00    +0.000 NA
ATOM     11  N   UNL     1       5.046   6.145  15.712  0.00  0.00    +0.000 NA
ATOM     12  C   UNL     1       5.255   4.816  15.446  0.00  0.00    +0.000 A 
ATOM     13  C   UNL     1       4.766   3.824  16.290  0.00  0.00    +0.000 A 
ATOM     14  C   UNL     1       4.066   4.258  17.384  0.00  0.00    +0.000 A 
ENDROOT
BRANCH  12  15
ATOM     15  C   UNL     1       6.041   4.513  14.238  0.00  0.00    +0.000 A 
ATOM     16  C   UNL     1       7.159   5.286  13.876  0.00  0.00    +0.000 A 
ATOM     17  C   UNL     1       7.874   5.028  12.708  0.00  0.00    +0.000 A 
ATOM     18  C   UNL     1       7.491   3.984  11.871  0.00  0.00    +0.000 A 
ATOM     19  C   UNL     1       6.393   3.180  12.202  0.00  0.00    +0.000 A 
ATOM     20  C   UNL     1       5.685   3.449  13.388  0.00  0.00    +0.000 A 
BRANCH  19  21
ATOM     21  C   UNL     1       5.954   2.050  11.303  0.00  0.00    +0.000 C 
ATOM     22  F   UNL     1       4.767   2.285  10.677  0.00  0.00    +0.000 F 
ATOM     23  F   UNL     1       6.852   1.788  10.315  0.00  0.00    +0.000 F 
ATOM     24  F   UNL     1       5.791   0.881  11.982  0.00  0.00    +0.000 F 
ENDBRANCH  19  21
ENDBRANCH  12  15
BRANCH   6  25
ATOM     25  O   UNL     1       1.282   7.867  21.224  0.00  0.00    +0.000 OA
BRANCH  25  26
ATOM     26  C   UNL     1       0.984   8.992  20.385  0.00  0.00    +0.000 C 
BRANCH  26  27
ATOM     27  C   UNL     1       0.067   9.952  21.098  0.00  0.00    +0.000 A 
ATOM     28  C   UNL     1      -0.515  11.038  20.434  0.00  0.00    +0.000 A 
ATOM     29  C   UNL     1      -1.335  11.928  21.126  0.00  0.00    +0.000 A 
ATOM     30  C   UNL     1      -1.596  11.729  22.481  0.00  0.00    +0.000 A 
ATOM     31  C   UNL     1      -1.054  10.628  23.142  0.00  0.00    +0.000 A 
ATOM     32  C   UNL     1      -0.232   9.740  22.453  0.00  0.00    +0.000 A 
ENDBRANCH  26  27
ENDBRANCH  25  26
ENDBRANCH   6  25
TORSDOF 5
ENDMDL
MODEL 3
REMARK VINA RESULT:      -9.3      4.977      9.708
REMARK  Name = 
REMARK  5 active torsions:
REMARK  status: ('A' for Active; 'I' for Inactive)
REMARK    1  A    between atoms: C_6  and  O_7
REMARK    2  A    between atoms: O_7  and  C_8
REMARK    3  A    between atoms: C_8  and  C_9
REMARK    4  A    between atoms: C_20  and  C_21
REMARK    5  A    between atoms: C_25  and  C_26
REMARK                            x       y       z     vdW  Elec       q    Type
REMARK                         _______ _______ _______ _____ _____    ______ ____
ROOT
ATOM      1  O   UNL     1       0.620   8.620  21.946  0.00  0.00    +0.000 OA
ATOM      2  C   UNL     1       0.807   9.230  20.917  0.00  0.00    +0.000 C 
ATOM      3  C   UNL     1       0.365  10.608  20.596  0.00  0.00    +0.000 A 
ATOM      4  C   UNL     1      -0.351  11.507  21.356  0.00  0.00    +0.000 A 
ATOM      5  C   UNL     1      -0.655  12.731  20.755  0.00  0.00    +0.000 A 
ATOM      6  C   UNL     1      -0.248  13.016  19.433  0.00  0.00    +0.000 A 
ATOM      7  C   UNL     1       0.520  12.100  18.706  0.00  0.00    +0.000 A 
ATOM      8  C   UNL     1       0.803  10.886  19.292  0.00  0.00    +0.000 A 
ATOM      9  C   UNL     1       1.500   9.741  18.784  0.00  0.00    +0.000 A 
ATOM     10  N   UNL     1       2.055   9.611  17.578  0.00  0.00    +0.000 NA
ATOM     11  N   UNL     1       2.667   8.414  17.298  0.00  0.00    +0.000 NA
ATOM     12  C   UNL     1       2.701   7.394  18.213  0.00  0.00    +0.000 A 
ATOM     13  C   UNL     1       2.122   7.530  19.471  0.00  0.00    +0.000 A 
ATOM     14  C   UNL     1       1.518   8.733  19.726  0.00  0.00    +0.000 A 
ENDROOT
BRANCH  12  15
ATOM     15  C   UNL     1       3.403   6.169  17.792  0.00  0.00    +0.000 A 
ATOM     16  C   UNL     1       2.765   4.916  17.803  0.00  0.00    +0.000 A 
ATOM     17  C   UNL     1       3.444   3.750  17.450  0.00  0.00    +0.000 A 
ATOM     18  C   UNL     1       4.782   3.809  17.073  0.00  0.00    +0.000 A 
ATOM     19  C   UNL     1       5.451   5.039  17.034  0.00  0.00    +0.000 A 
ATOM     20  C   UNL     1       4.750   6.207  17.387  0.00  0.00    +0.000 A 
BRANCH  19  21
ATOM     21  C   UNL     1       6.905   5.124  16.639  0.00  0.00    +0.000 C 
ATOM     22  F   UNL     1       7.728   4.386  17.436  0.00  0.00    +0.000 F 
ATOM     23  F   UNL     1       7.128   4.690  15.368  0.00  0.00    +0.000 F 
ATOM     24  F   UNL     1       7.384   6.398  16.690  0.00  0.00    +0.000 F 
ENDBRANCH  19  21
ENDBRANCH  12  15
BRANCH   6  25
ATOM     25  O   UNL     1      -0.668  14.220  18.934  0.00  0.00    +0.000 OA
BRANCH  25  26
ATOM     26  C   UNL     1      -0.138  15.366  19.615  0.00  0.00    +0.000 C 
BRANCH  26  27
ATOM     27  C   UNL     1       0.254  16.431  18.624  0.00  0.00    +0.000 A 
ATOM     28  C   UNL     1      -0.700  17.275  18.042  0.00  0.00    +0.000 A 
ATOM     29  C   UNL     1      -0.313  18.232  17.105  0.00  0.00    +0.000 A 
ATOM     30  C   UNL     1       1.030  18.368  16.758  0.00  0.00    +0.000 A 
ATOM     31  C   UNL     1       1.993  17.560  17.362  0.00  0.00    +0.000 A 
ATOM     32  C   UNL     1       1.607  16.601  18.296  0.00  0.00    +0.000 A 
ENDBRANCH  26  27
ENDBRANCH  25  26
ENDBRANCH   6  25
TORSDOF 5
ENDMDL
MODEL 4
REMARK VINA RESULT:      -9.3      4.898      9.679
REMARK  Name = 
REMARK  5 active torsions:
REMARK  status: ('A' for Active; 'I' for Inactive)
REMARK    1  A    between atoms: C_6  and  O_7
REMARK    2  A    between atoms: O_7  and  C_8
REMARK    3  A    between atoms: C_8  and  C_9
REMARK    4  A    between atoms: C_20  and  C_21
REMARK    5  A    between atoms: C_25  and  C_26
REMARK                            x       y       z     vdW  Elec       q    Type
REMARK                         _______ _______ _______ _____ _____    ______ ____
ROOT
ATOM      1  O   UNL     1       0.820   8.584  22.062  0.00  0.00    +0.000 OA
ATOM      2  C   UNL     1       0.915   9.183  21.014  0.00  0.00    +0.000 C 
ATOM      3  C   UNL     1       0.398  10.535  20.701  0.00  0.00    +0.000 A 
ATOM      4  C   UNL     1      -0.304  11.419  21.492  0.00  0.00    +0.000 A 
ATOM      5  C   UNL     1      -0.696  12.619  20.893  0.00  0.00    +0.000 A 
ATOM      6  C   UNL     1      -0.388  12.895  19.543  0.00  0.00    +0.000 A 
ATOM      7  C   UNL     1       0.369  11.997  18.781  0.00  0.00    +0.000 A 
ATOM      8  C   UNL     1       0.738  10.806  19.367  0.00  0.00    +0.000 A 
ATOM      9  C   UNL     1       1.447   9.681  18.832  0.00  0.00    +0.000 A 
ATOM     10  N   UNL     1       1.927   9.551  17.595  0.00  0.00    +0.000 NA
ATOM     11  N   UNL     1       2.568   8.374  17.295  0.00  0.00    +0.000 NA
ATOM     12  C   UNL     1       2.703   7.373  18.222  0.00  0.00    +0.000 A 
ATOM     13  C   UNL     1       2.202   7.509  19.512  0.00  0.00    +0.000 A 
ATOM     14  C   UNL     1       1.567   8.691  19.787  0.00  0.00    +0.000 A 
ENDROOT
BRANCH  12  15
ATOM     15  C   UNL     1       3.426   6.169  17.775  0.00  0.00    +0.000 A 
ATOM     16  C   UNL     1       2.810   4.905  17.764  0.00  0.00    +0.000 A 
ATOM     17  C   UNL     1       3.509   3.759  17.386  0.00  0.00    +0.000 A 
ATOM     18  C   UNL     1       4.844   3.849  17.006  0.00  0.00    +0.000 A 
ATOM     19  C   UNL     1       5.491   5.091  16.988  0.00  0.00    +0.000 A 
ATOM     20  C   UNL     1       4.770   6.240  17.366  0.00  0.00    +0.000 A 
BRANCH  19  21
ATOM     21  C   UNL     1       6.942   5.210  16.590  0.00  0.00    +0.000 C 
ATOM     22  F   UNL     1       7.461   6.453  16.794  0.00  0.00    +0.000 F 
ATOM     23  F   UNL     1       7.745   4.352  17.277  0.00  0.00    +0.000 F 
ATOM     24  F   UNL     1       7.141   4.936  15.271  0.00  0.00    +0.000 F 
ENDBRANCH  19  21
ENDBRANCH  12  15
BRANCH   6  25
ATOM     25  O   UNL     1      -0.888  14.072  19.053  0.00  0.00    +0.000 OA
BRANCH  25  26
ATOM     26  C   UNL     1      -0.454  15.243  19.758  0.00  0.00    +0.000 C 
BRANCH  26  27
ATOM     27  C   UNL     1       0.139  16.244  18.800  0.00  0.00    +0.000 A 
ATOM     28  C   UNL     1       1.519  16.305  18.568  0.00  0.00    +0.000 A 
ATOM     29  C   UNL     1       2.043  17.262  17.700  0.00  0.00    +0.000 A 
ATOM     30  C   UNL     1       1.193  18.150  17.042  0.00  0.00    +0.000 A 
ATOM     31  C   UNL     1      -0.185  18.071  17.236  0.00  0.00    +0.000 A 
ATOM     32  C   UNL     1      -0.710  17.118  18.105  0.00  0.00    +0.000 A 
ENDBRANCH  26  27
ENDBRANCH  25  26
ENDBRANCH   6  25
TORSDOF 5
ENDMDL
MODEL 5
REMARK VINA RESULT:      -9.3      5.418     10.015
REMARK  Name = 
REMARK  5 active torsions:
REMARK  status: ('A' for Active; 'I' for Inactive)
REMARK    1  A    between atoms: C_6  and  O_7
REMARK    2  A    between atoms: O_7  and  C_8
REMARK    3  A    between atoms: C_8  and  C_9
REMARK    4  A    between atoms: C_20  and  C_21
REMARK    5  A    between atoms: C_25  and  C_26
REMARK                            x       y       z     vdW  Elec       q    Type
REMARK                         _______ _______ _______ _____ _____    ______ ____
ROOT
ATOM      1  O   UNL     1       3.699   2.076  18.648  0.00  0.00    +0.000 OA
ATOM      2  C   UNL     1       3.629   3.278  18.518  0.00  0.00    +0.000 C 
ATOM      3  C   UNL     1       2.949   4.240  19.416  0.00  0.00    +0.000 A 
ATOM      4  C   UNL     1       2.244   4.019  20.580  0.00  0.00    +0.000 A 
ATOM      5  C   UNL     1       1.676   5.140  21.189  0.00  0.00    +0.000 A 
ATOM      6  C   UNL     1       1.819   6.428  20.627  0.00  0.00    +0.000 A 
ATOM      7  C   UNL     1       2.584   6.625  19.472  0.00  0.00    +0.000 A 
ATOM      8  C   UNL     1       3.127   5.517  18.861  0.00  0.00    +0.000 A 
ATOM      9  C   UNL     1       3.890   5.393  17.653  0.00  0.00    +0.000 A 
ATOM     10  N   UNL     1       4.256   6.379  16.833  0.00  0.00    +0.000 NA
ATOM     11  N   UNL     1       4.980   6.028  15.720  0.00  0.00    +0.000 NA
ATOM     12  C   UNL     1       5.307   4.723  15.457  0.00  0.00    +0.000 A 
ATOM     13  C   UNL     1       4.924   3.695  16.313  0.00  0.00    +0.000 A 
ATOM     14  C   UNL     1       4.203   4.070  17.416  0.00  0.00    +0.000 A 
ENDROOT
BRANCH  12  15
ATOM     15  C   UNL     1       6.100   4.485  14.239  0.00  0.00    +0.000 A 
ATOM     16  C   UNL     1       7.173   5.322  13.886  0.00  0.00    +0.000 A 
ATOM     17  C   UNL     1       7.893   5.125  12.708  0.00  0.00    +0.000 A 
ATOM     18  C   UNL     1       7.559   4.080  11.853  0.00  0.00    +0.000 A 
ATOM     19  C   UNL     1       6.506   3.214  12.174  0.00  0.00    +0.000 A 
ATOM     20  C   UNL     1       5.793   3.422  13.369  0.00  0.00    +0.000 A 
BRANCH  19  21
ATOM     21  C   UNL     1       6.120   2.081  11.254  0.00  0.00    +0.000 C 
ATOM     22  F   UNL     1       5.871   0.912  11.908  0.00  0.00    +0.000 F 
ATOM     23  F   UNL     1       4.998   2.352  10.533  0.00  0.00    +0.000 F 
ATOM     24  F   UNL     1       7.093   1.798  10.344  0.00  0.00    +0.000 F 
ENDBRANCH  19  21
ENDBRANCH  12  15
BRANCH   6  25
ATOM     25  O   UNL     1       1.157   7.433  21.280  0.00  0.00    +0.000 OA
BRANCH  25  26
ATOM     26  C   UNL     1       1.479   8.754  20.825  0.00  0.00    +0.000 C 
BRANCH  26  27
ATOM     27  C   UNL     1       0.600   9.773  21.504  0.00  0.00    +0.000 A 
ATOM     28  C   UNL     1      -0.153   9.449  22.639  0.00  0.00    +0.000 A 
ATOM     29  C   UNL     1      -0.981  10.404  23.228  0.00  0.00    +0.000 A 
ATOM     30  C   UNL     1      -1.049  11.692  22.702  0.00  0.00    +0.000 A 
ATOM     31  C   UNL     1      -0.273  12.036  21.596  0.00  0.00    +0.000 A 
ATOM     32  C   UNL     1       0.553  11.083  21.004  0.00  0.00    +0.000 A 
ENDBRANCH  26  27
ENDBRANCH  25  26
ENDBRANCH   6  25
TORSDOF 5
ENDMDL
MODEL 6
REMARK VINA RESULT:      -9.2      4.853     10.188
REMARK  Name = 
REMARK  5 active torsions:
REMARK  status: ('A' for Active; 'I' for Inactive)
REMARK    1  A    between atoms: C_6  and  O_7
REMARK    2  A    between atoms: O_7  and  C_8
REMARK    3  A    between atoms: C_8  and  C_9
REMARK    4  A    between atoms: C_20  and  C_21
REMARK    5  A    between atoms: C_25  and  C_26
REMARK                            x       y       z     vdW  Elec       q    Type
REMARK                         _______ _______ _______ _____ _____    ______ ____
ROOT
ATOM      1  O   UNL     1       0.972   9.034  22.938  0.00  0.00    +0.000 OA
ATOM      2  C   UNL     1       0.600   9.522  21.894  0.00  0.00    +0.000 C 
ATOM      3  C   UNL     1      -0.360  10.636  21.714  0.00  0.00    +0.000 A 
ATOM      4  C   UNL     1      -1.054  11.366  22.655  0.00  0.00    +0.000 A 
ATOM      5  C   UNL     1      -1.930  12.340  22.168  0.00  0.00    +0.000 A 
ATOM      6  C   UNL     1      -2.091  12.548  20.780  0.00  0.00    +0.000 A 
ATOM      7  C   UNL     1      -1.335  11.823  19.853  0.00  0.00    +0.000 A 
ATOM      8  C   UNL     1      -0.486  10.850  20.333  0.00  0.00    +0.000 A 
ATOM      9  C   UNL     1       0.356   9.918  19.641  0.00  0.00    +0.000 A 
ATOM     10  N   UNL     1       0.503   9.799  18.322  0.00  0.00    +0.000 NA
ATOM     11  N   UNL     1       1.360   8.823  17.875  0.00  0.00    +0.000 NA
ATOM     12  C   UNL     1       2.030   8.002  18.745  0.00  0.00    +0.000 A 
ATOM     13  C   UNL     1       1.875   8.127  20.122  0.00  0.00    +0.000 A 
ATOM     14  C   UNL     1       1.015   9.107  20.542  0.00  0.00    +0.000 A 
ENDROOT
BRANCH  12  15
ATOM     15  C   UNL     1       2.930   7.008  18.135  0.00  0.00    +0.000 A 
ATOM     16  C   UNL     1       4.037   7.397  17.360  0.00  0.00    +0.000 A 
ATOM     17  C   UNL     1       4.861   6.457  16.744  0.00  0.00    +0.000 A 
ATOM     18  C   UNL     1       4.601   5.098  16.892  0.00  0.00    +0.000 A 
ATOM     19  C   UNL     1       3.518   4.666  17.669  0.00  0.00    +0.000 A 
ATOM     20  C   UNL     1       2.699   5.628  18.289  0.00  0.00    +0.000 A 
BRANCH  19  21
ATOM     21  C   UNL     1       3.212   3.198  17.833  0.00  0.00    +0.000 C 
ATOM     22  F   UNL     1       2.066   2.809  17.208  0.00  0.00    +0.000 F 
ATOM     23  F   UNL     1       4.197   2.399  17.338  0.00  0.00    +0.000 F 
ATOM     24  F   UNL     1       3.061   2.842  19.139  0.00  0.00    +0.000 F 
ENDBRANCH  19  21
ENDBRANCH  12  15
BRANCH   6  25
ATOM     25  O   UNL     1      -3.031  13.481  20.430  0.00  0.00    +0.000 OA
BRANCH  25  26
ATOM     26  C   UNL     1      -4.314  13.295  21.042  0.00  0.00    +0.000 C 
BRANCH  26  27
ATOM     27  C   UNL     1      -5.196  12.441  20.168  0.00  0.00    +0.000 A 
ATOM     28  C   UNL     1      -4.875  12.192  18.827  0.00  0.00    +0.000 A 
ATOM     29  C   UNL     1      -5.725  11.424  18.033  0.00  0.00    +0.000 A 
ATOM     30  C   UNL     1      -6.890  10.883  18.575  0.00  0.00    +0.000 A 
ATOM     31  C   UNL     1      -7.198  11.092  19.919  0.00  0.00    +0.000 A 
ATOM     32  C   UNL     1      -6.351  11.862  20.713  0.00  0.00    +0.000 A 
ENDBRANCH  26  27
ENDBRANCH  25  26
ENDBRANCH   6  25
TORSDOF 5
ENDMDL
MODEL 7
REMARK VINA RESULT:      -9.2      1.529      2.519
REMARK  Name = 
REMARK  5 active torsions:
REMARK  status: ('A' for Active; 'I' for Inactive)
REMARK    1  A    between atoms: C_6  and  O_7
REMARK    2  A    between atoms: O_7  and  C_8
REMARK    3  A    between atoms: C_8  and  C_9
REMARK    4  A    between atoms: C_20  and  C_21
REMARK    5  A    between atoms: C_25  and  C_26
REMARK                            x       y       z     vdW  Elec       q    Type
REMARK                         _______ _______ _______ _____ _____    ______ ____
ROOT
ATOM      1  O   UNL     1       1.364   3.828  21.382  0.00  0.00    +0.000 OA
ATOM      2  C   UNL     1       1.866   4.502  20.510  0.00  0.00    +0.000 C 
ATOM      3  C   UNL     1       2.748   4.042  19.414  0.00  0.00    +0.000 A 
ATOM      4  C   UNL     1       3.213   2.776  19.124  0.00  0.00    +0.000 A 
ATOM      5  C   UNL     1       4.076   2.663  18.031  0.00  0.00    +0.000 A 
ATOM      6  C   UNL     1       4.451   3.796  17.276  0.00  0.00    +0.000 A 
ATOM      7  C   UNL     1       3.923   5.059  17.567  0.00  0.00    +0.000 A 
ATOM      8  C   UNL     1       3.087   5.173  18.656  0.00  0.00    +0.000 A 
ATOM      9  C   UNL     1       2.452   6.322  19.232  0.00  0.00    +0.000 A 
ATOM     10  N   UNL     1       2.538   7.583  18.805  0.00  0.00    +0.000 NA
ATOM     11  N   UNL     1       1.850   8.532  19.521  0.00  0.00    +0.000 NA
ATOM     12  C   UNL     1       1.113   8.202  20.628  0.00  0.00    +0.000 A 
ATOM     13  C   UNL     1       1.023   6.887  21.073  0.00  0.00    +0.000 A 
ATOM     14  C   UNL     1       1.718   5.959  20.343  0.00  0.00    +0.000 A 
ENDROOT
BRANCH  12  15
ATOM     15  C   UNL     1       0.411   9.313  21.294  0.00  0.00    +0.000 A 
ATOM     16  C   UNL     1       0.001   9.224  22.637  0.00  0.00    +0.000 A 
ATOM     17  C   UNL     1      -0.705  10.256  23.252  0.00  0.00    +0.000 A 
ATOM     18  C   UNL     1      -1.016  11.410  22.540  0.00  0.00    +0.000 A 
ATOM     19  C   UNL     1      -0.614  11.546  21.205  0.00  0.00    +0.000 A 
ATOM     20  C   UNL     1       0.104  10.498  20.600  0.00  0.00    +0.000 A 
BRANCH  19  21
ATOM     21  C   UNL     1      -0.951  12.785  20.411  0.00  0.00    +0.000 C 
ATOM     22  F   UNL     1      -2.286  13.053  20.365  0.00  0.00    +0.000 F 
ATOM     23  F   UNL     1      -0.363  13.905  20.913  0.00  0.00    +0.000 F 
ATOM     24  F   UNL     1      -0.545  12.696  19.114  0.00  0.00    +0.000 F 
ENDBRANCH  19  21
ENDBRANCH  12  15
BRANCH   6  25
ATOM     25  O   UNL     1       5.357   3.564  16.276  0.00  0.00    +0.000 OA
BRANCH  25  26
ATOM     26  C   UNL     1       6.050   4.732  15.815  0.00  0.00    +0.000 C 
BRANCH  26  27
ATOM     27  C   UNL     1       6.469   4.563  14.378  0.00  0.00    +0.000 A 
ATOM     28  C   UNL     1       7.497   5.332  13.820  0.00  0.00    +0.000 A 
ATOM     29  C   UNL     1       7.842   5.176  12.478  0.00  0.00    +0.000 A 
ATOM     30  C   UNL     1       7.178   4.238  11.690  0.00  0.00    +0.000 A 
ATOM     31  C   UNL     1       6.180   3.439  12.246  0.00  0.00    +0.000 A 
ATOM     32  C   UNL     1       5.832   3.596  13.585  0.00  0.00    +0.000 A 
ENDBRANCH  26  27
ENDBRANCH  25  26
ENDBRANCH   6  25
TORSDOF 5
ENDMDL
MODEL 8
REMARK VINA RESULT:      -9.2      1.238      2.073
REMARK  Name = 
REMARK  5 active torsions:
REMARK  status: ('A' for Active; 'I' for Inactive)
REMARK    1  A    between atoms: C_6  and  O_7
REMARK    2  A    between atoms: O_7  and  C_8
REMARK    3  A    between atoms: C_8  and  C_9
REMARK    4  A    between atoms: C_20  and  C_21
REMARK    5  A    between atoms: C_25  and  C_26
REMARK                            x       y       z     vdW  Elec       q    Type
REMARK                         _______ _______ _______ _____ _____    ______ ____
ROOT
ATOM      1  O   UNL     1       1.830   5.227  21.224  0.00  0.00    +0.000 OA
ATOM      2  C   UNL     1       2.242   5.655  20.169  0.00  0.00    +0.000 C 
ATOM      3  C   UNL     1       3.049   4.931  19.159  0.00  0.00    +0.000 A 
ATOM      4  C   UNL     1       3.524   3.637  19.168  0.00  0.00    +0.000 A 
ATOM      5  C   UNL     1       4.302   3.249  18.074  0.00  0.00    +0.000 A 
ATOM      6  C   UNL     1       4.584   4.151  17.024  0.00  0.00    +0.000 A 
ATOM      7  C   UNL     1       4.045   5.441  17.021  0.00  0.00    +0.000 A 
ATOM      8  C   UNL     1       3.295   5.829  18.109  0.00  0.00    +0.000 A 
ATOM      9  C   UNL     1       2.675   7.084  18.420  0.00  0.00    +0.000 A 
ATOM     10  N   UNL     1       2.693   8.191  17.677  0.00  0.00    +0.000 NA
ATOM     11  N   UNL     1       2.037   9.289  18.177  0.00  0.00    +0.000 NA
ATOM     12  C   UNL     1       1.398   9.253  19.390  0.00  0.00    +0.000 A 
ATOM     13  C   UNL     1       1.380   8.098  20.164  0.00  0.00    +0.000 A 
ATOM     14  C   UNL     1       2.041   7.017  19.644  0.00  0.00    +0.000 A 
ENDROOT
BRANCH  12  15
ATOM     15  C   UNL     1       0.720  10.495  19.802  0.00  0.00    +0.000 A 
ATOM     16  C   UNL     1       0.797  11.666  19.028  0.00  0.00    +0.000 A 
ATOM     17  C   UNL     1       0.195  12.853  19.442  0.00  0.00    +0.000 A 
ATOM     18  C   UNL     1      -0.506  12.898  20.644  0.00  0.00    +0.000 A 
ATOM     19  C   UNL     1      -0.620  11.749  21.438  0.00  0.00    +0.000 A 
ATOM     20  C   UNL     1      -0.012  10.557  21.002  0.00  0.00    +0.000 A 
BRANCH  19  21
ATOM     21  C   UNL     1      -1.366  11.779  22.749  0.00  0.00    +0.000 C 
ATOM     22  F   UNL     1      -1.138  10.685  23.529  0.00  0.00    +0.000 F 
ATOM     23  F   UNL     1      -1.038  12.857  23.513  0.00  0.00    +0.000 F 
ATOM     24  F   UNL     1      -2.716  11.838  22.577  0.00  0.00    +0.000 F 
ENDBRANCH  19  21
ENDBRANCH  12  15
BRANCH   6  25
ATOM     25  O   UNL     1       5.415   3.673  16.046  0.00  0.00    +0.000 OA
BRANCH  25  26
ATOM     26  C   UNL     1       6.383   4.618  15.569  0.00  0.00    +0.000 C 
BRANCH  26  27
ATOM     27  C   UNL     1       7.014   5.352  16.723  0.00  0.00    +0.000 A 
ATOM     28  C   UNL     1       7.538   4.668  17.827  0.00  0.00    +0.000 A 
ATOM     29  C   UNL     1       8.089   5.375  18.895  0.00  0.00    +0.000 A 
ATOM     30  C   UNL     1       8.140   6.767  18.860  0.00  0.00    +0.000 A 
ATOM     31  C   UNL     1       7.658   7.456  17.748  0.00  0.00    +0.000 A 
ATOM     32  C   UNL     1       7.104   6.752  16.682  0.00  0.00    +0.000 A 
ENDBRANCH  26  27
ENDBRANCH  25  26
ENDBRANCH   6  25
TORSDOF 5
ENDMDL
MODEL 9
REMARK VINA RESULT:      -9.2      1.569      2.540
REMARK  Name = 
REMARK  5 active torsions:
REMARK  status: ('A' for Active; 'I' for Inactive)
REMARK    1  A    between atoms: C_6  and  O_7
REMARK    2  A    between atoms: O_7  and  C_8
REMARK    3  A    between atoms: C_8  and  C_9
REMARK    4  A    between atoms: C_20  and  C_21
REMARK    5  A    between atoms: C_25  and  C_26
REMARK                            x       y       z     vdW  Elec       q    Type
REMARK                         _______ _______ _______ _____ _____    ______ ____
ROOT
ATOM      1  O   UNL     1       2.041   4.102  21.756  0.00  0.00    +0.000 OA
ATOM      2  C   UNL     1       2.286   4.711  20.739  0.00  0.00    +0.000 C 
ATOM      3  C   UNL     1       2.965   4.200  19.526  0.00  0.00    +0.000 A 
ATOM      4  C   UNL     1       3.479   2.949  19.261  0.00  0.00    +0.000 A 
ATOM      5  C   UNL     1       4.107   2.781  18.024  0.00  0.00    +0.000 A 
ATOM      6  C   UNL     1       4.209   3.850  17.106  0.00  0.00    +0.000 A 
ATOM      7  C   UNL     1       3.633   5.093  17.386  0.00  0.00    +0.000 A 
ATOM      8  C   UNL     1       3.031   5.264  18.613  0.00  0.00    +0.000 A 
ATOM      9  C   UNL     1       2.421   6.419  19.204  0.00  0.00    +0.000 A 
ATOM     10  N   UNL     1       2.297   7.628  18.656  0.00  0.00    +0.000 NA
ATOM     11  N   UNL     1       1.683   8.597  19.412  0.00  0.00    +0.000 NA
ATOM     12  C   UNL     1       1.224   8.336  20.677  0.00  0.00    +0.000 A 
ATOM     13  C   UNL     1       1.353   7.075  21.248  0.00  0.00    +0.000 A 
ATOM     14  C   UNL     1       1.969   6.126  20.475  0.00  0.00    +0.000 A 
ENDROOT
BRANCH  12  15
ATOM     15  C   UNL     1       0.570   9.458  21.373  0.00  0.00    +0.000 A 
ATOM     16  C   UNL     1      -0.242   9.249  22.502  0.00  0.00    +0.000 A 
ATOM     17  C   UNL     1      -0.898  10.306  23.131  0.00  0.00    +0.000 A 
ATOM     18  C   UNL     1      -0.755  11.603  22.649  0.00  0.00    +0.000 A 
ATOM     19  C   UNL     1       0.058  11.857  21.537  0.00  0.00    +0.000 A 
ATOM     20  C   UNL     1       0.719  10.781  20.916  0.00  0.00    +0.000 A 
BRANCH  19  21
ATOM     21  C   UNL     1       0.219  13.255  20.991  0.00  0.00    +0.000 C 
ATOM     22  F   UNL     1      -0.935  13.779  20.490  0.00  0.00    +0.000 F 
ATOM     23  F   UNL     1       0.651  14.138  21.933  0.00  0.00    +0.000 F 
ATOM     24  F   UNL     1       1.124  13.315  19.976  0.00  0.00    +0.000 F 
ENDBRANCH  19  21
ENDBRANCH  12  15
BRANCH   6  25
ATOM     25  O   UNL     1       4.908   3.577  15.961  0.00  0.00    +0.000 OA
BRANCH  25  26
ATOM     26  C   UNL     1       6.132   4.312  15.819  0.00  0.00    +0.000 C 
BRANCH  26  27
ATOM     27  C   UNL     1       6.550   4.364  14.373  0.00  0.00    +0.000 A 
ATOM     28  C   UNL     1       5.978   3.518  13.414  0.00  0.00    +0.000 A 
ATOM     29  C   UNL     1       6.407   3.567  12.089  0.00  0.00    +0.000 A 
ATOM     30  C   UNL     1       7.394   4.473  11.706  0.00  0.00    +0.000 A 
ATOM     31  C   UNL     1       7.942   5.347  12.644  0.00  0.00    +0.000 A 
ATOM     32  C   UNL     1       7.517   5.298  13.970  0.00  0.00    +0.000 A 
ENDBRANCH  26  27
ENDBRANCH  25  26
ENDBRANCH   6  25
TORSDOF 5
ENDMDL
