MODEL 1
REMARK VINA RESULT:      -6.8      0.000      0.000
REMARK  Name = 
REMARK  4 active torsions:
REMARK  status: ('A' for Active; 'I' for Inactive)
REMARK    1  A    between atoms: C_11  and  O_12
REMARK    2  A    between atoms: O_12  and  P_13
REMARK    3  A    between atoms: P_13  and  O_15
REMARK    4  A    between atoms: P_13  and  O_16
REMARK                            x       y       z     vdW  Elec       q    Type
REMARK                         _______ _______ _______ _____ _____    ______ ____
ROOT
ATOM      1  N   UNL     1       0.677   1.375  18.929  0.00  0.00    +0.000 N 
ATOM      2  C   UNL     1       1.305   2.561  18.889  0.00  0.00    +0.000 A 
ATOM      3  N   UNL     1       2.224   2.862  17.993  0.00  0.00    +0.000 NA
ATOM      4  C   UNL     1       2.626   4.133  18.240  0.00  0.00    +0.000 A 
ATOM      5  C   UNL     1       2.058   4.783  19.303  0.00  0.00    +0.000 A 
ATOM      6  S   UNL     1       0.937   3.805  20.065  0.00  0.00    +0.000 S 
ATOM      7  C   UNL     1       2.542   6.177  19.496  0.00  0.00    +0.000 C 
ATOM      8  C   UNL     1       3.531   6.257  18.334  0.00  0.00    +0.000 A 
ATOM      9  C   UNL     1       4.321   7.318  17.932  0.00  0.00    +0.000 A 
ATOM     10  C   UNL     1       5.104   7.150  16.780  0.00  0.00    +0.000 A 
ATOM     11  C   UNL     1       5.084   5.939  16.060  0.00  0.00    +0.000 A 
ATOM     12  C   UNL     1       4.306   4.860  16.479  0.00  0.00    +0.000 A 
ATOM     13  C   UNL     1       3.541   5.034  17.611  0.00  0.00    +0.000 A 
ATOM     14  H   UNL     1       1.120   0.625  18.412  0.00  0.00    +0.000 HD
ATOM     15  H   UNL     1       0.233   1.094  19.794  0.00  0.00    +0.000 HD
ENDROOT
BRANCH  11  16
ATOM     16  O   UNL     1       5.778   5.740  14.900  0.00  0.00    +0.000 OA
BRANCH  16  17
ATOM     17  P   UNL     1       7.060   4.797  14.748  0.00  0.00    +0.000 P 
ATOM     18  O   UNL     1       7.796   4.418  15.984  0.00  0.00    +0.000 OA
BRANCH  17  19
ATOM     19  O   UNL     1       6.518   3.568  13.873  0.00  0.00    +0.000 OA
ATOM     20  H   UNL     1       6.223   2.840  14.449  0.00  0.00    +0.000 HD
ENDBRANCH  17  19
BRANCH  17  21
ATOM     21  O   UNL     1       7.981   5.546  13.679  0.00  0.00    +0.000 OA
ATOM     22  H   UNL     1       8.907   5.254  13.767  0.00  0.00    +0.000 HD
ENDBRANCH  17  21
ENDBRANCH  16  17
ENDBRANCH  11  16
TORSDOF 4
ENDMDL
MODEL 2
REMARK VINA RESULT:      -6.8      5.841      6.705
REMARK  Name = 
REMARK  4 active torsions:
REMARK  status: ('A' for Active; 'I' for Inactive)
REMARK    1  A    between atoms: C_11  and  O_12
REMARK    2  A    between atoms: O_12  and  P_13
REMARK    3  A    between atoms: P_13  and  O_15
REMARK    4  A    between atoms: P_13  and  O_16
REMARK                            x       y       z     vdW  Elec       q    Type
REMARK                         _______ _______ _______ _____ _____    ______ ____
ROOT
ATOM      1  N   UNL     1       4.852   2.216  19.914  0.00  0.00    +0.000 N 
ATOM      2  C   UNL     1       4.473   3.410  19.431  0.00  0.00    +0.000 A 
ATOM      3  N   UNL     1       3.553   4.161  20.004  0.00  0.00    +0.000 NA
ATOM      4  C   UNL     1       3.438   5.290  19.262  0.00  0.00    +0.000 A 
ATOM      5  C   UNL     1       4.219   5.397  18.143  0.00  0.00    +0.000 A 
ATOM      6  S   UNL     1       5.189   4.047  17.967  0.00  0.00    +0.000 S 
ATOM      7  C   UNL     1       4.043   6.671  17.394  0.00  0.00    +0.000 C 
ATOM      8  C   UNL     1       2.987   7.332  18.278  0.00  0.00    +0.000 A 
ATOM      9  C   UNL     1       2.391   8.572  18.148  0.00  0.00    +0.000 A 
ATOM     10  C   UNL     1       1.487   8.972  19.143  0.00  0.00    +0.000 A 
ATOM     11  C   UNL     1       1.198   8.135  20.239  0.00  0.00    +0.000 A 
ATOM     12  C   UNL     1       1.780   6.873  20.358  0.00  0.00    +0.000 A 
ATOM     13  C   UNL     1       2.666   6.489  19.376  0.00  0.00    +0.000 A 
ATOM     14  H   UNL     1       4.222   1.793  20.586  0.00  0.00    +0.000 HD
ATOM     15  H   UNL     1       5.308   1.566  19.288  0.00  0.00    +0.000 HD
ENDROOT
BRANCH  11  16
ATOM     16  O   UNL     1       0.374   8.495  21.267  0.00  0.00    +0.000 OA
BRANCH  16  17
ATOM     17  P   UNL     1       0.678   9.654  22.325  0.00  0.00    +0.000 P 
ATOM     18  O   UNL     1       0.495  11.063  21.885  0.00  0.00    +0.000 OA
BRANCH  17  19
ATOM     19  O   UNL     1      -0.179   9.223  23.609  0.00  0.00    +0.000 OA
ATOM     20  H   UNL     1      -1.096   9.017  23.357  0.00  0.00    +0.000 HD
ENDBRANCH  17  19
BRANCH  17  21
ATOM     21  O   UNL     1       2.161   9.348  22.835  0.00  0.00    +0.000 OA
ATOM     22  H   UNL     1       2.812   9.602  22.155  0.00  0.00    +0.000 HD
ENDBRANCH  17  21
ENDBRANCH  16  17
ENDBRANCH  11  16
TORSDOF 4
ENDMDL
MODEL 3
REMARK VINA RESULT:      -6.7      4.472      5.313
REMARK  Name = 
REMARK  4 active torsions:
REMARK  status: ('A' for Active; 'I' for Inactive)
REMARK    1  A    between atoms: C_11  and  O_12
REMARK    2  A    between atoms: O_12  and  P_13
REMARK    3  A    between atoms: P_13  and  O_15
REMARK    4  A    between atoms: P_13  and  O_16
REMARK                            x       y       z     vdW  Elec       q    Type
REMARK                         _______ _______ _______ _____ _____    ______ ____
ROOT
ATOM      1  N   UNL     1      -0.777   9.679  23.350  0.00  0.00    +0.000 N 
ATOM      2  C   UNL     1      -0.106   9.488  22.202  0.00  0.00    +0.000 A 
ATOM      3  N   UNL     1       0.597   8.402  21.949  0.00  0.00    +0.000 NA
ATOM      4  C   UNL     1       1.119   8.542  20.706  0.00  0.00    +0.000 A 
ATOM      5  C   UNL     1       0.853   9.705  20.033  0.00  0.00    +0.000 A 
ATOM      6  S   UNL     1      -0.118  10.710  20.950  0.00  0.00    +0.000 S 
ATOM      7  C   UNL     1       1.450   9.773  18.671  0.00  0.00    +0.000 C 
ATOM      8  C   UNL     1       2.146   8.413  18.639  0.00  0.00    +0.000 A 
ATOM      9  C   UNL     1       2.883   7.833  17.624  0.00  0.00    +0.000 A 
ATOM     10  C   UNL     1       3.367   6.533  17.828  0.00  0.00    +0.000 A 
ATOM     11  C   UNL     1       3.109   5.843  19.029  0.00  0.00    +0.000 A 
ATOM     12  C   UNL     1       2.387   6.437  20.064  0.00  0.00    +0.000 A 
ATOM     13  C   UNL     1       1.916   7.714  19.855  0.00  0.00    +0.000 A 
ATOM     14  H   UNL     1      -0.510   9.077  24.120  0.00  0.00    +0.000 HD
ATOM     15  H   UNL     1      -1.024  10.624  23.612  0.00  0.00    +0.000 HD
ENDROOT
BRANCH  11  16
ATOM     16  O   UNL     1       3.503   4.555  19.259  0.00  0.00    +0.000 OA
BRANCH  16  17
ATOM     17  P   UNL     1       4.978   3.990  19.015  0.00  0.00    +0.000 P 
ATOM     18  O   UNL     1       6.127   4.877  19.341  0.00  0.00    +0.000 OA
BRANCH  17  19
ATOM     19  O   UNL     1       4.969   2.579  19.776  0.00  0.00    +0.000 OA
ATOM     20  H   UNL     1       5.778   2.468  20.305  0.00  0.00    +0.000 HD
ENDBRANCH  17  19
BRANCH  17  21
ATOM     21  O   UNL     1       4.974   3.510  17.491  0.00  0.00    +0.000 OA
ATOM     22  H   UNL     1       5.381   4.189  16.921  0.00  0.00    +0.000 HD
ENDBRANCH  17  21
ENDBRANCH  16  17
ENDBRANCH  11  16
TORSDOF 4
ENDMDL
MODEL 4
REMARK VINA RESULT:      -6.6      3.387      4.363
REMARK  Name = 
REMARK  4 active torsions:
REMARK  status: ('A' for Active; 'I' for Inactive)
REMARK    1  A    between atoms: C_11  and  O_12
REMARK    2  A    between atoms: O_12  and  P_13
REMARK    3  A    between atoms: P_13  and  O_15
REMARK    4  A    between atoms: P_13  and  O_16
REMARK                            x       y       z     vdW  Elec       q    Type
REMARK                         _______ _______ _______ _____ _____    ______ ____
ROOT
ATOM      1  N   UNL     1       1.105  11.437  18.108  0.00  0.00    +0.000 N 
ATOM      2  C   UNL     1       1.396  10.206  18.560  0.00  0.00    +0.000 A 
ATOM      3  N   UNL     1       2.165   9.360  17.904  0.00  0.00    +0.000 NA
ATOM      4  C   UNL     1       2.254   8.233  18.653  0.00  0.00    +0.000 A 
ATOM      5  C   UNL     1       1.558   8.199  19.831  0.00  0.00    +0.000 A 
ATOM      6  S   UNL     1       0.743   9.637  20.080  0.00  0.00    +0.000 S 
ATOM      7  C   UNL     1       1.720   6.934  20.600  0.00  0.00    +0.000 C 
ATOM      8  C   UNL     1       2.658   6.189  19.651  0.00  0.00    +0.000 A 
ATOM      9  C   UNL     1       3.222   4.934  19.788  0.00  0.00    +0.000 A 
ATOM     10  C   UNL     1       4.110   4.504  18.791  0.00  0.00    +0.000 A 
ATOM     11  C   UNL     1       4.416   5.326  17.689  0.00  0.00    +0.000 A 
ATOM     12  C   UNL     1       3.829   6.582  17.537  0.00  0.00    +0.000 A 
ATOM     13  C   UNL     1       2.958   6.995  18.520  0.00  0.00    +0.000 A 
ATOM     14  H   UNL     1       1.281  11.598  17.124  0.00  0.00    +0.000 HD
ATOM     15  H   UNL     1       0.288  11.904  18.478  0.00  0.00    +0.000 HD
ENDROOT
BRANCH  11  16
ATOM     16  O   UNL     1       5.318   4.985  16.721  0.00  0.00    +0.000 OA
BRANCH  16  17
ATOM     17  P   UNL     1       6.879   5.325  16.760  0.00  0.00    +0.000 P 
ATOM     18  O   UNL     1       7.277   6.746  16.952  0.00  0.00    +0.000 OA
BRANCH  17  19
ATOM     19  O   UNL     1       7.459   4.301  17.848  0.00  0.00    +0.000 OA
ATOM     20  H   UNL     1       8.075   3.671  17.433  0.00  0.00    +0.000 HD
ENDBRANCH  17  19
BRANCH  17  21
ATOM     21  O   UNL     1       7.458   4.693  15.412  0.00  0.00    +0.000 OA
ATOM     22  H   UNL     1       7.693   5.398  14.780  0.00  0.00    +0.000 HD
ENDBRANCH  17  21
ENDBRANCH  16  17
ENDBRANCH  11  16
TORSDOF 4
ENDMDL
MODEL 5
REMARK VINA RESULT:      -6.6      4.263      5.026
REMARK  Name = 
REMARK  4 active torsions:
REMARK  status: ('A' for Active; 'I' for Inactive)
REMARK    1  A    between atoms: C_11  and  O_12
REMARK    2  A    between atoms: O_12  and  P_13
REMARK    3  A    between atoms: P_13  and  O_15
REMARK    4  A    between atoms: P_13  and  O_16
REMARK                            x       y       z     vdW  Elec       q    Type
REMARK                         _______ _______ _______ _____ _____    ______ ____
ROOT
ATOM      1  N   UNL     1      -0.212   8.974  22.168  0.00  0.00    +0.000 N 
ATOM      2  C   UNL     1       0.574   8.685  21.118  0.00  0.00    +0.000 A 
ATOM      3  N   UNL     1       1.420   7.674  21.107  0.00  0.00    +0.000 NA
ATOM      4  C   UNL     1       2.029   7.674  19.895  0.00  0.00    +0.000 A 
ATOM      5  C   UNL     1       1.687   8.663  19.013  0.00  0.00    +0.000 A 
ATOM      6  S   UNL     1       0.528   9.670  19.672  0.00  0.00    +0.000 S 
ATOM      7  C   UNL     1       2.389   8.582  17.703  0.00  0.00    +0.000 C 
ATOM      8  C   UNL     1       3.242   7.340  17.957  0.00  0.00    +0.000 A 
ATOM      9  C   UNL     1       4.128   6.701  17.110  0.00  0.00    +0.000 A 
ATOM     10  C   UNL     1       4.743   5.528  17.570  0.00  0.00    +0.000 A 
ATOM     11  C   UNL     1       4.464   5.019  18.854  0.00  0.00    +0.000 A 
ATOM     12  C   UNL     1       3.588   5.677  19.719  0.00  0.00    +0.000 A 
ATOM     13  C   UNL     1       2.990   6.827  19.258  0.00  0.00    +0.000 A 
ATOM     14  H   UNL     1       0.054   8.549  23.048  0.00  0.00    +0.000 HD
ATOM     15  H   UNL     1      -0.592   9.909  22.242  0.00  0.00    +0.000 HD
ENDROOT
BRANCH  11  16
ATOM     16  O   UNL     1       4.986   3.851  19.333  0.00  0.00    +0.000 OA
BRANCH  16  17
ATOM     17  P   UNL     1       4.154   2.509  19.586  0.00  0.00    +0.000 P 
ATOM     18  O   UNL     1       2.890   2.610  20.365  0.00  0.00    +0.000 OA
BRANCH  17  19
ATOM     19  O   UNL     1       4.002   1.880  18.119  0.00  0.00    +0.000 OA
ATOM     20  H   UNL     1       3.320   2.354  17.611  0.00  0.00    +0.000 HD
ENDBRANCH  17  19
BRANCH  17  21
ATOM     21  O   UNL     1       5.209   1.503  20.238  0.00  0.00    +0.000 OA
ATOM     22  H   UNL     1       4.809   1.037  20.995  0.00  0.00    +0.000 HD
ENDBRANCH  17  21
ENDBRANCH  16  17
ENDBRANCH  11  16
TORSDOF 4
ENDMDL
MODEL 6
REMARK VINA RESULT:      -6.6      5.407      6.633
REMARK  Name = 
REMARK  4 active torsions:
REMARK  status: ('A' for Active; 'I' for Inactive)
REMARK    1  A    between atoms: C_11  and  O_12
REMARK    2  A    between atoms: O_12  and  P_13
REMARK    3  A    between atoms: P_13  and  O_15
REMARK    4  A    between atoms: P_13  and  O_16
REMARK                            x       y       z     vdW  Elec       q    Type
REMARK                         _______ _______ _______ _____ _____    ______ ____
ROOT
ATOM      1  N   UNL     1       8.524   7.228  19.014  0.00  0.00    +0.000 N 
ATOM      2  C   UNL     1       7.550   6.506  18.436  0.00  0.00    +0.000 A 
ATOM      3  N   UNL     1       6.786   5.661  19.100  0.00  0.00    +0.000 NA
ATOM      4  C   UNL     1       5.912   5.126  18.212  0.00  0.00    +0.000 A 
ATOM      5  C   UNL     1       6.013   5.522  16.905  0.00  0.00    +0.000 A 
ATOM      6  S   UNL     1       7.241   6.641  16.718  0.00  0.00    +0.000 S 
ATOM      7  C   UNL     1       5.009   4.900  15.999  0.00  0.00    +0.000 C 
ATOM      8  C   UNL     1       4.266   4.033  17.014  0.00  0.00    +0.000 A 
ATOM      9  C   UNL     1       3.181   3.199  16.821  0.00  0.00    +0.000 A 
ATOM     10  C   UNL     1       2.642   2.556  17.945  0.00  0.00    +0.000 A 
ATOM     11  C   UNL     1       3.190   2.756  19.227  0.00  0.00    +0.000 A 
ATOM     12  C   UNL     1       4.300   3.578  19.419  0.00  0.00    +0.000 A 
ATOM     13  C   UNL     1       4.822   4.204  18.310  0.00  0.00    +0.000 A 
ATOM     14  H   UNL     1       8.826   6.908  19.926  0.00  0.00    +0.000 HD
ATOM     15  H   UNL     1       9.258   7.603  18.428  0.00  0.00    +0.000 HD
ENDROOT
BRANCH  11  16
ATOM     16  O   UNL     1       2.671   2.205  20.365  0.00  0.00    +0.000 OA
BRANCH  16  17
ATOM     17  P   UNL     1       1.580   2.898  21.305  0.00  0.00    +0.000 P 
ATOM     18  O   UNL     1       1.179   2.185  22.549  0.00  0.00    +0.000 OA
BRANCH  17  19
ATOM     19  O   UNL     1       2.159   4.377  21.523  0.00  0.00    +0.000 OA
ATOM     20  H   UNL     1       1.935   4.706  22.412  0.00  0.00    +0.000 HD
ENDBRANCH  17  19
BRANCH  17  21
ATOM     21  O   UNL     1       0.347   3.196  20.334  0.00  0.00    +0.000 OA
ATOM     22  H   UNL     1       0.523   2.838  19.444  0.00  0.00    +0.000 HD
ENDBRANCH  17  21
ENDBRANCH  16  17
ENDBRANCH  11  16
TORSDOF 4
ENDMDL
MODEL 7
REMARK VINA RESULT:      -6.6      0.161      1.039
REMARK  Name = 
REMARK  4 active torsions:
REMARK  status: ('A' for Active; 'I' for Inactive)
REMARK    1  A    between atoms: C_11  and  O_12
REMARK    2  A    between atoms: O_12  and  P_13
REMARK    3  A    between atoms: P_13  and  O_15
REMARK    4  A    between atoms: P_13  and  O_16
REMARK                            x       y       z     vdW  Elec       q    Type
REMARK                         _______ _______ _______ _____ _____    ______ ____
ROOT
ATOM      1  N   UNL     1       0.703   1.415  18.713  0.00  0.00    +0.000 N 
ATOM      2  C   UNL     1       1.357   2.587  18.741  0.00  0.00    +0.000 A 
ATOM      3  N   UNL     1       2.272   2.925  17.854  0.00  0.00    +0.000 NA
ATOM      4  C   UNL     1       2.706   4.168  18.177  0.00  0.00    +0.000 A 
ATOM      5  C   UNL     1       2.166   4.759  19.287  0.00  0.00    +0.000 A 
ATOM      6  S   UNL     1       1.031   3.759  19.999  0.00  0.00    +0.000 S 
ATOM      7  C   UNL     1       2.684   6.127  19.564  0.00  0.00    +0.000 C 
ATOM      8  C   UNL     1       3.660   6.261  18.396  0.00  0.00    +0.000 A 
ATOM      9  C   UNL     1       4.469   7.328  18.053  0.00  0.00    +0.000 A 
ATOM     10  C   UNL     1       5.235   7.218  16.883  0.00  0.00    +0.000 A 
ATOM     11  C   UNL     1       5.178   6.058  16.085  0.00  0.00    +0.000 A 
ATOM     12  C   UNL     1       4.381   4.971  16.445  0.00  0.00    +0.000 A 
ATOM     13  C   UNL     1       3.634   5.088  17.595  0.00  0.00    +0.000 A 
ATOM     14  H   UNL     1       1.123   0.690  18.142  0.00  0.00    +0.000 HD
ATOM     15  H   UNL     1       0.264   1.088  19.563  0.00  0.00    +0.000 HD
ENDROOT
BRANCH  11  16
ATOM     16  O   UNL     1       5.854   5.919  14.906  0.00  0.00    +0.000 OA
BRANCH  16  17
ATOM     17  P   UNL     1       6.911   4.764  14.585  0.00  0.00    +0.000 P 
ATOM     18  O   UNL     1       6.398   3.491  14.010  0.00  0.00    +0.000 OA
BRANCH  17  19
ATOM     19  O   UNL     1       8.025   5.509  13.705  0.00  0.00    +0.000 OA
ATOM     20  H   UNL     1       8.662   4.869  13.343  0.00  0.00    +0.000 HD
ENDBRANCH  17  19
BRANCH  17  21
ATOM     21  O   UNL     1       7.701   4.553  15.957  0.00  0.00    +0.000 OA
ATOM     22  H   UNL     1       7.118   4.742  16.716  0.00  0.00    +0.000 HD
ENDBRANCH  17  21
ENDBRANCH  16  17
ENDBRANCH  11  16
TORSDOF 4
ENDMDL
MODEL 8
REMARK VINA RESULT:      -6.6      4.517      5.460
REMARK  Name = 
REMARK  4 active torsions:
REMARK  status: ('A' for Active; 'I' for Inactive)
REMARK    1  A    between atoms: C_11  and  O_12
REMARK    2  A    between atoms: O_12  and  P_13
REMARK    3  A    between atoms: P_13  and  O_15
REMARK    4  A    between atoms: P_13  and  O_16
REMARK                            x       y       z     vdW  Elec       q    Type
REMARK                         _______ _______ _______ _____ _____    ______ ____
ROOT
ATOM      1  N   UNL     1      -0.785   9.846  23.369  0.00  0.00    +0.000 N 
ATOM      2  C   UNL     1      -0.147   9.644  22.205  0.00  0.00    +0.000 A 
ATOM      3  N   UNL     1       0.610   8.590  21.969  0.00  0.00    +0.000 NA
ATOM      4  C   UNL     1       1.077   8.706  20.702  0.00  0.00    +0.000 A 
ATOM      5  C   UNL     1       0.718   9.820  19.993  0.00  0.00    +0.000 A 
ATOM      6  S   UNL     1      -0.277  10.807  20.904  0.00  0.00    +0.000 S 
ATOM      7  C   UNL     1       1.260   9.863  18.607  0.00  0.00    +0.000 C 
ATOM      8  C   UNL     1       2.034   8.546  18.604  0.00  0.00    +0.000 A 
ATOM      9  C   UNL     1       2.765   7.965  17.586  0.00  0.00    +0.000 A 
ATOM     10  C   UNL     1       3.333   6.705  17.824  0.00  0.00    +0.000 A 
ATOM     11  C   UNL     1       3.160   6.054  19.062  0.00  0.00    +0.000 A 
ATOM     12  C   UNL     1       2.443   6.651  20.099  0.00  0.00    +0.000 A 
ATOM     13  C   UNL     1       1.890   7.888  19.856  0.00  0.00    +0.000 A 
ATOM     14  H   UNL     1      -0.456   9.294  24.152  0.00  0.00    +0.000 HD
ATOM     15  H   UNL     1      -1.078  10.785  23.601  0.00  0.00    +0.000 HD
ENDROOT
BRANCH  11  16
ATOM     16  O   UNL     1       3.638   4.803  19.330  0.00  0.00    +0.000 OA
BRANCH  16  17
ATOM     17  P   UNL     1       5.058   4.242  18.857  0.00  0.00    +0.000 P 
ATOM     18  O   UNL     1       5.328   4.171  17.395  0.00  0.00    +0.000 OA
BRANCH  17  19
ATOM     19  O   UNL     1       6.105   5.113  19.702  0.00  0.00    +0.000 OA
ATOM     20  H   UNL     1       6.459   5.843  19.164  0.00  0.00    +0.000 HD
ENDBRANCH  17  19
BRANCH  17  21
ATOM     21  O   UNL     1       5.189   2.825  19.584  0.00  0.00    +0.000 OA
ATOM     22  H   UNL     1       6.053   2.752  20.030  0.00  0.00    +0.000 HD
ENDBRANCH  17  21
ENDBRANCH  16  17
ENDBRANCH  11  16
TORSDOF 4
ENDMDL
MODEL 9
REMARK VINA RESULT:      -6.6      4.914      6.087
REMARK  Name = 
REMARK  4 active torsions:
REMARK  status: ('A' for Active; 'I' for Inactive)
REMARK    1  A    between atoms: C_11  and  O_12
REMARK    2  A    between atoms: O_12  and  P_13
REMARK    3  A    between atoms: P_13  and  O_15
REMARK    4  A    between atoms: P_13  and  O_16
REMARK                            x       y       z     vdW  Elec       q    Type
REMARK                         _______ _______ _______ _____ _____    ______ ____
ROOT
ATOM      1  N   UNL     1       6.335   3.177  12.165  0.00  0.00    +0.000 N 
ATOM      2  C   UNL     1       6.321   3.751  13.379  0.00  0.00    +0.000 A 
ATOM      3  N   UNL     1       5.448   3.438  14.316  0.00  0.00    +0.000 NA
ATOM      4  C   UNL     1       5.737   4.194  15.404  0.00  0.00    +0.000 A 
ATOM      5  C   UNL     1       6.778   5.078  15.304  0.00  0.00    +0.000 A 
ATOM      6  S   UNL     1       7.486   4.990  13.792  0.00  0.00    +0.000 S 
ATOM      7  C   UNL     1       7.038   5.857  16.545  0.00  0.00    +0.000 C 
ATOM      8  C   UNL     1       5.941   5.277  17.435  0.00  0.00    +0.000 A 
ATOM      9  C   UNL     1       5.642   5.565  18.753  0.00  0.00    +0.000 A 
ATOM     10  C   UNL     1       4.612   4.836  19.366  0.00  0.00    +0.000 A 
ATOM     11  C   UNL     1       3.907   3.843  18.657  0.00  0.00    +0.000 A 
ATOM     12  C   UNL     1       4.191   3.569  17.319  0.00  0.00    +0.000 A 
ATOM     13  C   UNL     1       5.203   4.290  16.728  0.00  0.00    +0.000 A 
ATOM     14  H   UNL     1       5.489   2.685  11.902  0.00  0.00    +0.000 HD
ATOM     15  H   UNL     1       6.801   3.661  11.409  0.00  0.00    +0.000 HD
ENDROOT
BRANCH  11  16
ATOM     16  O   UNL     1       2.936   3.062  19.218  0.00  0.00    +0.000 OA
BRANCH  16  17
ATOM     17  P   UNL     1       1.399   3.052  18.781  0.00  0.00    +0.000 P 
ATOM     18  O   UNL     1       0.986   3.948  17.667  0.00  0.00    +0.000 OA
BRANCH  17  19
ATOM     19  O   UNL     1       1.084   1.496  18.557  0.00  0.00    +0.000 OA
ATOM     20  H   UNL     1       1.901   0.970  18.605  0.00  0.00    +0.000 HD
ENDBRANCH  17  19
BRANCH  17  21
ATOM     21  O   UNL     1       0.598   3.331  20.134  0.00  0.00    +0.000 OA
ATOM     22  H   UNL     1       1.136   3.074  20.906  0.00  0.00    +0.000 HD
ENDBRANCH  17  21
ENDBRANCH  16  17
ENDBRANCH  11  16
TORSDOF 4
ENDMDL
