MODEL 1
REMARK VINA RESULT:      -7.6      0.000      0.000
REMARK  Name = 
REMARK  4 active torsions:
REMARK  status: ('A' for Active; 'I' for Inactive)
REMARK    1  A    between atoms: N_11  and  C_12
REMARK    2  A    between atoms: C_12  and  C_13
REMARK    3  A    between atoms: N_15  and  C_16
REMARK    4  A    between atoms: C_16  and  C_17
REMARK                            x       y       z     vdW  Elec       q    Type
REMARK                         _______ _______ _______ _____ _____    ______ ____
ROOT
ATOM      1  C   UNL     1       6.144   4.738  17.637  0.00  0.00    +0.000 C 
ENDROOT
BRANCH   1  12
ATOM      2  O   UNL     1       5.282   7.361  17.641  0.00  0.00    +0.000 OA
ATOM      3  C   UNL     1       4.443   6.472  17.813  0.00  0.00    +0.000 C 
ATOM      4  C   UNL     1       2.959   6.811  17.904  0.00  0.00    +0.000 C 
ATOM      5  O   UNL     1       2.063   5.894  18.497  0.00  0.00    +0.000 OA
ATOM      6  C   UNL     1       2.409   4.588  18.291  0.00  0.00    +0.000 A 
ATOM      7  C   UNL     1       1.361   3.673  18.445  0.00  0.00    +0.000 A 
ATOM      8  C   UNL     1       1.593   2.311  18.285  0.00  0.00    +0.000 A 
ATOM      9  C   UNL     1       2.879   1.864  18.005  0.00  0.00    +0.000 A 
ATOM     10  C   UNL     1       3.933   2.778  17.879  0.00  0.00    +0.000 A 
ATOM     11  C   UNL     1       3.712   4.157  18.001  0.00  0.00    +0.000 A 
ATOM     12  N   UNL     1       4.751   5.119  17.838  0.00  0.00    +0.000 N 
ENDBRANCH   1  12
BRANCH   1  13
ATOM     13  C   UNL     1       6.587   4.949  16.229  0.00  0.00    +0.000 A 
ATOM     14  C   UNL     1       6.335   4.194  15.101  0.00  0.00    +0.000 A 
ATOM     15  N   UNL     1       7.130   4.748  14.139  0.00  0.00    +0.000 N 
ATOM     16  N   UNL     1       7.810   5.803  14.627  0.00  0.00    +0.000 NA
ATOM     17  N   UNL     1       7.479   5.939  15.904  0.00  0.00    +0.000 NA
BRANCH  15  18
ATOM     18  C   UNL     1       7.467   4.192  12.837  0.00  0.00    +0.000 C 
BRANCH  18  19
ATOM     19  C   UNL     1       6.335   3.424  12.204  0.00  0.00    +0.000 A 
ATOM     20  C   UNL     1       5.072   4.013  12.037  0.00  0.00    +0.000 A 
ATOM     21  C   UNL     1       4.042   3.317  11.402  0.00  0.00    +0.000 A 
ATOM     22  C   UNL     1       4.263   2.031  10.917  0.00  0.00    +0.000 A 
ATOM     23  C   UNL     1       5.515   1.437  11.067  0.00  0.00    +0.000 A 
ATOM     24  C   UNL     1       6.546   2.129  11.706  0.00  0.00    +0.000 A 
ENDBRANCH  18  19
ENDBRANCH  15  18
ENDBRANCH   1  13
TORSDOF 4
ENDMDL
MODEL 2
REMARK VINA RESULT:      -7.5      4.189      7.867
REMARK  Name = 
REMARK  4 active torsions:
REMARK  status: ('A' for Active; 'I' for Inactive)
REMARK    1  A    between atoms: N_11  and  C_12
REMARK    2  A    between atoms: C_12  and  C_13
REMARK    3  A    between atoms: N_15  and  C_16
REMARK    4  A    between atoms: C_16  and  C_17
REMARK                            x       y       z     vdW  Elec       q    Type
REMARK                         _______ _______ _______ _____ _____    ______ ____
ROOT
ATOM      1  C   UNL     1       3.480   6.607  19.440  0.00  0.00    +0.000 C 
ENDROOT
BRANCH   1  12
ATOM      2  O   UNL     1       4.576   6.199  16.939  0.00  0.00    +0.000 OA
ATOM      3  C   UNL     1       3.805   5.345  17.382  0.00  0.00    +0.000 C 
ATOM      4  C   UNL     1       3.562   4.046  16.620  0.00  0.00    +0.000 C 
ATOM      5  O   UNL     1       2.410   3.276  16.892  0.00  0.00    +0.000 OA
ATOM      6  C   UNL     1       2.015   3.332  18.199  0.00  0.00    +0.000 A 
ATOM      7  C   UNL     1       1.199   2.273  18.612  0.00  0.00    +0.000 A 
ATOM      8  C   UNL     1       0.713   2.231  19.914  0.00  0.00    +0.000 A 
ATOM      9  C   UNL     1       1.017   3.265  20.791  0.00  0.00    +0.000 A 
ATOM     10  C   UNL     1       1.811   4.340  20.370  0.00  0.00    +0.000 A 
ATOM     11  C   UNL     1       2.339   4.382  19.072  0.00  0.00    +0.000 A 
ATOM     12  N   UNL     1       3.185   5.437  18.620  0.00  0.00    +0.000 N 
ENDBRANCH   1  12
BRANCH   1  13
ATOM     13  C   UNL     1       2.404   7.636  19.358  0.00  0.00    +0.000 A 
ATOM     14  C   UNL     1       2.071   8.486  18.323  0.00  0.00    +0.000 A 
ATOM     15  N   UNL     1       1.139   9.326  18.862  0.00  0.00    +0.000 N 
ATOM     16  N   UNL     1       0.882   9.000  20.143  0.00  0.00    +0.000 NA
ATOM     17  N   UNL     1       1.646   7.961  20.454  0.00  0.00    +0.000 NA
BRANCH  15  18
ATOM     18  C   UNL     1       0.644  10.576  18.306  0.00  0.00    +0.000 C 
BRANCH  18  19
ATOM     19  C   UNL     1      -0.858  10.624  18.190  0.00  0.00    +0.000 A 
ATOM     20  C   UNL     1      -1.607  11.557  18.925  0.00  0.00    +0.000 A 
ATOM     21  C   UNL     1      -2.992  11.634  18.773  0.00  0.00    +0.000 A 
ATOM     22  C   UNL     1      -3.646  10.790  17.879  0.00  0.00    +0.000 A 
ATOM     23  C   UNL     1      -2.915   9.865  17.136  0.00  0.00    +0.000 A 
ATOM     24  C   UNL     1      -1.529   9.783  17.288  0.00  0.00    +0.000 A 
ENDBRANCH  18  19
ENDBRANCH  15  18
ENDBRANCH   1  13
TORSDOF 4
ENDMDL
MODEL 3
REMARK VINA RESULT:      -7.5      2.886      7.350
REMARK  Name = 
REMARK  4 active torsions:
REMARK  status: ('A' for Active; 'I' for Inactive)
REMARK    1  A    between atoms: N_11  and  C_12
REMARK    2  A    between atoms: C_12  and  C_13
REMARK    3  A    between atoms: N_15  and  C_16
REMARK    4  A    between atoms: C_16  and  C_17
REMARK                            x       y       z     vdW  Elec       q    Type
REMARK                         _______ _______ _______ _____ _____    ______ ____
ROOT
ATOM      1  C   UNL     1       5.131   3.784  19.015  0.00  0.00    +0.000 C 
ENDROOT
BRANCH   1  12
ATOM      2  O   UNL     1       6.969   5.499  20.155  0.00  0.00    +0.000 OA
ATOM      3  C   UNL     1       6.921   5.433  18.925  0.00  0.00    +0.000 C 
ATOM      4  C   UNL     1       7.931   6.187  18.065  0.00  0.00    +0.000 C 
ATOM      5  O   UNL     1       7.642   6.449  16.708  0.00  0.00    +0.000 OA
ATOM      6  C   UNL     1       6.903   5.467  16.111  0.00  0.00    +0.000 A 
ATOM      7  C   UNL     1       6.978   5.443  14.713  0.00  0.00    +0.000 A 
ATOM      8  C   UNL     1       6.251   4.504  13.990  0.00  0.00    +0.000 A 
ATOM      9  C   UNL     1       5.423   3.613  14.663  0.00  0.00    +0.000 A 
ATOM     10  C   UNL     1       5.326   3.656  16.059  0.00  0.00    +0.000 A 
ATOM     11  C   UNL     1       6.079   4.571  16.808  0.00  0.00    +0.000 A 
ATOM     12  N   UNL     1       6.038   4.616  18.233  0.00  0.00    +0.000 N 
ENDBRANCH   1  12
BRANCH   1  13
ATOM     13  C   UNL     1       3.841   4.475  19.302  0.00  0.00    +0.000 A 
ATOM     14  C   UNL     1       3.603   5.782  19.678  0.00  0.00    +0.000 A 
ATOM     15  N   UNL     1       2.271   5.809  19.978  0.00  0.00    +0.000 N 
ATOM     16  N   UNL     1       1.707   4.604  19.772  0.00  0.00    +0.000 NA
ATOM     17  N   UNL     1       2.658   3.782  19.350  0.00  0.00    +0.000 NA
BRANCH  15  18
ATOM     18  C   UNL     1       1.541   6.854  20.680  0.00  0.00    +0.000 C 
BRANCH  18  19
ATOM     19  C   UNL     1       1.503   8.162  19.932  0.00  0.00    +0.000 A 
ATOM     20  C   UNL     1       1.951   8.244  18.603  0.00  0.00    +0.000 A 
ATOM     21  C   UNL     1       1.864   9.444  17.897  0.00  0.00    +0.000 A 
ATOM     22  C   UNL     1       1.321  10.574  18.503  0.00  0.00    +0.000 A 
ATOM     23  C   UNL     1       0.864  10.506  19.818  0.00  0.00    +0.000 A 
ATOM     24  C   UNL     1       0.953   9.307  20.529  0.00  0.00    +0.000 A 
ENDBRANCH  18  19
ENDBRANCH  15  18
ENDBRANCH   1  13
TORSDOF 4
ENDMDL
MODEL 4
REMARK VINA RESULT:      -7.4      3.190      7.667
REMARK  Name = 
REMARK  4 active torsions:
REMARK  status: ('A' for Active; 'I' for Inactive)
REMARK    1  A    between atoms: N_11  and  C_12
REMARK    2  A    between atoms: C_12  and  C_13
REMARK    3  A    between atoms: N_15  and  C_16
REMARK    4  A    between atoms: C_16  and  C_17
REMARK                            x       y       z     vdW  Elec       q    Type
REMARK                         _______ _______ _______ _____ _____    ______ ____
ROOT
ATOM      1  C   UNL     1       3.865   4.560  18.312  0.00  0.00    +0.000 C 
ENDROOT
BRANCH   1  12
ATOM      2  O   UNL     1       5.967   5.113  20.014  0.00  0.00    +0.000 OA
ATOM      3  C   UNL     1       6.204   5.024  18.807  0.00  0.00    +0.000 C 
ATOM      4  C   UNL     1       7.637   5.098  18.288  0.00  0.00    +0.000 C 
ATOM      5  O   UNL     1       7.878   5.409  16.932  0.00  0.00    +0.000 OA
ATOM      6  C   UNL     1       6.917   4.931  16.086  0.00  0.00    +0.000 A 
ATOM      7  C   UNL     1       7.319   4.806  14.751  0.00  0.00    +0.000 A 
ATOM      8  C   UNL     1       6.422   4.353  13.790  0.00  0.00    +0.000 A 
ATOM      9  C   UNL     1       5.115   4.058  14.160  0.00  0.00    +0.000 A 
ATOM     10  C   UNL     1       4.705   4.210  15.490  0.00  0.00    +0.000 A 
ATOM     11  C   UNL     1       5.604   4.631  16.480  0.00  0.00    +0.000 A 
ATOM     12  N   UNL     1       5.234   4.758  17.851  0.00  0.00    +0.000 N 
ENDBRANCH   1  12
BRANCH   1  13
ATOM     13  C   UNL     1       3.140   5.850  18.490  0.00  0.00    +0.000 A 
ATOM     14  C   UNL     1       2.958   6.891  17.602  0.00  0.00    +0.000 A 
ATOM     15  N   UNL     1       2.382   7.878  18.351  0.00  0.00    +0.000 N 
ATOM     16  N   UNL     1       2.188   7.466  19.619  0.00  0.00    +0.000 NA
ATOM     17  N   UNL     1       2.642   6.223  19.713  0.00  0.00    +0.000 NA
BRANCH  15  18
ATOM     18  C   UNL     1       2.219   9.279  17.998  0.00  0.00    +0.000 C 
BRANCH  18  19
ATOM     19  C   UNL     1       0.933   9.878  18.508  0.00  0.00    +0.000 A 
ATOM     20  C   UNL     1       0.920  10.682  19.659  0.00  0.00    +0.000 A 
ATOM     21  C   UNL     1      -0.264  11.278  20.096  0.00  0.00    +0.000 A 
ATOM     22  C   UNL     1      -1.446  11.087  19.386  0.00  0.00    +0.000 A 
ATOM     23  C   UNL     1      -1.447  10.300  18.236  0.00  0.00    +0.000 A 
ATOM     24  C   UNL     1      -0.265   9.699  17.798  0.00  0.00    +0.000 A 
ENDBRANCH  18  19
ENDBRANCH  15  18
ENDBRANCH   1  13
TORSDOF 4
ENDMDL
MODEL 5
REMARK VINA RESULT:      -7.4      0.585      1.168
REMARK  Name = 
REMARK  4 active torsions:
REMARK  status: ('A' for Active; 'I' for Inactive)
REMARK    1  A    between atoms: N_11  and  C_12
REMARK    2  A    between atoms: C_12  and  C_13
REMARK    3  A    between atoms: N_15  and  C_16
REMARK    4  A    between atoms: C_16  and  C_17
REMARK                            x       y       z     vdW  Elec       q    Type
REMARK                         _______ _______ _______ _____ _____    ______ ____
ROOT
ATOM      1  C   UNL     1       6.160   4.327  17.156  0.00  0.00    +0.000 C 
ENDROOT
BRANCH   1  12
ATOM      2  O   UNL     1       5.726   7.050  17.286  0.00  0.00    +0.000 OA
ATOM      3  C   UNL     1       4.785   6.298  17.550  0.00  0.00    +0.000 C 
ATOM      4  C   UNL     1       3.392   6.859  17.821  0.00  0.00    +0.000 C 
ATOM      5  O   UNL     1       2.441   6.076  18.510  0.00  0.00    +0.000 OA
ATOM      6  C   UNL     1       2.550   4.738  18.254  0.00  0.00    +0.000 A 
ATOM      7  C   UNL     1       1.398   3.992  18.525  0.00  0.00    +0.000 A 
ATOM      8  C   UNL     1       1.393   2.616  18.328  0.00  0.00    +0.000 A 
ATOM      9  C   UNL     1       2.552   1.983  17.891  0.00  0.00    +0.000 A 
ATOM     10  C   UNL     1       3.713   2.726  17.647  0.00  0.00    +0.000 A 
ATOM     11  C   UNL     1       3.727   4.119  17.806  0.00  0.00    +0.000 A 
ATOM     12  N   UNL     1       4.878   4.913  17.527  0.00  0.00    +0.000 N 
ENDBRANCH   1  12
BRANCH   1  13
ATOM     13  C   UNL     1       6.636   4.809  15.828  0.00  0.00    +0.000 A 
ATOM     14  C   UNL     1       6.222   4.455  14.560  0.00  0.00    +0.000 A 
ATOM     15  N   UNL     1       7.119   5.065  13.730  0.00  0.00    +0.000 N 
ATOM     16  N   UNL     1       8.016   5.782  14.434  0.00  0.00    +0.000 NA
ATOM     17  N   UNL     1       7.724   5.637  15.721  0.00  0.00    +0.000 NA
BRANCH  15  18
ATOM     18  C   UNL     1       7.323   4.821  12.310  0.00  0.00    +0.000 C 
BRANCH  18  19
ATOM     19  C   UNL     1       6.708   3.531  11.832  0.00  0.00    +0.000 A 
ATOM     20  C   UNL     1       7.515   2.438  11.477  0.00  0.00    +0.000 A 
ATOM     21  C   UNL     1       6.939   1.227  11.086  0.00  0.00    +0.000 A 
ATOM     22  C   UNL     1       5.554   1.090  11.054  0.00  0.00    +0.000 A 
ATOM     23  C   UNL     1       4.741   2.163  11.413  0.00  0.00    +0.000 A 
ATOM     24  C   UNL     1       5.313   3.377  11.801  0.00  0.00    +0.000 A 
ENDBRANCH  18  19
ENDBRANCH  15  18
ENDBRANCH   1  13
TORSDOF 4
ENDMDL
MODEL 6
REMARK VINA RESULT:      -7.4      4.151      8.272
REMARK  Name = 
REMARK  4 active torsions:
REMARK  status: ('A' for Active; 'I' for Inactive)
REMARK    1  A    between atoms: N_11  and  C_12
REMARK    2  A    between atoms: C_12  and  C_13
REMARK    3  A    between atoms: N_15  and  C_16
REMARK    4  A    between atoms: C_16  and  C_17
REMARK                            x       y       z     vdW  Elec       q    Type
REMARK                         _______ _______ _______ _____ _____    ______ ____
ROOT
ATOM      1  C   UNL     1       3.071   6.114  20.111  0.00  0.00    +0.000 C 
ENDROOT
BRANCH   1  12
ATOM      2  O   UNL     1       1.098   4.212  19.778  0.00  0.00    +0.000 OA
ATOM      3  C   UNL     1       1.989   4.280  18.928  0.00  0.00    +0.000 C 
ATOM      4  C   UNL     1       1.931   3.420  17.670  0.00  0.00    +0.000 C 
ATOM      5  O   UNL     1       3.106   3.188  16.922  0.00  0.00    +0.000 OA
ATOM      6  C   UNL     1       3.974   4.243  16.934  0.00  0.00    +0.000 A 
ATOM      7  C   UNL     1       4.897   4.256  15.882  0.00  0.00    +0.000 A 
ATOM      8  C   UNL     1       5.848   5.267  15.799  0.00  0.00    +0.000 A 
ATOM      9  C   UNL     1       5.897   6.244  16.786  0.00  0.00    +0.000 A 
ATOM     10  C   UNL     1       4.991   6.215  17.854  0.00  0.00    +0.000 A 
ATOM     11  C   UNL     1       4.002   5.225  17.936  0.00  0.00    +0.000 A 
ATOM     12  N   UNL     1       3.038   5.187  18.985  0.00  0.00    +0.000 N 
ENDBRANCH   1  12
BRANCH   1  13
ATOM     13  C   UNL     1       2.168   7.282  19.904  0.00  0.00    +0.000 A 
ATOM     14  C   UNL     1       2.068   8.143  18.829  0.00  0.00    +0.000 A 
ATOM     15  N   UNL     1       1.215   9.120  19.256  0.00  0.00    +0.000 N 
ATOM     16  N   UNL     1       0.783   8.867  20.507  0.00  0.00    +0.000 NA
ATOM     17  N   UNL     1       1.355   7.740  20.910  0.00  0.00    +0.000 NA
BRANCH  15  18
ATOM     18  C   UNL     1       0.963  10.412  18.637  0.00  0.00    +0.000 C 
BRANCH  18  19
ATOM     19  C   UNL     1      -0.502  10.707  18.446  0.00  0.00    +0.000 A 
ATOM     20  C   UNL     1      -1.277   9.956  17.548  0.00  0.00    +0.000 A 
ATOM     21  C   UNL     1      -2.645  10.198  17.415  0.00  0.00    +0.000 A 
ATOM     22  C   UNL     1      -3.258  11.185  18.182  0.00  0.00    +0.000 A 
ATOM     23  C   UNL     1      -2.504  11.933  19.084  0.00  0.00    +0.000 A 
ATOM     24  C   UNL     1      -1.134  11.696  19.217  0.00  0.00    +0.000 A 
ENDBRANCH  18  19
ENDBRANCH  15  18
ENDBRANCH   1  13
TORSDOF 4
ENDMDL
MODEL 7
REMARK VINA RESULT:      -7.4      4.255      8.282
REMARK  Name = 
REMARK  4 active torsions:
REMARK  status: ('A' for Active; 'I' for Inactive)
REMARK    1  A    between atoms: N_11  and  C_12
REMARK    2  A    between atoms: C_12  and  C_13
REMARK    3  A    between atoms: N_15  and  C_16
REMARK    4  A    between atoms: C_16  and  C_17
REMARK                            x       y       z     vdW  Elec       q    Type
REMARK                         _______ _______ _______ _____ _____    ______ ____
ROOT
ATOM      1  C   UNL     1       3.078   6.328  20.094  0.00  0.00    +0.000 C 
ENDROOT
BRANCH   1  12
ATOM      2  O   UNL     1       1.116   4.387  20.035  0.00  0.00    +0.000 OA
ATOM      3  C   UNL     1       1.950   4.399  19.127  0.00  0.00    +0.000 C 
ATOM      4  C   UNL     1       1.825   3.444  17.943  0.00  0.00    +0.000 C 
ATOM      5  O   UNL     1       2.953   3.166  17.141  0.00  0.00    +0.000 OA
ATOM      6  C   UNL     1       3.804   4.228  17.017  0.00  0.00    +0.000 A 
ATOM      7  C   UNL     1       4.658   4.169  15.910  0.00  0.00    +0.000 A 
ATOM      8  C   UNL     1       5.588   5.179  15.688  0.00  0.00    +0.000 A 
ATOM      9  C   UNL     1       5.684   6.230  16.594  0.00  0.00    +0.000 A 
ATOM     10  C   UNL     1       4.850   6.274  17.717  0.00  0.00    +0.000 A 
ATOM     11  C   UNL     1       3.882   5.284  17.938  0.00  0.00    +0.000 A 
ATOM     12  N   UNL     1       2.987   5.317  19.047  0.00  0.00    +0.000 N 
ENDBRANCH   1  12
BRANCH   1  13
ATOM     13  C   UNL     1       2.109   7.442  19.887  0.00  0.00    +0.000 A 
ATOM     14  C   UNL     1       1.947   8.283  18.805  0.00  0.00    +0.000 A 
ATOM     15  N   UNL     1       1.046   9.215  19.233  0.00  0.00    +0.000 N 
ATOM     16  N   UNL     1       0.646   8.954  20.493  0.00  0.00    +0.000 NA
ATOM     17  N   UNL     1       1.285   7.865  20.900  0.00  0.00    +0.000 NA
BRANCH  15  18
ATOM     18  C   UNL     1       0.714  10.484  18.604  0.00  0.00    +0.000 C 
BRANCH  18  19
ATOM     19  C   UNL     1      -0.767  10.691  18.420  0.00  0.00    +0.000 A 
ATOM     20  C   UNL     1      -1.455  11.662  19.165  0.00  0.00    +0.000 A 
ATOM     21  C   UNL     1      -2.816  11.887  18.953  0.00  0.00    +0.000 A 
ATOM     22  C   UNL     1      -3.505  11.154  17.990  0.00  0.00    +0.000 A 
ATOM     23  C   UNL     1      -2.833  10.193  17.237  0.00  0.00    +0.000 A 
ATOM     24  C   UNL     1      -1.472   9.962  17.449  0.00  0.00    +0.000 A 
ENDBRANCH  18  19
ENDBRANCH  15  18
ENDBRANCH   1  13
TORSDOF 4
ENDMDL
MODEL 8
REMARK VINA RESULT:      -7.3      5.291      8.154
REMARK  Name = 
REMARK  4 active torsions:
REMARK  status: ('A' for Active; 'I' for Inactive)
REMARK    1  A    between atoms: N_11  and  C_12
REMARK    2  A    between atoms: C_12  and  C_13
REMARK    3  A    between atoms: N_15  and  C_16
REMARK    4  A    between atoms: C_16  and  C_17
REMARK                            x       y       z     vdW  Elec       q    Type
REMARK                         _______ _______ _______ _____ _____    ______ ____
ROOT
ATOM      1  C   UNL     1       1.291  10.204  18.264  0.00  0.00    +0.000 C 
ENDROOT
BRANCH   1  12
ATOM      2  O   UNL     1       1.757  12.494  19.734  0.00  0.00    +0.000 OA
ATOM      3  C   UNL     1       0.595  12.239  19.407  0.00  0.00    +0.000 C 
ATOM      4  C   UNL     1      -0.531  13.225  19.703  0.00  0.00    +0.000 C 
ATOM      5  O   UNL     1      -1.871  12.780  19.713  0.00  0.00    +0.000 OA
ATOM      6  C   UNL     1      -2.117  11.781  18.814  0.00  0.00    +0.000 A 
ATOM      7  C   UNL     1      -3.463  11.628  18.461  0.00  0.00    +0.000 A 
ATOM      8  C   UNL     1      -3.844  10.629  17.573  0.00  0.00    +0.000 A 
ATOM      9  C   UNL     1      -2.883   9.764  17.063  0.00  0.00    +0.000 A 
ATOM     10  C   UNL     1      -1.540   9.899  17.437  0.00  0.00    +0.000 A 
ATOM     11  C   UNL     1      -1.132  10.922  18.304  0.00  0.00    +0.000 A 
ATOM     12  N   UNL     1       0.231  11.117  18.675  0.00  0.00    +0.000 N 
ENDBRANCH   1  12
BRANCH   1  13
ATOM     13  C   UNL     1       1.486   9.094  19.240  0.00  0.00    +0.000 A 
ATOM     14  C   UNL     1       2.100   7.869  19.074  0.00  0.00    +0.000 A 
ATOM     15  N   UNL     1       1.827   7.195  20.231  0.00  0.00    +0.000 N 
ATOM     16  N   UNL     1       1.116   7.962  21.078  0.00  0.00    +0.000 NA
ATOM     17  N   UNL     1       0.908   9.131  20.484  0.00  0.00    +0.000 NA
BRANCH  15  18
ATOM     18  C   UNL     1       1.998   5.774  20.491  0.00  0.00    +0.000 C 
BRANCH  18  19
ATOM     19  C   UNL     1       2.644   5.031  19.350  0.00  0.00    +0.000 A 
ATOM     20  C   UNL     1       4.040   4.898  19.276  0.00  0.00    +0.000 A 
ATOM     21  C   UNL     1       4.630   4.163  18.247  0.00  0.00    +0.000 A 
ATOM     22  C   UNL     1       3.836   3.544  17.285  0.00  0.00    +0.000 A 
ATOM     23  C   UNL     1       2.449   3.659  17.350  0.00  0.00    +0.000 A 
ATOM     24  C   UNL     1       1.855   4.397  18.377  0.00  0.00    +0.000 A 
ENDBRANCH  18  19
ENDBRANCH  15  18
ENDBRANCH   1  13
TORSDOF 4
ENDMDL
MODEL 9
REMARK VINA RESULT:      -7.3      1.798      2.813
REMARK  Name = 
REMARK  4 active torsions:
REMARK  status: ('A' for Active; 'I' for Inactive)
REMARK    1  A    between atoms: N_11  and  C_12
REMARK    2  A    between atoms: C_12  and  C_13
REMARK    3  A    between atoms: N_15  and  C_16
REMARK    4  A    between atoms: C_16  and  C_17
REMARK                            x       y       z     vdW  Elec       q    Type
REMARK                         _______ _______ _______ _____ _____    ______ ____
ROOT
ATOM      1  C   UNL     1       3.054   6.651  17.544  0.00  0.00    +0.000 C 
ENDROOT
BRANCH   1  12
ATOM      2  O   UNL     1       2.216   7.982  19.812  0.00  0.00    +0.000 OA
ATOM      3  C   UNL     1       2.113   6.753  19.788  0.00  0.00    +0.000 C 
ATOM      4  C   UNL     1       1.430   6.007  20.930  0.00  0.00    +0.000 C 
ATOM      5  O   UNL     1       1.669   4.627  21.110  0.00  0.00    +0.000 OA
ATOM      6  C   UNL     1       1.871   3.954  19.938  0.00  0.00    +0.000 A 
ATOM      7  C   UNL     1       1.657   2.573  20.010  0.00  0.00    +0.000 A 
ATOM      8  C   UNL     1       1.853   1.775  18.889  0.00  0.00    +0.000 A 
ATOM      9  C   UNL     1       2.296   2.355  17.705  0.00  0.00    +0.000 A 
ATOM     10  C   UNL     1       2.537   3.733  17.641  0.00  0.00    +0.000 A 
ATOM     11  C   UNL     1       2.310   4.559  18.751  0.00  0.00    +0.000 A 
ATOM     12  N   UNL     1       2.504   5.971  18.711  0.00  0.00    +0.000 N 
ENDBRANCH   1  12
BRANCH   1  13
ATOM     13  C   UNL     1       4.504   6.360  17.355  0.00  0.00    +0.000 A 
ATOM     14  C   UNL     1       5.241   6.260  16.192  0.00  0.00    +0.000 A 
ATOM     15  N   UNL     1       6.460   5.802  16.603  0.00  0.00    +0.000 N 
ATOM     16  N   UNL     1       6.492   5.658  17.942  0.00  0.00    +0.000 NA
ATOM     17  N   UNL     1       5.302   6.005  18.413  0.00  0.00    +0.000 NA
BRANCH  15  18
ATOM     18  C   UNL     1       7.531   5.264  15.778  0.00  0.00    +0.000 C 
BRANCH  18  19
ATOM     19  C   UNL     1       7.058   4.765  14.437  0.00  0.00    +0.000 A 
ATOM     20  C   UNL     1       7.718   5.141  13.256  0.00  0.00    +0.000 A 
ATOM     21  C   UNL     1       7.310   4.633  12.022  0.00  0.00    +0.000 A 
ATOM     22  C   UNL     1       6.246   3.737  11.952  0.00  0.00    +0.000 A 
ATOM     23  C   UNL     1       5.587   3.347  13.116  0.00  0.00    +0.000 A 
ATOM     24  C   UNL     1       5.991   3.857  14.353  0.00  0.00    +0.000 A 
ENDBRANCH  18  19
ENDBRANCH  15  18
ENDBRANCH   1  13
TORSDOF 4
ENDMDL
