MODEL 1
REMARK VINA RESULT:      -9.2      0.000      0.000
REMARK  Name = 
REMARK  4 active torsions:
REMARK  status: ('A' for Active; 'I' for Inactive)
REMARK    1  A    between atoms: C_1  and  C_2
REMARK    2  A    between atoms: C_4  and  N_5
REMARK    3  A    between atoms: C_11  and  C_12
REMARK    4  A    between atoms: C_18  and  C_19
REMARK                            x       y       z     vdW  Elec       q    Type
REMARK                         _______ _______ _______ _____ _____    ______ ____
ROOT
ATOM      1  C   UNL     1       1.600   2.498  21.238  0.00  0.00    +0.000 C 
ATOM      2  C   UNL     1       2.456   3.502  20.508  0.00  0.00    +0.000 A 
ATOM      3  C   UNL     1       1.866   4.852  20.270  0.00  0.00    +0.000 A 
ATOM      4  C   UNL     1       2.632   5.754  19.628  0.00  0.00    +0.000 A 
ATOM      5  N   UNL     1       3.933   5.355  19.232  0.00  0.00    +0.000 N 
ATOM      6  N   UNL     1       4.904   6.069  18.596  0.00  0.00    +0.000 NA
ATOM      7  C   UNL     1       5.919   5.188  18.514  0.00  0.00    +0.000 A 
ATOM      8  N   UNL     1       5.636   3.953  19.055  0.00  0.00    +0.000 NA
ATOM      9  C   UNL     1       4.406   4.065  19.501  0.00  0.00    +0.000 A 
ATOM     10  N   UNL     1       3.648   3.132  20.145  0.00  0.00    +0.000 NA
ENDROOT
BRANCH   4  11
ATOM     11  N   UNL     1       2.156   7.057  19.373  0.00  0.00    +0.000 N 
ATOM     12  C   UNL     1       2.762   7.858  18.288  0.00  0.00    +0.000 C 
ATOM     13  C   UNL     1       1.702   8.822  17.745  0.00  0.00    +0.000 C 
ATOM     14  C   UNL     1       1.078   9.621  18.847  0.00  0.00    +0.000 A 
ATOM     15  C   UNL     1       0.400  10.797  18.608  0.00  0.00    +0.000 A 
ATOM     16  N   UNL     1      -0.184  11.531  19.571  0.00  0.00    +0.000 NA
ATOM     17  C   UNL     1      -0.092  11.055  20.825  0.00  0.00    +0.000 A 
ATOM     18  C   UNL     1      -0.707  11.866  21.921  0.00  0.00    +0.000 C 
ATOM     19  N   UNL     1       0.527   9.907  21.167  0.00  0.00    +0.000 NA
ATOM     20  C   UNL     1       1.096   9.193  20.165  0.00  0.00    +0.000 A 
ATOM     21  C   UNL     1       1.815   7.909  20.550  0.00  0.00    +0.000 C 
ENDBRANCH   4  11
BRANCH   7  22
ATOM     22  C   UNL     1       7.265   5.498  17.895  0.00  0.00    +0.000 C 
ATOM     23  F   UNL     1       8.107   6.145  18.749  0.00  0.00    +0.000 F 
ATOM     24  F   UNL     1       7.919   4.373  17.494  0.00  0.00    +0.000 F 
ATOM     25  F   UNL     1       7.154   6.296  16.795  0.00  0.00    +0.000 F 
ENDBRANCH   7  22
TORSDOF 2
ENDMDL
MODEL 2
REMARK VINA RESULT:      -9.2      0.923      1.243
REMARK  Name = 
REMARK  4 active torsions:
REMARK  status: ('A' for Active; 'I' for Inactive)
REMARK    1  A    between atoms: C_1  and  C_2
REMARK    2  A    between atoms: C_4  and  N_5
REMARK    3  A    between atoms: C_11  and  C_12
REMARK    4  A    between atoms: C_18  and  C_19
REMARK                            x       y       z     vdW  Elec       q    Type
REMARK                         _______ _______ _______ _____ _____    ______ ____
ROOT
ATOM      1  C   UNL     1       1.265   2.010  19.007  0.00  0.00    +0.000 C 
ATOM      2  C   UNL     1       2.261   3.142  18.980  0.00  0.00    +0.000 A 
ATOM      3  C   UNL     1       1.712   4.531  18.982  0.00  0.00    +0.000 A 
ATOM      4  C   UNL     1       2.599   5.543  18.969  0.00  0.00    +0.000 A 
ATOM      5  N   UNL     1       3.978   5.214  18.958  0.00  0.00    +0.000 N 
ATOM      6  N   UNL     1       5.066   6.036  18.965  0.00  0.00    +0.000 NA
ATOM      7  C   UNL     1       6.097   5.169  18.978  0.00  0.00    +0.000 A 
ATOM      8  N   UNL     1       5.715   3.844  18.970  0.00  0.00    +0.000 NA
ATOM      9  C   UNL     1       4.403   3.880  18.961  0.00  0.00    +0.000 A 
ATOM     10  N   UNL     1       3.525   2.838  18.968  0.00  0.00    +0.000 NA
ENDROOT
BRANCH   4  11
ATOM     11  N   UNL     1       2.166   6.884  18.982  0.00  0.00    +0.000 N 
ATOM     12  C   UNL     1       2.793   7.864  18.069  0.00  0.00    +0.000 C 
ATOM     13  C   UNL     1       1.764   8.950  17.739  0.00  0.00    +0.000 C 
ATOM     14  C   UNL     1       1.172   9.536  18.984  0.00  0.00    +0.000 A 
ATOM     15  C   UNL     1       0.532  10.756  18.989  0.00  0.00    +0.000 A 
ATOM     16  N   UNL     1      -0.022  11.304  20.084  0.00  0.00    +0.000 NA
ATOM     17  C   UNL     1       0.060  10.587  21.219  0.00  0.00    +0.000 A 
ATOM     18  C   UNL     1      -0.523  11.185  22.461  0.00  0.00    +0.000 C 
ATOM     19  N   UNL     1       0.642   9.375  21.320  0.00  0.00    +0.000 NA
ATOM     20  C   UNL     1       1.182   8.855  20.191  0.00  0.00    +0.000 A 
ATOM     21  C   UNL     1       1.859   7.498  20.308  0.00  0.00    +0.000 C 
ENDBRANCH   4  11
BRANCH   7  22
ATOM     22  C   UNL     1       7.553   5.580  19.008  0.00  0.00    +0.000 C 
ATOM     23  F   UNL     1       8.372   4.683  18.389  0.00  0.00    +0.000 F 
ATOM     24  F   UNL     1       7.762   6.776  18.391  0.00  0.00    +0.000 F 
ATOM     25  F   UNL     1       8.025   5.710  20.280  0.00  0.00    +0.000 F 
ENDBRANCH   7  22
TORSDOF 2
ENDMDL
MODEL 3
REMARK VINA RESULT:      -8.9      3.087      4.155
REMARK  Name = 
REMARK  4 active torsions:
REMARK  status: ('A' for Active; 'I' for Inactive)
REMARK    1  A    between atoms: C_1  and  C_2
REMARK    2  A    between atoms: C_4  and  N_5
REMARK    3  A    between atoms: C_11  and  C_12
REMARK    4  A    between atoms: C_18  and  C_19
REMARK                            x       y       z     vdW  Elec       q    Type
REMARK                         _______ _______ _______ _____ _____    ______ ____
ROOT
ATOM      1  C   UNL     1       6.662   5.892  16.329  0.00  0.00    +0.000 C 
ATOM      2  C   UNL     1       5.366   5.609  17.046  0.00  0.00    +0.000 A 
ATOM      3  C   UNL     1       4.530   6.786  17.428  0.00  0.00    +0.000 A 
ATOM      4  C   UNL     1       3.367   6.535  18.059  0.00  0.00    +0.000 A 
ATOM      5  N   UNL     1       3.027   5.182  18.307  0.00  0.00    +0.000 N 
ATOM      6  N   UNL     1       1.916   4.661  18.901  0.00  0.00    +0.000 NA
ATOM      7  C   UNL     1       2.133   3.334  18.832  0.00  0.00    +0.000 A 
ATOM      8  N   UNL     1       3.327   2.991  18.235  0.00  0.00    +0.000 NA
ATOM      9  C   UNL     1       3.873   4.139  17.910  0.00  0.00    +0.000 A 
ATOM     10  N   UNL     1       5.058   4.367  17.275  0.00  0.00    +0.000 NA
ENDROOT
BRANCH   4  11
ATOM     11  N   UNL     1       2.512   7.588  18.443  0.00  0.00    +0.000 N 
ATOM     12  C   UNL     1       2.535   8.861  17.692  0.00  0.00    +0.000 C 
ATOM     13  C   UNL     1       1.147   9.505  17.781  0.00  0.00    +0.000 C 
ATOM     14  C   UNL     1       0.692   9.619  19.204  0.00  0.00    +0.000 A 
ATOM     15  C   UNL     1      -0.311  10.484  19.586  0.00  0.00    +0.000 A 
ATOM     16  N   UNL     1      -0.753  10.602  20.851  0.00  0.00    +0.000 NA
ATOM     17  C   UNL     1      -0.170   9.807  21.765  0.00  0.00    +0.000 A 
ATOM     18  C   UNL     1      -0.622   9.937  23.185  0.00  0.00    +0.000 C 
ATOM     19  N   UNL     1       0.802   8.911  21.496  0.00  0.00    +0.000 NA
ATOM     20  C   UNL     1       1.214   8.819  20.208  0.00  0.00    +0.000 A 
ATOM     21  C   UNL     1       2.325   7.826  19.905  0.00  0.00    +0.000 C 
ENDBRANCH   4  11
BRANCH   7  22
ATOM     22  C   UNL     1       1.168   2.287  19.347  0.00  0.00    +0.000 C 
ATOM     23  F   UNL     1       0.063   2.151  18.562  0.00  0.00    +0.000 F 
ATOM     24  F   UNL     1       1.739   1.053  19.419  0.00  0.00    +0.000 F 
ATOM     25  F   UNL     1       0.713   2.579  20.598  0.00  0.00    +0.000 F 
ENDBRANCH   7  22
TORSDOF 2
ENDMDL
MODEL 4
REMARK VINA RESULT:      -8.8      2.945      3.993
REMARK  Name = 
REMARK  4 active torsions:
REMARK  status: ('A' for Active; 'I' for Inactive)
REMARK    1  A    between atoms: C_1  and  C_2
REMARK    2  A    between atoms: C_4  and  N_5
REMARK    3  A    between atoms: C_11  and  C_12
REMARK    4  A    between atoms: C_18  and  C_19
REMARK                            x       y       z     vdW  Elec       q    Type
REMARK                         _______ _______ _______ _____ _____    ______ ____
ROOT
ATOM      1  C   UNL     1       6.136   5.699  15.836  0.00  0.00    +0.000 C 
ATOM      2  C   UNL     1       5.080   5.522  16.898  0.00  0.00    +0.000 A 
ATOM      3  C   UNL     1       4.235   6.710  17.220  0.00  0.00    +0.000 A 
ATOM      4  C   UNL     1       3.284   6.552  18.159  0.00  0.00    +0.000 A 
ATOM      5  N   UNL     1       3.158   5.276  18.765  0.00  0.00    +0.000 N 
ATOM      6  N   UNL     1       2.276   4.849  19.713  0.00  0.00    +0.000 NA
ATOM      7  C   UNL     1       2.612   3.555  19.873  0.00  0.00    +0.000 A 
ATOM      8  N   UNL     1       3.664   3.146  19.082  0.00  0.00    +0.000 NA
ATOM      9  C   UNL     1       3.994   4.215  18.397  0.00  0.00    +0.000 A 
ATOM     10  N   UNL     1       4.968   4.352  17.452  0.00  0.00    +0.000 NA
ENDROOT
BRANCH   4  11
ATOM     11  N   UNL     1       2.435   7.619  18.515  0.00  0.00    +0.000 N 
ATOM     12  C   UNL     1       2.476   8.877  17.740  0.00  0.00    +0.000 C 
ATOM     13  C   UNL     1       1.094   9.535  17.803  0.00  0.00    +0.000 C 
ATOM     14  C   UNL     1       0.626   9.681  19.218  0.00  0.00    +0.000 A 
ATOM     15  C   UNL     1      -0.373  10.561  19.574  0.00  0.00    +0.000 A 
ATOM     16  N   UNL     1      -0.827  10.707  20.831  0.00  0.00    +0.000 NA
ATOM     17  C   UNL     1      -0.261   9.925  21.766  0.00  0.00    +0.000 A 
ATOM     18  C   UNL     1      -0.726  10.085  23.180  0.00  0.00    +0.000 C 
ATOM     19  N   UNL     1       0.706   9.015  21.524  0.00  0.00    +0.000 NA
ATOM     20  C   UNL     1       1.130   8.895  20.243  0.00  0.00    +0.000 A 
ATOM     21  C   UNL     1       2.235   7.886  19.970  0.00  0.00    +0.000 C 
ENDBRANCH   4  11
BRANCH   7  22
ATOM     22  C   UNL     1       1.910   2.606  20.821  0.00  0.00    +0.000 C 
ATOM     23  F   UNL     1       2.673   2.272  21.900  0.00  0.00    +0.000 F 
ATOM     24  F   UNL     1       0.758   3.135  21.319  0.00  0.00    +0.000 F 
ATOM     25  F   UNL     1       1.570   1.433  20.217  0.00  0.00    +0.000 F 
ENDBRANCH   7  22
TORSDOF 2
ENDMDL
MODEL 5
REMARK VINA RESULT:      -8.8      1.343      1.474
REMARK  Name = 
REMARK  4 active torsions:
REMARK  status: ('A' for Active; 'I' for Inactive)
REMARK    1  A    between atoms: C_1  and  C_2
REMARK    2  A    between atoms: C_4  and  N_5
REMARK    3  A    between atoms: C_11  and  C_12
REMARK    4  A    between atoms: C_18  and  C_19
REMARK                            x       y       z     vdW  Elec       q    Type
REMARK                         _______ _______ _______ _____ _____    ______ ____
ROOT
ATOM      1  C   UNL     1       2.006   2.776  21.583  0.00  0.00    +0.000 C 
ATOM      2  C   UNL     1       2.469   3.662  20.454  0.00  0.00    +0.000 A 
ATOM      3  C   UNL     1       1.948   5.061  20.431  0.00  0.00    +0.000 A 
ATOM      4  C   UNL     1       2.369   5.858  19.430  0.00  0.00    +0.000 A 
ATOM      5  N   UNL     1       3.270   5.310  18.483  0.00  0.00    +0.000 N 
ATOM      6  N   UNL     1       3.855   5.899  17.402  0.00  0.00    +0.000 NA
ATOM      7  C   UNL     1       4.624   4.912  16.903  0.00  0.00    +0.000 A 
ATOM      8  N   UNL     1       4.546   3.729  17.606  0.00  0.00    +0.000 NA
ATOM      9  C   UNL     1       3.709   3.984  18.585  0.00  0.00    +0.000 A 
ATOM     10  N   UNL     1       3.293   3.156  19.585  0.00  0.00    +0.000 NA
ENDROOT
BRANCH   4  11
ATOM     11  N   UNL     1       1.935   7.196  19.341  0.00  0.00    +0.000 N 
ATOM     12  C   UNL     1       2.564   8.105  18.359  0.00  0.00    +0.000 C 
ATOM     13  C   UNL     1       1.536   9.162  17.946  0.00  0.00    +0.000 C 
ATOM     14  C   UNL     1       0.941   9.840  19.142  0.00  0.00    +0.000 A 
ATOM     15  C   UNL     1       0.301  11.057  19.054  0.00  0.00    +0.000 A 
ATOM     16  N   UNL     1      -0.255  11.686  20.104  0.00  0.00    +0.000 NA
ATOM     17  C   UNL     1      -0.176  11.056  21.289  0.00  0.00    +0.000 A 
ATOM     18  C   UNL     1      -0.762  11.744  22.481  0.00  0.00    +0.000 C 
ATOM     19  N   UNL     1       0.406   9.854  21.483  0.00  0.00    +0.000 NA
ATOM     20  C   UNL     1       0.949   9.251  20.397  0.00  0.00    +0.000 A 
ATOM     21  C   UNL     1       1.625   7.907  20.616  0.00  0.00    +0.000 C 
ENDBRANCH   4  11
BRANCH   7  22
ATOM     22  C   UNL     1       5.511   5.059  15.685  0.00  0.00    +0.000 C 
ATOM     23  F   UNL     1       6.824   5.236  16.002  0.00  0.00    +0.000 F 
ATOM     24  F   UNL     1       5.458   3.965  14.875  0.00  0.00    +0.000 F 
ATOM     25  F   UNL     1       5.157   6.128  14.917  0.00  0.00    +0.000 F 
ENDBRANCH   7  22
TORSDOF 2
ENDMDL
MODEL 6
REMARK VINA RESULT:      -8.7      1.643      1.898
REMARK  Name = 
REMARK  4 active torsions:
REMARK  status: ('A' for Active; 'I' for Inactive)
REMARK    1  A    between atoms: C_1  and  C_2
REMARK    2  A    between atoms: C_4  and  N_5
REMARK    3  A    between atoms: C_11  and  C_12
REMARK    4  A    between atoms: C_18  and  C_19
REMARK                            x       y       z     vdW  Elec       q    Type
REMARK                         _______ _______ _______ _____ _____    ______ ____
ROOT
ATOM      1  C   UNL     1       2.138   2.406  17.982  0.00  0.00    +0.000 C 
ATOM      2  C   UNL     1       2.874   3.722  17.977  0.00  0.00    +0.000 A 
ATOM      3  C   UNL     1       2.085   4.944  18.313  0.00  0.00    +0.000 A 
ATOM      4  C   UNL     1       2.743   6.119  18.321  0.00  0.00    +0.000 A 
ATOM      5  N   UNL     1       4.126   6.104  18.013  0.00  0.00    +0.000 N 
ATOM      6  N   UNL     1       5.016   7.136  17.972  0.00  0.00    +0.000 NA
ATOM      7  C   UNL     1       6.172   6.522  17.655  0.00  0.00    +0.000 A 
ATOM      8  N   UNL     1       6.056   5.159  17.486  0.00  0.00    +0.000 NA
ATOM      9  C   UNL     1       4.788   4.908  17.712  0.00  0.00    +0.000 A 
ATOM     10  N   UNL     1       4.143   3.706  17.693  0.00  0.00    +0.000 NA
ENDROOT
BRANCH   4  11
ATOM     11  N   UNL     1       2.075   7.319  18.639  0.00  0.00    +0.000 N 
ATOM     12  C   UNL     1       2.346   8.539  17.850  0.00  0.00    +0.000 C 
ATOM     13  C   UNL     1       1.092   9.418  17.866  0.00  0.00    +0.000 C 
ATOM     14  C   UNL     1       0.619   9.665  19.265  0.00  0.00    +0.000 A 
ATOM     15  C   UNL     1      -0.227  10.705  19.582  0.00  0.00    +0.000 A 
ATOM     16  N   UNL     1      -0.682  10.947  20.824  0.00  0.00    +0.000 NA
ATOM     17  C   UNL     1      -0.279  10.097  21.784  0.00  0.00    +0.000 A 
ATOM     18  C   UNL     1      -0.746  10.357  23.182  0.00  0.00    +0.000 C 
ATOM     19  N   UNL     1       0.528   9.035  21.581  0.00  0.00    +0.000 NA
ATOM     20  C   UNL     1       0.958   8.823  20.313  0.00  0.00    +0.000 A 
ATOM     21  C   UNL     1       1.886   7.640  20.085  0.00  0.00    +0.000 C 
ENDBRANCH   4  11
BRANCH   7  22
ATOM     22  C   UNL     1       7.499   7.235  17.501  0.00  0.00    +0.000 C 
ATOM     23  F   UNL     1       8.121   6.951  16.322  0.00  0.00    +0.000 F 
ATOM     24  F   UNL     1       7.363   8.589  17.544  0.00  0.00    +0.000 F 
ATOM     25  F   UNL     1       8.380   6.901  18.486  0.00  0.00    +0.000 F 
ENDBRANCH   7  22
TORSDOF 2
ENDMDL
MODEL 7
REMARK VINA RESULT:      -8.4      4.388      6.122
REMARK  Name = 
REMARK  4 active torsions:
REMARK  status: ('A' for Active; 'I' for Inactive)
REMARK    1  A    between atoms: C_1  and  C_2
REMARK    2  A    between atoms: C_4  and  N_5
REMARK    3  A    between atoms: C_11  and  C_12
REMARK    4  A    between atoms: C_18  and  C_19
REMARK                            x       y       z     vdW  Elec       q    Type
REMARK                         _______ _______ _______ _____ _____    ______ ____
ROOT
ATOM      1  C   UNL     1       8.215   7.821  18.297  0.00  0.00    +0.000 C 
ATOM      2  C   UNL     1       7.382   6.860  17.485  0.00  0.00    +0.000 A 
ATOM      3  C   UNL     1       6.107   6.382  18.096  0.00  0.00    +0.000 A 
ATOM      4  C   UNL     1       5.356   5.534  17.369  0.00  0.00    +0.000 A 
ATOM      5  N   UNL     1       5.831   5.164  16.086  0.00  0.00    +0.000 N 
ATOM      6  N   UNL     1       5.263   4.349  15.152  0.00  0.00    +0.000 NA
ATOM      7  C   UNL     1       6.145   4.397  14.136  0.00  0.00    +0.000 A 
ATOM      8  N   UNL     1       7.244   5.191  14.383  0.00  0.00    +0.000 NA
ATOM      9  C   UNL     1       7.040   5.665  15.590  0.00  0.00    +0.000 A 
ATOM     10  N   UNL     1       7.821   6.522  16.310  0.00  0.00    +0.000 NA
ENDROOT
BRANCH   4  11
ATOM     11  N   UNL     1       4.131   5.044  17.867  0.00  0.00    +0.000 N 
ATOM     12  C   UNL     1       2.864   5.674  17.440  0.00  0.00    +0.000 C 
ATOM     13  C   UNL     1       1.755   4.618  17.486  0.00  0.00    +0.000 C 
ATOM     14  C   UNL     1       1.705   3.940  18.821  0.00  0.00    +0.000 A 
ATOM     15  C   UNL     1       0.593   3.249  19.252  0.00  0.00    +0.000 A 
ATOM     16  N   UNL     1       0.520   2.618  20.437  0.00  0.00    +0.000 NA
ATOM     17  C   UNL     1       1.616   2.673  21.213  0.00  0.00    +0.000 A 
ATOM     18  C   UNL     1       1.553   2.004  22.550  0.00  0.00    +0.000 C 
ATOM     19  N   UNL     1       2.762   3.300  20.879  0.00  0.00    +0.000 NA
ATOM     20  C   UNL     1       2.797   3.918  19.674  0.00  0.00    +0.000 A 
ATOM     21  C   UNL     1       4.081   4.645  19.304  0.00  0.00    +0.000 C 
ENDBRANCH   4  11
BRANCH   7  22
ATOM     22  C   UNL     1       5.970   3.662  12.824  0.00  0.00    +0.000 C 
ATOM     23  F   UNL     1       4.700   3.739  12.336  0.00  0.00    +0.000 F 
ATOM     24  F   UNL     1       6.784   4.153  11.848  0.00  0.00    +0.000 F 
ATOM     25  F   UNL     1       6.255   2.334  12.936  0.00  0.00    +0.000 F 
ENDBRANCH   7  22
TORSDOF 2
ENDMDL
MODEL 8
REMARK VINA RESULT:      -8.1      4.371      8.349
REMARK  Name = 
REMARK  4 active torsions:
REMARK  status: ('A' for Active; 'I' for Inactive)
REMARK    1  A    between atoms: C_1  and  C_2
REMARK    2  A    between atoms: C_4  and  N_5
REMARK    3  A    between atoms: C_11  and  C_12
REMARK    4  A    between atoms: C_18  and  C_19
REMARK                            x       y       z     vdW  Elec       q    Type
REMARK                         _______ _______ _______ _____ _____    ______ ____
ROOT
ATOM      1  C   UNL     1      -1.410  13.267  22.174  0.00  0.00    +0.000 C 
ATOM      2  C   UNL     1      -1.375  12.348  20.979  0.00  0.00    +0.000 A 
ATOM      3  C   UNL     1      -0.379  11.236  21.005  0.00  0.00    +0.000 A 
ATOM      4  C   UNL     1      -0.354  10.408  19.944  0.00  0.00    +0.000 A 
ATOM      5  N   UNL     1      -1.270  10.653  18.891  0.00  0.00    +0.000 N 
ATOM      6  N   UNL     1      -1.464   9.964  17.731  0.00  0.00    +0.000 NA
ATOM      7  C   UNL     1      -2.473  10.637  17.147  0.00  0.00    +0.000 A 
ATOM      8  N   UNL     1      -2.920  11.720  17.874  0.00  0.00    +0.000 NA
ATOM      9  C   UNL     1      -2.173  11.721  18.953  0.00  0.00    +0.000 A 
ATOM     10  N   UNL     1      -2.215  12.577  20.014  0.00  0.00    +0.000 NA
ENDROOT
BRANCH   4  11
ATOM     11  N   UNL     1       0.548   9.325  19.894  0.00  0.00    +0.000 N 
ATOM     12  C   UNL     1       1.055   8.736  21.152  0.00  0.00    +0.000 C 
ATOM     13  C   UNL     1       1.371   7.258  20.905  0.00  0.00    +0.000 C 
ATOM     14  C   UNL     1       2.269   7.084  19.719  0.00  0.00    +0.000 A 
ATOM     15  C   UNL     1       3.001   5.934  19.514  0.00  0.00    +0.000 A 
ATOM     16  N   UNL     1       3.805   5.740  18.455  0.00  0.00    +0.000 NA
ATOM     17  C   UNL     1       3.866   6.739  17.558  0.00  0.00    +0.000 A 
ATOM     18  C   UNL     1       4.775   6.563  16.383  0.00  0.00    +0.000 C 
ATOM     19  N   UNL     1       3.176   7.895  17.649  0.00  0.00    +0.000 NA
ATOM     20  C   UNL     1       2.371   8.048  18.728  0.00  0.00    +0.000 A 
ATOM     21  C   UNL     1       1.609   9.359  18.845  0.00  0.00    +0.000 C 
ENDBRANCH   4  11
BRANCH   7  22
ATOM     22  C   UNL     1      -3.090  10.258  15.817  0.00  0.00    +0.000 C 
ATOM     23  F   UNL     1      -2.563  10.953  14.770  0.00  0.00    +0.000 F 
ATOM     24  F   UNL     1      -2.916   8.939  15.527  0.00  0.00    +0.000 F 
ATOM     25  F   UNL     1      -4.433  10.489  15.789  0.00  0.00    +0.000 F 
ENDBRANCH   7  22
TORSDOF 2
ENDMDL
MODEL 9
REMARK VINA RESULT:      -8.0      2.971      4.216
REMARK  Name = 
REMARK  4 active torsions:
REMARK  status: ('A' for Active; 'I' for Inactive)
REMARK    1  A    between atoms: C_1  and  C_2
REMARK    2  A    between atoms: C_4  and  N_5
REMARK    3  A    between atoms: C_11  and  C_12
REMARK    4  A    between atoms: C_18  and  C_19
REMARK                            x       y       z     vdW  Elec       q    Type
REMARK                         _______ _______ _______ _____ _____    ______ ____
ROOT
ATOM      1  C   UNL     1       5.271   6.495  15.742  0.00  0.00    +0.000 C 
ATOM      2  C   UNL     1       4.436   6.156  16.951  0.00  0.00    +0.000 A 
ATOM      3  C   UNL     1       3.695   7.276  17.602  0.00  0.00    +0.000 A 
ATOM      4  C   UNL     1       2.939   6.974  18.674  0.00  0.00    +0.000 A 
ATOM      5  N   UNL     1       2.904   5.622  19.098  0.00  0.00    +0.000 N 
ATOM      6  N   UNL     1       2.212   5.053  20.126  0.00  0.00    +0.000 NA
ATOM      7  C   UNL     1       2.544   3.751  20.026  0.00  0.00    +0.000 A 
ATOM      8  N   UNL     1       3.415   3.471  18.995  0.00  0.00    +0.000 NA
ATOM      9  C   UNL     1       3.630   4.633  18.423  0.00  0.00    +0.000 A 
ATOM     10  N   UNL     1       4.407   4.915  17.338  0.00  0.00    +0.000 NA
ENDROOT
BRANCH   4  11
ATOM     11  N   UNL     1       2.197   7.970  19.340  0.00  0.00    +0.000 N 
ATOM     12  C   UNL     1       1.389   7.612  20.525  0.00  0.00    +0.000 C 
ATOM     13  C   UNL     1       1.298   8.836  21.442  0.00  0.00    +0.000 C 
ATOM     14  C   UNL     1       0.820  10.042  20.693  0.00  0.00    +0.000 A 
ATOM     15  C   UNL     1       0.293  11.142  21.333  0.00  0.00    +0.000 A 
ATOM     16  N   UNL     1      -0.132  12.246  20.693  0.00  0.00    +0.000 NA
ATOM     17  C   UNL     1      -0.009  12.246  19.355  0.00  0.00    +0.000 A 
ATOM     18  C   UNL     1      -0.500  13.449  18.613  0.00  0.00    +0.000 C 
ATOM     19  N   UNL     1       0.513  11.234  18.631  0.00  0.00    +0.000 NA
ATOM     20  C   UNL     1       0.936  10.143  19.315  0.00  0.00    +0.000 A 
ATOM     21  C   UNL     1       1.504   8.992  18.500  0.00  0.00    +0.000 C 
ENDBRANCH   4  11
BRANCH   7  22
ATOM     22  C   UNL     1       2.018   2.667  20.943  0.00  0.00    +0.000 C 
ATOM     23  F   UNL     1       0.931   3.062  21.663  0.00  0.00    +0.000 F 
ATOM     24  F   UNL     1       1.637   1.554  20.257  0.00  0.00    +0.000 F 
ATOM     25  F   UNL     1       2.950   2.265  21.851  0.00  0.00    +0.000 F 
ENDBRANCH   7  22
TORSDOF 2
ENDMDL
