MODEL 1
REMARK VINA RESULT:      -7.1      0.000      0.000
REMARK  Name = 
REMARK  4 active torsions:
REMARK  status: ('A' for Active; 'I' for Inactive)
REMARK    1  A    between atoms: C_2  and  O_3
REMARK    2  A    between atoms: C_2  and  C_4
REMARK    3  A    between atoms: C_8  and  C_9
REMARK    4  A    between atoms: C_13  and  C_14
REMARK                            x       y       z     vdW  Elec       q    Type
REMARK                         _______ _______ _______ _____ _____    ______ ____
ROOT
ATOM      1  C   UNL     1       3.276   4.269  18.145  0.00  0.00    +0.000 A 
ATOM      2  C   UNL     1       3.446   4.944  19.368  0.00  0.00    +0.000 A 
ATOM      3  N   UNL     1       4.682   5.424  19.534  0.00  0.00    +0.000 NA
ATOM      4  N   UNL     1       5.351   5.046  18.416  0.00  0.00    +0.000 N 
ATOM      5  C   UNL     1       6.689   5.263  18.090  0.00  0.00    +0.000 A 
ATOM      6  C   UNL     1       7.155   4.856  16.894  0.00  0.00    +0.000 A 
ATOM      7  C   UNL     1       6.162   4.181  16.012  0.00  0.00    +0.000 A 
ATOM      8  N   UNL     1       4.918   3.944  16.295  0.00  0.00    +0.000 NA
ATOM      9  C   UNL     1       4.503   4.376  17.526  0.00  0.00    +0.000 A 
ENDROOT
BRANCH   5  10
ATOM     10  C   UNL     1       7.524   5.951  19.110  0.00  0.00    +0.000 C 
ATOM     11  F   UNL     1       8.513   5.125  19.548  0.00  0.00    +0.000 F 
ATOM     12  F   UNL     1       8.163   7.025  18.563  0.00  0.00    +0.000 F 
ENDBRANCH   5  10
BRANCH   7  13
ATOM     13  C   UNL     1       6.639   3.779  14.669  0.00  0.00    +0.000 C 
ATOM     14  C   UNL     1       5.769   3.892  13.442  0.00  0.00    +0.000 C 
ATOM     15  C   UNL     1       6.909   4.846  13.631  0.00  0.00    +0.000 C 
ENDBRANCH   7  13
BRANCH   1  17
ATOM     16  O   UNL     1       1.035   4.198  17.453  0.00  0.00    +0.000 OA
ATOM     17  C   UNL     1       2.094   3.614  17.635  0.00  0.00    +0.000 C 
BRANCH  17  18
ATOM     18  O   UNL     1       2.242   2.287  17.381  0.00  0.00    +0.000 OA
ATOM     19  H   UNL     1       1.825   1.741  18.088  0.00  0.00    +0.000 HD
ENDBRANCH  17  18
ENDBRANCH   1  17
TORSDOF 4
ENDMDL
MODEL 2
REMARK VINA RESULT:      -6.9      2.565      4.569
REMARK  Name = 
REMARK  4 active torsions:
REMARK  status: ('A' for Active; 'I' for Inactive)
REMARK    1  A    between atoms: C_2  and  O_3
REMARK    2  A    between atoms: C_2  and  C_4
REMARK    3  A    between atoms: C_8  and  C_9
REMARK    4  A    between atoms: C_13  and  C_14
REMARK                            x       y       z     vdW  Elec       q    Type
REMARK                         _______ _______ _______ _____ _____    ______ ____
ROOT
ATOM      1  C   UNL     1       6.311   4.150  13.648  0.00  0.00    +0.000 A 
ATOM      2  C   UNL     1       7.479   4.931  13.582  0.00  0.00    +0.000 A 
ATOM      3  N   UNL     1       7.747   5.568  14.725  0.00  0.00    +0.000 NA
ATOM      4  N   UNL     1       6.733   5.223  15.558  0.00  0.00    +0.000 N 
ATOM      5  C   UNL     1       6.509   5.637  16.870  0.00  0.00    +0.000 A 
ATOM      6  C   UNL     1       5.466   5.131  17.556  0.00  0.00    +0.000 A 
ATOM      7  C   UNL     1       4.620   4.155  16.815  0.00  0.00    +0.000 A 
ATOM      8  N   UNL     1       4.789   3.767  15.587  0.00  0.00    +0.000 NA
ATOM      9  C   UNL     1       5.862   4.319  14.940  0.00  0.00    +0.000 A 
ENDROOT
BRANCH   5  10
ATOM     10  C   UNL     1       7.465   6.626  17.435  0.00  0.00    +0.000 C 
ATOM     11  F   UNL     1       6.890   7.858  17.498  0.00  0.00    +0.000 F 
ATOM     12  F   UNL     1       7.784   6.306  18.722  0.00  0.00    +0.000 F 
ENDBRANCH   5  10
BRANCH   7  13
ATOM     13  C   UNL     1       3.503   3.542  17.569  0.00  0.00    +0.000 C 
ATOM     14  C   UNL     1       2.963   4.152  18.839  0.00  0.00    +0.000 C 
ATOM     15  C   UNL     1       2.155   4.228  17.579  0.00  0.00    +0.000 C 
ENDBRANCH   7  13
BRANCH   1  17
ATOM     16  O   UNL     1       4.578   3.539  12.187  0.00  0.00    +0.000 OA
ATOM     17  C   UNL     1       5.708   3.343  12.612  0.00  0.00    +0.000 C 
BRANCH  17  18
ATOM     18  O   UNL     1       6.490   2.332  12.148  0.00  0.00    +0.000 OA
ATOM     19  H   UNL     1       6.903   2.570  11.285  0.00  0.00    +0.000 HD
ENDBRANCH  17  18
ENDBRANCH   1  17
TORSDOF 4
ENDMDL
MODEL 3
REMARK VINA RESULT:      -6.9      3.351      5.340
REMARK  Name = 
REMARK  4 active torsions:
REMARK  status: ('A' for Active; 'I' for Inactive)
REMARK    1  A    between atoms: C_2  and  O_3
REMARK    2  A    between atoms: C_2  and  C_4
REMARK    3  A    between atoms: C_8  and  C_9
REMARK    4  A    between atoms: C_13  and  C_14
REMARK                            x       y       z     vdW  Elec       q    Type
REMARK                         _______ _______ _______ _____ _____    ______ ____
ROOT
ATOM      1  C   UNL     1       5.751   5.323  16.898  0.00  0.00    +0.000 A 
ATOM      2  C   UNL     1       5.858   6.715  16.723  0.00  0.00    +0.000 A 
ATOM      3  N   UNL     1       4.848   7.392  17.275  0.00  0.00    +0.000 NA
ATOM      4  N   UNL     1       4.044   6.437  17.807  0.00  0.00    +0.000 N 
ATOM      5  C   UNL     1       2.830   6.598  18.474  0.00  0.00    +0.000 A 
ATOM      6  C   UNL     1       2.206   5.518  18.984  0.00  0.00    +0.000 A 
ATOM      7  C   UNL     1       2.892   4.215  18.767  0.00  0.00    +0.000 A 
ATOM      8  N   UNL     1       4.009   4.030  18.131  0.00  0.00    +0.000 NA
ATOM      9  C   UNL     1       4.594   5.162  17.631  0.00  0.00    +0.000 A 
ENDROOT
BRANCH   5  10
ATOM     10  C   UNL     1       2.302   7.984  18.583  0.00  0.00    +0.000 C 
ATOM     11  F   UNL     1       1.463   8.253  17.546  0.00  0.00    +0.000 F 
ATOM     12  F   UNL     1       1.546   8.123  19.710  0.00  0.00    +0.000 F 
ENDBRANCH   5  10
BRANCH   7  13
ATOM     13  C   UNL     1       2.253   3.023  19.371  0.00  0.00    +0.000 C 
ATOM     14  C   UNL     1       0.948   3.107  20.123  0.00  0.00    +0.000 C 
ATOM     15  C   UNL     1       0.978   2.481  18.762  0.00  0.00    +0.000 C 
ENDBRANCH   7  13
BRANCH   1  17
ATOM     16  O   UNL     1       7.859   4.382  16.474  0.00  0.00    +0.000 OA
ATOM     17  C   UNL     1       6.640   4.285  16.431  0.00  0.00    +0.000 C 
BRANCH  17  18
ATOM     18  O   UNL     1       6.019   3.186  15.924  0.00  0.00    +0.000 OA
ATOM     19  H   UNL     1       6.672   2.488  15.684  0.00  0.00    +0.000 HD
ENDBRANCH  17  18
ENDBRANCH   1  17
TORSDOF 4
ENDMDL
MODEL 4
REMARK VINA RESULT:      -6.8      3.245      4.060
REMARK  Name = 
REMARK  4 active torsions:
REMARK  status: ('A' for Active; 'I' for Inactive)
REMARK    1  A    between atoms: C_2  and  O_3
REMARK    2  A    between atoms: C_2  and  C_4
REMARK    3  A    between atoms: C_8  and  C_9
REMARK    4  A    between atoms: C_13  and  C_14
REMARK                            x       y       z     vdW  Elec       q    Type
REMARK                         _______ _______ _______ _____ _____    ______ ____
ROOT
ATOM      1  C   UNL     1       3.431   3.263  18.801  0.00  0.00    +0.000 A 
ATOM      2  C   UNL     1       2.065   3.590  18.885  0.00  0.00    +0.000 A 
ATOM      3  N   UNL     1       1.813   4.868  18.590  0.00  0.00    +0.000 NA
ATOM      4  N   UNL     1       3.030   5.407  18.326  0.00  0.00    +0.000 N 
ATOM      5  C   UNL     1       3.343   6.724  17.994  0.00  0.00    +0.000 A 
ATOM      6  C   UNL     1       4.618   7.052  17.709  0.00  0.00    +0.000 A 
ATOM      7  C   UNL     1       5.603   5.938  17.792  0.00  0.00    +0.000 A 
ATOM      8  N   UNL     1       5.347   4.708  18.120  0.00  0.00    +0.000 NA
ATOM      9  C   UNL     1       4.036   4.436  18.403  0.00  0.00    +0.000 A 
ENDROOT
BRANCH   5  10
ATOM     10  C   UNL     1       2.217   7.696  17.970  0.00  0.00    +0.000 C 
ATOM     11  F   UNL     1       1.909   8.094  19.234  0.00  0.00    +0.000 F 
ATOM     12  F   UNL     1       2.576   8.832  17.307  0.00  0.00    +0.000 F 
ENDBRANCH   5  10
BRANCH   7  13
ATOM     13  C   UNL     1       7.000   6.263  17.425  0.00  0.00    +0.000 C 
ATOM     14  C   UNL     1       7.540   7.670  17.491  0.00  0.00    +0.000 C 
ATOM     15  C   UNL     1       7.975   6.663  18.511  0.00  0.00    +0.000 C 
ENDBRANCH   7  13
BRANCH   1  17
ATOM     16  O   UNL     1       3.715   0.949  18.535  0.00  0.00    +0.000 OA
ATOM     17  C   UNL     1       4.071   1.995  19.061  0.00  0.00    +0.000 C 
BRANCH  17  18
ATOM     18  O   UNL     1       5.098   2.045  19.949  0.00  0.00    +0.000 OA
ATOM     19  H   UNL     1       4.938   2.731  20.639  0.00  0.00    +0.000 HD
ENDBRANCH  17  18
ENDBRANCH   1  17
TORSDOF 4
ENDMDL
MODEL 5
REMARK VINA RESULT:      -6.8      3.537      4.373
REMARK  Name = 
REMARK  4 active torsions:
REMARK  status: ('A' for Active; 'I' for Inactive)
REMARK    1  A    between atoms: C_2  and  O_3
REMARK    2  A    between atoms: C_2  and  C_4
REMARK    3  A    between atoms: C_8  and  C_9
REMARK    4  A    between atoms: C_13  and  C_14
REMARK                            x       y       z     vdW  Elec       q    Type
REMARK                         _______ _______ _______ _____ _____    ______ ____
ROOT
ATOM      1  C   UNL     1       4.149   2.447  20.013  0.00  0.00    +0.000 A 
ATOM      2  C   UNL     1       2.750   2.577  20.073  0.00  0.00    +0.000 A 
ATOM      3  N   UNL     1       2.305   3.711  19.526  0.00  0.00    +0.000 NA
ATOM      4  N   UNL     1       3.424   4.357  19.114  0.00  0.00    +0.000 N 
ATOM      5  C   UNL     1       3.530   5.605  18.502  0.00  0.00    +0.000 A 
ATOM      6  C   UNL     1       4.739   6.052  18.112  0.00  0.00    +0.000 A 
ATOM      7  C   UNL     1       5.884   5.141  18.392  0.00  0.00    +0.000 A 
ATOM      8  N   UNL     1       5.820   3.985  18.979  0.00  0.00    +0.000 NA
ATOM      9  C   UNL     1       4.567   3.586  19.357  0.00  0.00    +0.000 A 
ENDROOT
BRANCH   5  10
ATOM     10  C   UNL     1       2.268   6.370  18.315  0.00  0.00    +0.000 C 
ATOM     11  F   UNL     1       2.528   7.581  17.751  0.00  0.00    +0.000 F 
ATOM     12  F   UNL     1       1.443   5.729  17.438  0.00  0.00    +0.000 F 
ENDBRANCH   5  10
BRANCH   7  13
ATOM     13  C   UNL     1       7.214   5.587  17.917  0.00  0.00    +0.000 C 
ATOM     14  C   UNL     1       7.471   7.002  17.464  0.00  0.00    +0.000 C 
ATOM     15  C   UNL     1       8.024   6.534  18.775  0.00  0.00    +0.000 C 
ENDBRANCH   7  13
BRANCH   1  17
ATOM     16  O   UNL     1       5.484   1.383  21.623  0.00  0.00    +0.000 OA
ATOM     17  C   UNL     1       4.977   1.373  20.510  0.00  0.00    +0.000 C 
BRANCH  17  18
ATOM     18  O   UNL     1       5.164   0.346  19.639  0.00  0.00    +0.000 OA
ATOM     19  H   UNL     1       5.953  -0.190  19.886  0.00  0.00    +0.000 HD
ENDBRANCH  17  18
ENDBRANCH   1  17
TORSDOF 4
ENDMDL
MODEL 6
REMARK VINA RESULT:      -6.7      0.703      1.098
REMARK  Name = 
REMARK  4 active torsions:
REMARK  status: ('A' for Active; 'I' for Inactive)
REMARK    1  A    between atoms: C_2  and  O_3
REMARK    2  A    between atoms: C_2  and  C_4
REMARK    3  A    between atoms: C_8  and  C_9
REMARK    4  A    between atoms: C_13  and  C_14
REMARK                            x       y       z     vdW  Elec       q    Type
REMARK                         _______ _______ _______ _____ _____    ______ ____
ROOT
ATOM      1  C   UNL     1       3.615   3.798  18.454  0.00  0.00    +0.000 A 
ATOM      2  C   UNL     1       4.005   4.163  19.756  0.00  0.00    +0.000 A 
ATOM      3  N   UNL     1       5.141   4.865  19.785  0.00  0.00    +0.000 NA
ATOM      4  N   UNL     1       5.525   4.952  18.487  0.00  0.00    +0.000 N 
ATOM      5  C   UNL     1       6.664   5.557  17.958  0.00  0.00    +0.000 A 
ATOM      6  C   UNL     1       6.839   5.587  16.622  0.00  0.00    +0.000 A 
ATOM      7  C   UNL     1       5.766   4.941  15.817  0.00  0.00    +0.000 A 
ATOM      8  N   UNL     1       4.706   4.351  16.280  0.00  0.00    +0.000 NA
ATOM      9  C   UNL     1       4.586   4.347  17.644  0.00  0.00    +0.000 A 
ENDROOT
BRANCH   5  10
ATOM     10  C   UNL     1       7.625   6.144  18.929  0.00  0.00    +0.000 C 
ATOM     11  F   UNL     1       8.571   5.227  19.271  0.00  0.00    +0.000 F 
ATOM     12  F   UNL     1       8.309   7.179  18.363  0.00  0.00    +0.000 F 
ENDBRANCH   5  10
BRANCH   7  13
ATOM     13  C   UNL     1       5.909   5.017  14.345  0.00  0.00    +0.000 C 
ATOM     14  C   UNL     1       7.241   4.846  13.659  0.00  0.00    +0.000 C 
ATOM     15  C   UNL     1       6.218   3.756  13.568  0.00  0.00    +0.000 C 
ENDBRANCH   7  13
BRANCH   1  17
ATOM     16  O   UNL     1       2.214   1.915  18.474  0.00  0.00    +0.000 OA
ATOM     17  C   UNL     1       2.462   3.032  18.041  0.00  0.00    +0.000 C 
BRANCH  17  18
ATOM     18  O   UNL     1       1.673   3.641  17.117  0.00  0.00    +0.000 OA
ATOM     19  H   UNL     1       0.845   3.129  16.963  0.00  0.00    +0.000 HD
ENDBRANCH  17  18
ENDBRANCH   1  17
TORSDOF 4
ENDMDL
MODEL 7
REMARK VINA RESULT:      -6.7      2.810      4.225
REMARK  Name = 
REMARK  4 active torsions:
REMARK  status: ('A' for Active; 'I' for Inactive)
REMARK    1  A    between atoms: C_2  and  O_3
REMARK    2  A    between atoms: C_2  and  C_4
REMARK    3  A    between atoms: C_8  and  C_9
REMARK    4  A    between atoms: C_13  and  C_14
REMARK                            x       y       z     vdW  Elec       q    Type
REMARK                         _______ _______ _______ _____ _____    ______ ____
ROOT
ATOM      1  C   UNL     1       2.847   3.264  20.285  0.00  0.00    +0.000 A 
ATOM      2  C   UNL     1       4.039   2.517  20.251  0.00  0.00    +0.000 A 
ATOM      3  N   UNL     1       4.962   3.041  19.441  0.00  0.00    +0.000 NA
ATOM      4  N   UNL     1       4.371   4.141  18.911  0.00  0.00    +0.000 N 
ATOM      5  C   UNL     1       4.887   5.038  17.977  0.00  0.00    +0.000 A 
ATOM      6  C   UNL     1       4.158   6.111  17.616  0.00  0.00    +0.000 A 
ATOM      7  C   UNL     1       2.823   6.232  18.265  0.00  0.00    +0.000 A 
ATOM      8  N   UNL     1       2.306   5.402  19.120  0.00  0.00    +0.000 NA
ATOM      9  C   UNL     1       3.091   4.329  19.444  0.00  0.00    +0.000 A 
ENDROOT
BRANCH   5  10
ATOM     10  C   UNL     1       6.241   4.741  17.437  0.00  0.00    +0.000 C 
ATOM     11  F   UNL     1       6.161   3.818  16.441  0.00  0.00    +0.000 F 
ATOM     12  F   UNL     1       6.784   5.852  16.862  0.00  0.00    +0.000 F 
ENDBRANCH   5  10
BRANCH   7  13
ATOM     13  C   UNL     1       2.031   7.436  17.927  0.00  0.00    +0.000 C 
ATOM     14  C   UNL     1       1.738   8.514  18.941  0.00  0.00    +0.000 C 
ATOM     15  C   UNL     1       2.725   8.778  17.845  0.00  0.00    +0.000 C 
ENDBRANCH   7  13
BRANCH   1  17
ATOM     16  O   UNL     1       1.639   2.514  22.152  0.00  0.00    +0.000 OA
ATOM     17  C   UNL     1       1.637   2.997  21.029  0.00  0.00    +0.000 C 
BRANCH  17  18
ATOM     18  O   UNL     1       0.486   3.314  20.379  0.00  0.00    +0.000 OA
ATOM     19  H   UNL     1       0.177   2.565  19.818  0.00  0.00    +0.000 HD
ENDBRANCH  17  18
ENDBRANCH   1  17
TORSDOF 4
ENDMDL
MODEL 8
REMARK VINA RESULT:      -6.7      2.814      4.434
REMARK  Name = 
REMARK  4 active torsions:
REMARK  status: ('A' for Active; 'I' for Inactive)
REMARK    1  A    between atoms: C_2  and  O_3
REMARK    2  A    between atoms: C_2  and  C_4
REMARK    3  A    between atoms: C_8  and  C_9
REMARK    4  A    between atoms: C_13  and  C_14
REMARK                            x       y       z     vdW  Elec       q    Type
REMARK                         _______ _______ _______ _____ _____    ______ ____
ROOT
ATOM      1  C   UNL     1       2.170   3.450  18.336  0.00  0.00    +0.000 A 
ATOM      2  C   UNL     1       3.197   2.682  17.756  0.00  0.00    +0.000 A 
ATOM      3  N   UNL     1       4.176   3.426  17.234  0.00  0.00    +0.000 NA
ATOM      4  N   UNL     1       3.788   4.708  17.450  0.00  0.00    +0.000 N 
ATOM      5  C   UNL     1       4.433   5.885  17.076  0.00  0.00    +0.000 A 
ATOM      6  C   UNL     1       3.909   7.073  17.437  0.00  0.00    +0.000 A 
ATOM      7  C   UNL     1       2.644   7.007  18.219  0.00  0.00    +0.000 A 
ATOM      8  N   UNL     1       2.007   5.929  18.563  0.00  0.00    +0.000 NA
ATOM      9  C   UNL     1       2.584   4.754  18.164  0.00  0.00    +0.000 A 
ENDROOT
BRANCH   5  10
ATOM     10  C   UNL     1       5.687   5.742  16.290  0.00  0.00    +0.000 C 
ATOM     11  F   UNL     1       5.448   5.973  14.970  0.00  0.00    +0.000 F 
ATOM     12  F   UNL     1       6.600   6.685  16.665  0.00  0.00    +0.000 F 
ENDBRANCH   5  10
BRANCH   7  13
ATOM     13  C   UNL     1       2.083   8.299  18.677  0.00  0.00    +0.000 C 
ATOM     14  C   UNL     1       2.324   9.588  17.932  0.00  0.00    +0.000 C 
ATOM     15  C   UNL     1       0.971   8.946  17.881  0.00  0.00    +0.000 C 
ENDBRANCH   7  13
BRANCH   1  17
ATOM     16  O   UNL     1       0.237   2.130  18.499  0.00  0.00    +0.000 OA
ATOM     17  C   UNL     1       0.957   2.996  18.975  0.00  0.00    +0.000 C 
BRANCH  17  18
ATOM     18  O   UNL     1       0.665   3.615  20.150  0.00  0.00    +0.000 OA
ATOM     19  H   UNL     1       0.146   4.439  19.997  0.00  0.00    +0.000 HD
ENDBRANCH  17  18
ENDBRANCH   1  17
TORSDOF 4
ENDMDL
MODEL 9
REMARK VINA RESULT:      -6.6      2.904      3.604
REMARK  Name = 
REMARK  4 active torsions:
REMARK  status: ('A' for Active; 'I' for Inactive)
REMARK    1  A    between atoms: C_2  and  O_3
REMARK    2  A    between atoms: C_2  and  C_4
REMARK    3  A    between atoms: C_8  and  C_9
REMARK    4  A    between atoms: C_13  and  C_14
REMARK                            x       y       z     vdW  Elec       q    Type
REMARK                         _______ _______ _______ _____ _____    ______ ____
ROOT
ATOM      1  C   UNL     1       3.670   3.246  19.471  0.00  0.00    +0.000 A 
ATOM      2  C   UNL     1       2.489   3.695  20.090  0.00  0.00    +0.000 A 
ATOM      3  N   UNL     1       2.116   4.913  19.686  0.00  0.00    +0.000 NA
ATOM      4  N   UNL     1       3.073   5.290  18.801  0.00  0.00    +0.000 N 
ATOM      5  C   UNL     1       3.185   6.492  18.104  0.00  0.00    +0.000 A 
ATOM      6  C   UNL     1       4.187   6.654  17.218  0.00  0.00    +0.000 A 
ATOM      7  C   UNL     1       5.113   5.497  17.074  0.00  0.00    +0.000 A 
ATOM      8  N   UNL     1       5.049   4.375  17.725  0.00  0.00    +0.000 NA
ATOM      9  C   UNL     1       4.014   4.270  18.614  0.00  0.00    +0.000 A 
ENDROOT
BRANCH   5  10
ATOM     10  C   UNL     1       2.161   7.532  18.390  0.00  0.00    +0.000 C 
ATOM     11  F   UNL     1       2.366   8.070  19.623  0.00  0.00    +0.000 F 
ATOM     12  F   UNL     1       2.274   8.572  17.515  0.00  0.00    +0.000 F 
ENDBRANCH   5  10
BRANCH   7  13
ATOM     13  C   UNL     1       6.186   5.631  16.062  0.00  0.00    +0.000 C 
ATOM     14  C   UNL     1       7.045   4.465  15.644  0.00  0.00    +0.000 C 
ATOM     15  C   UNL     1       6.004   4.990  14.704  0.00  0.00    +0.000 C 
ENDBRANCH   7  13
BRANCH   1  17
ATOM     16  O   UNL     1       5.104   1.791  20.625  0.00  0.00    +0.000 OA
ATOM     17  C   UNL     1       4.372   1.999  19.668  0.00  0.00    +0.000 C 
BRANCH  17  18
ATOM     18  O   UNL     1       4.169   1.070  18.696  0.00  0.00    +0.000 OA
ATOM     19  H   UNL     1       3.229   1.066  18.400  0.00  0.00    +0.000 HD
ENDBRANCH  17  18
ENDBRANCH   1  17
TORSDOF 4
ENDMDL
