MODEL 1
REMARK VINA RESULT:      -8.4      0.000      0.000
REMARK  Name = 
REMARK  9 active torsions:
REMARK  status: ('A' for Active; 'I' for Inactive)
REMARK    1  A    between atoms: C_1  and  C_2
REMARK    2  A    between atoms: C_3  and  N_4
REMARK    3  A    between atoms: C_5  and  C_7
REMARK    4  A    between atoms: C_7  and  C_8
REMARK    5  A    between atoms: C_8  and  C_9
REMARK    6  A    between atoms: C_9  and  C_10
REMARK    7  A    between atoms: C_10  and  C_12
REMARK    8  A    between atoms: C_23  and  C_24
REMARK    9  A    between atoms: C_24  and  N_25
REMARK                            x       y       z     vdW  Elec       q    Type
REMARK                         _______ _______ _______ _____ _____    ______ ____
ROOT
ATOM      1  C   UNL     1       1.210   9.317  18.098  0.00  0.00    +0.000 C 
ATOM      2  C   UNL     1       0.962   9.237  19.586  0.00  0.00    +0.000 A 
ATOM      3  C   UNL     1       1.639   8.322  20.405  0.00  0.00    +0.000 A 
ATOM      4  C   UNL     1       1.457   8.369  21.790  0.00  0.00    +0.000 A 
ATOM      5  C   UNL     1       0.571   9.294  22.355  0.00  0.00    +0.000 A 
ATOM      6  C   UNL     1      -0.140  10.200  21.535  0.00  0.00    +0.000 A 
ATOM      7  C   UNL     1      -1.044  11.160  22.051  0.00  0.00    +0.000 A 
ATOM      8  C   UNL     1      -1.701  12.055  21.194  0.00  0.00    +0.000 A 
ATOM      9  C   UNL     1      -1.393  11.946  19.850  0.00  0.00    +0.000 A 
ATOM     10  N   UNL     1      -0.554  11.032  19.325  0.00  0.00    +0.000 NA
ATOM     11  C   UNL     1       0.072  10.166  20.144  0.00  0.00    +0.000 A 
ENDROOT
BRANCH   3  12
ATOM     12  N   UNL     1       2.473   7.334  19.825  0.00  0.00    +0.000 N 
ATOM     13  C   UNL     1       2.249   5.981  19.988  0.00  0.00    +0.000 C 
ATOM     14  O   UNL     1       1.326   5.501  20.640  0.00  0.00    +0.000 OA
ATOM     15  H   UNL     1       3.419   7.609  19.592  0.00  0.00    +0.000 HD
BRANCH  13  16
ATOM     16  C   UNL     1       3.301   5.108  19.328  0.00  0.00    +0.000 C 
BRANCH  16  17
ATOM     17  C   UNL     1       3.058   4.963  17.819  0.00  0.00    +0.000 C 
BRANCH  17  18
ATOM     18  C   UNL     1       3.889   3.858  17.156  0.00  0.00    +0.000 C 
BRANCH  18  19
ATOM     19  C   UNL     1       5.051   4.402  16.345  0.00  0.00    +0.000 C 
ATOM     20  O   UNL     1       5.171   4.185  15.140  0.00  0.00    +0.000 OA
BRANCH  19  21
ATOM     21  C   UNL     1       6.077   5.239  17.028  0.00  0.00    +0.000 A 
ATOM     22  C   UNL     1       6.910   4.738  18.039  0.00  0.00    +0.000 A 
ATOM     23  C   UNL     1       7.808   5.592  18.684  0.00  0.00    +0.000 A 
ATOM     24  C   UNL     1       7.877   6.930  18.312  0.00  0.00    +0.000 A 
ATOM     25  F   UNL     1       8.727   7.746  18.946  0.00  0.00    +0.000 F 
ATOM     26  C   UNL     1       7.076   7.435  17.295  0.00  0.00    +0.000 A 
ATOM     27  C   UNL     1       6.177   6.588  16.650  0.00  0.00    +0.000 A 
ENDBRANCH  19  21
ENDBRANCH  18  19
ENDBRANCH  17  18
ENDBRANCH  16  17
ENDBRANCH  13  16
ENDBRANCH   3  12
BRANCH   8  28
ATOM     28  C   UNL     1      -2.642  13.142  21.657  0.00  0.00    +0.000 C 
BRANCH  28  29
ATOM     29  N   UNL     1      -3.916  12.731  22.236  0.00  0.00    +0.000 NA
ATOM     30  C   UNL     1      -5.140  13.182  21.598  0.00  0.00    +0.000 C 
ATOM     31  C   UNL     1      -5.971  13.809  22.702  0.00  0.00    +0.000 C 
ATOM     32  C   UNL     1      -5.497  13.128  23.970  0.00  0.00    +0.000 C 
ATOM     33  C   UNL     1      -4.052  12.743  23.685  0.00  0.00    +0.000 C 
ENDBRANCH  28  29
ENDBRANCH   8  28
TORSDOF 8
ENDMDL
MODEL 2
REMARK VINA RESULT:      -8.2      4.414     11.193
REMARK  Name = 
REMARK  9 active torsions:
REMARK  status: ('A' for Active; 'I' for Inactive)
REMARK    1  A    between atoms: C_1  and  C_2
REMARK    2  A    between atoms: C_3  and  N_4
REMARK    3  A    between atoms: C_5  and  C_7
REMARK    4  A    between atoms: C_7  and  C_8
REMARK    5  A    between atoms: C_8  and  C_9
REMARK    6  A    between atoms: C_9  and  C_10
REMARK    7  A    between atoms: C_10  and  C_12
REMARK    8  A    between atoms: C_23  and  C_24
REMARK    9  A    between atoms: C_24  and  N_25
REMARK                            x       y       z     vdW  Elec       q    Type
REMARK                         _______ _______ _______ _____ _____    ______ ____
ROOT
ATOM      1  C   UNL     1       0.450   8.944  22.003  0.00  0.00    +0.000 C 
ATOM      2  C   UNL     1       0.814   9.233  20.565  0.00  0.00    +0.000 A 
ATOM      3  C   UNL     1       0.486  10.447  19.945  0.00  0.00    +0.000 A 
ATOM      4  C   UNL     1       0.949  10.708  18.651  0.00  0.00    +0.000 A 
ATOM      5  C   UNL     1       1.697   9.747  17.962  0.00  0.00    +0.000 A 
ATOM      6  C   UNL     1       2.006   8.507  18.567  0.00  0.00    +0.000 A 
ATOM      7  C   UNL     1       2.763   7.501  17.920  0.00  0.00    +0.000 A 
ATOM      8  C   UNL     1       3.066   6.300  18.579  0.00  0.00    +0.000 A 
ATOM      9  C   UNL     1       2.601   6.186  19.877  0.00  0.00    +0.000 A 
ATOM     10  N   UNL     1       1.862   7.115  20.514  0.00  0.00    +0.000 NA
ATOM     11  C   UNL     1       1.563   8.265  19.880  0.00  0.00    +0.000 A 
ENDROOT
BRANCH   3  12
ATOM     12  N   UNL     1      -0.338  11.385  20.613  0.00  0.00    +0.000 N 
ATOM     13  C   UNL     1       0.171  12.479  21.284  0.00  0.00    +0.000 C 
ATOM     14  O   UNL     1       1.366  12.748  21.374  0.00  0.00    +0.000 OA
ATOM     15  H   UNL     1      -1.257  11.070  20.898  0.00  0.00    +0.000 HD
BRANCH  13  16
ATOM     16  C   UNL     1      -0.890  13.316  21.975  0.00  0.00    +0.000 C 
BRANCH  16  17
ATOM     17  C   UNL     1      -2.245  12.596  22.021  0.00  0.00    +0.000 C 
BRANCH  17  18
ATOM     18  C   UNL     1      -2.565  11.954  23.376  0.00  0.00    +0.000 C 
BRANCH  18  19
ATOM     19  C   UNL     1      -3.784  12.565  24.043  0.00  0.00    +0.000 C 
ATOM     20  O   UNL     1      -4.764  11.895  24.366  0.00  0.00    +0.000 OA
BRANCH  19  21
ATOM     21  C   UNL     1      -3.793  14.028  24.326  0.00  0.00    +0.000 A 
ATOM     22  C   UNL     1      -2.762  14.667  25.031  0.00  0.00    +0.000 A 
ATOM     23  C   UNL     1      -2.861  16.031  25.319  0.00  0.00    +0.000 A 
ATOM     24  C   UNL     1      -3.978  16.746  24.898  0.00  0.00    +0.000 A 
ATOM     25  F   UNL     1      -4.075  18.048  25.193  0.00  0.00    +0.000 F 
ATOM     26  C   UNL     1      -4.995  16.131  24.179  0.00  0.00    +0.000 A 
ATOM     27  C   UNL     1      -4.901  14.771  23.890  0.00  0.00    +0.000 A 
ENDBRANCH  19  21
ENDBRANCH  18  19
ENDBRANCH  17  18
ENDBRANCH  16  17
ENDBRANCH  13  16
ENDBRANCH   3  12
BRANCH   8  28
ATOM     28  C   UNL     1       3.907   5.193  17.988  0.00  0.00    +0.000 C 
BRANCH  28  29
ATOM     29  N   UNL     1       3.314   3.863  17.910  0.00  0.00    +0.000 NA
ATOM     30  C   UNL     1       1.935   3.748  17.471  0.00  0.00    +0.000 C 
ATOM     31  C   UNL     1       1.236   2.915  18.530  0.00  0.00    +0.000 C 
ATOM     32  C   UNL     1       2.339   2.079  19.147  0.00  0.00    +0.000 C 
ATOM     33  C   UNL     1       3.599   2.916  18.978  0.00  0.00    +0.000 C 
ENDBRANCH  28  29
ENDBRANCH   8  28
TORSDOF 8
ENDMDL
MODEL 3
REMARK VINA RESULT:      -8.2      2.736      4.038
REMARK  Name = 
REMARK  9 active torsions:
REMARK  status: ('A' for Active; 'I' for Inactive)
REMARK    1  A    between atoms: C_1  and  C_2
REMARK    2  A    between atoms: C_3  and  N_4
REMARK    3  A    between atoms: C_5  and  C_7
REMARK    4  A    between atoms: C_7  and  C_8
REMARK    5  A    between atoms: C_8  and  C_9
REMARK    6  A    between atoms: C_9  and  C_10
REMARK    7  A    between atoms: C_10  and  C_12
REMARK    8  A    between atoms: C_23  and  C_24
REMARK    9  A    between atoms: C_24  and  N_25
REMARK                            x       y       z     vdW  Elec       q    Type
REMARK                         _______ _______ _______ _____ _____    ______ ____
ROOT
ATOM      1  C   UNL     1       1.662   5.995  21.031  0.00  0.00    +0.000 C 
ATOM      2  C   UNL     1       1.931   6.926  19.873  0.00  0.00    +0.000 A 
ATOM      3  C   UNL     1       2.499   6.475  18.673  0.00  0.00    +0.000 A 
ATOM      4  C   UNL     1       2.620   7.355  17.593  0.00  0.00    +0.000 A 
ATOM      5  C   UNL     1       2.216   8.690  17.721  0.00  0.00    +0.000 A 
ATOM      6  C   UNL     1       1.671   9.162  18.937  0.00  0.00    +0.000 A 
ATOM      7  C   UNL     1       1.242  10.498  19.122  0.00  0.00    +0.000 A 
ATOM      8  C   UNL     1       0.680  10.905  20.341  0.00  0.00    +0.000 A 
ATOM      9  C   UNL     1       0.562   9.927  21.312  0.00  0.00    +0.000 A 
ATOM     10  N   UNL     1       0.978   8.653  21.175  0.00  0.00    +0.000 NA
ATOM     11  C   UNL     1       1.525   8.262  20.009  0.00  0.00    +0.000 A 
ENDROOT
BRANCH   3  12
ATOM     12  N   UNL     1       2.980   5.147  18.571  0.00  0.00    +0.000 N 
ATOM     13  C   UNL     1       2.259   4.138  17.965  0.00  0.00    +0.000 C 
ATOM     14  O   UNL     1       1.147   4.280  17.463  0.00  0.00    +0.000 OA
ATOM     15  H   UNL     1       3.682   4.859  19.242  0.00  0.00    +0.000 HD
BRANCH  13  16
ATOM     16  C   UNL     1       2.942   2.784  18.022  0.00  0.00    +0.000 C 
BRANCH  16  17
ATOM     17  C   UNL     1       4.335   2.819  17.378  0.00  0.00    +0.000 C 
BRANCH  17  18
ATOM     18  C   UNL     1       4.436   3.744  16.159  0.00  0.00    +0.000 C 
BRANCH  18  19
ATOM     19  C   UNL     1       5.864   4.153  15.848  0.00  0.00    +0.000 C 
ATOM     20  O   UNL     1       6.490   3.690  14.897  0.00  0.00    +0.000 OA
BRANCH  19  21
ATOM     21  C   UNL     1       6.531   5.160  16.721  0.00  0.00    +0.000 A 
ATOM     22  C   UNL     1       6.389   6.542  16.526  0.00  0.00    +0.000 A 
ATOM     23  C   UNL     1       7.092   7.433  17.340  0.00  0.00    +0.000 A 
ATOM     24  C   UNL     1       7.921   6.944  18.344  0.00  0.00    +0.000 A 
ATOM     25  F   UNL     1       8.606   7.802  19.108  0.00  0.00    +0.000 F 
ATOM     26  C   UNL     1       8.053   5.578  18.564  0.00  0.00    +0.000 A 
ATOM     27  C   UNL     1       7.355   4.686  17.754  0.00  0.00    +0.000 A 
ENDBRANCH  19  21
ENDBRANCH  18  19
ENDBRANCH  17  18
ENDBRANCH  16  17
ENDBRANCH  13  16
ENDBRANCH   3  12
BRANCH   8  28
ATOM     28  C   UNL     1       0.150  12.293  20.613  0.00  0.00    +0.000 C 
BRANCH  28  29
ATOM     29  N   UNL     1       0.989  13.423  20.231  0.00  0.00    +0.000 NA
ATOM     30  C   UNL     1       0.860  13.954  18.885  0.00  0.00    +0.000 C 
ATOM     31  C   UNL     1       2.269  13.992  18.322  0.00  0.00    +0.000 C 
ATOM     32  C   UNL     1       3.164  14.101  19.540  0.00  0.00    +0.000 C 
ATOM     33  C   UNL     1       2.381  13.425  20.657  0.00  0.00    +0.000 C 
ENDBRANCH  28  29
ENDBRANCH   8  28
TORSDOF 8
ENDMDL
MODEL 4
REMARK VINA RESULT:      -8.1      3.827      9.712
REMARK  Name = 
REMARK  9 active torsions:
REMARK  status: ('A' for Active; 'I' for Inactive)
REMARK    1  A    between atoms: C_1  and  C_2
REMARK    2  A    between atoms: C_3  and  N_4
REMARK    3  A    between atoms: C_5  and  C_7
REMARK    4  A    between atoms: C_7  and  C_8
REMARK    5  A    between atoms: C_8  and  C_9
REMARK    6  A    between atoms: C_9  and  C_10
REMARK    7  A    between atoms: C_10  and  C_12
REMARK    8  A    between atoms: C_23  and  C_24
REMARK    9  A    between atoms: C_24  and  N_25
REMARK                            x       y       z     vdW  Elec       q    Type
REMARK                         _______ _______ _______ _____ _____    ______ ____
ROOT
ATOM      1  C   UNL     1       1.602  10.240  17.853  0.00  0.00    +0.000 C 
ATOM      2  C   UNL     1       1.517   9.287  19.021  0.00  0.00    +0.000 A 
ATOM      3  C   UNL     1       0.715   9.553  20.141  0.00  0.00    +0.000 A 
ATOM      4  C   UNL     1       0.583   8.584  21.141  0.00  0.00    +0.000 A 
ATOM      5  C   UNL     1       1.279   7.373  21.047  0.00  0.00    +0.000 A 
ATOM      6  C   UNL     1       2.114   7.108  19.938  0.00  0.00    +0.000 A 
ATOM      7  C   UNL     1       2.838   5.901  19.788  0.00  0.00    +0.000 A 
ATOM      8  C   UNL     1       3.629   5.679  18.651  0.00  0.00    +0.000 A 
ATOM      9  C   UNL     1       3.632   6.689  17.707  0.00  0.00    +0.000 A 
ATOM     10  N   UNL     1       2.972   7.857  17.827  0.00  0.00    +0.000 NA
ATOM     11  C   UNL     1       2.218   8.076  18.921  0.00  0.00    +0.000 A 
ENDROOT
BRANCH   3  12
ATOM     12  N   UNL     1       0.075  10.809  20.272  0.00  0.00    +0.000 N 
ATOM     13  C   UNL     1      -0.163  11.399  21.498  0.00  0.00    +0.000 C 
ATOM     14  O   UNL     1       0.144  10.907  22.580  0.00  0.00    +0.000 OA
ATOM     15  H   UNL     1      -0.516  11.108  19.507  0.00  0.00    +0.000 HD
BRANCH  13  16
ATOM     16  C   UNL     1      -0.913  12.716  21.403  0.00  0.00    +0.000 C 
BRANCH  16  17
ATOM     17  C   UNL     1      -2.433  12.511  21.436  0.00  0.00    +0.000 C 
BRANCH  17  18
ATOM     18  C   UNL     1      -3.178  13.175  20.271  0.00  0.00    +0.000 C 
BRANCH  18  19
ATOM     19  C   UNL     1      -4.144  12.232  19.578  0.00  0.00    +0.000 C 
ATOM     20  O   UNL     1      -5.283  12.031  19.995  0.00  0.00    +0.000 OA
BRANCH  19  21
ATOM     21  C   UNL     1      -3.702  11.531  18.339  0.00  0.00    +0.000 A 
ATOM     22  C   UNL     1      -2.517  10.784  18.275  0.00  0.00    +0.000 A 
ATOM     23  C   UNL     1      -2.127  10.204  17.066  0.00  0.00    +0.000 A 
ATOM     24  C   UNL     1      -2.922  10.364  15.935  0.00  0.00    +0.000 A 
ATOM     25  F   UNL     1      -2.533   9.821  14.776  0.00  0.00    +0.000 F 
ATOM     26  C   UNL     1      -4.110  11.081  15.990  0.00  0.00    +0.000 A 
ATOM     27  C   UNL     1      -4.503  11.663  17.193  0.00  0.00    +0.000 A 
ENDBRANCH  19  21
ENDBRANCH  18  19
ENDBRANCH  17  18
ENDBRANCH  16  17
ENDBRANCH  13  16
ENDBRANCH   3  12
BRANCH   8  28
ATOM     28  C   UNL     1       4.394   4.404  18.383  0.00  0.00    +0.000 C 
BRANCH  28  29
ATOM     29  N   UNL     1       3.639   3.157  18.348  0.00  0.00    +0.000 NA
ATOM     30  C   UNL     1       2.449   3.095  17.518  0.00  0.00    +0.000 C 
ATOM     31  C   UNL     1       1.344   2.585  18.424  0.00  0.00    +0.000 C 
ATOM     32  C   UNL     1       2.063   1.791  19.495  0.00  0.00    +0.000 C 
ATOM     33  C   UNL     1       3.438   2.437  19.597  0.00  0.00    +0.000 C 
ENDBRANCH  28  29
ENDBRANCH   8  28
TORSDOF 8
ENDMDL
MODEL 5
REMARK VINA RESULT:      -8.1      1.752      2.094
REMARK  Name = 
REMARK  9 active torsions:
REMARK  status: ('A' for Active; 'I' for Inactive)
REMARK    1  A    between atoms: C_1  and  C_2
REMARK    2  A    between atoms: C_3  and  N_4
REMARK    3  A    between atoms: C_5  and  C_7
REMARK    4  A    between atoms: C_7  and  C_8
REMARK    5  A    between atoms: C_8  and  C_9
REMARK    6  A    between atoms: C_9  and  C_10
REMARK    7  A    between atoms: C_10  and  C_12
REMARK    8  A    between atoms: C_23  and  C_24
REMARK    9  A    between atoms: C_24  and  N_25
REMARK                            x       y       z     vdW  Elec       q    Type
REMARK                         _______ _______ _______ _____ _____    ______ ____
ROOT
ATOM      1  C   UNL     1       0.576   9.980  18.692  0.00  0.00    +0.000 C 
ATOM      2  C   UNL     1       0.452   9.769  20.183  0.00  0.00    +0.000 A 
ATOM      3  C   UNL     1       1.278   8.873  20.878  0.00  0.00    +0.000 A 
ATOM      4  C   UNL     1       1.199   8.802  22.272  0.00  0.00    +0.000 A 
ATOM      5  C   UNL     1       0.271   9.587  22.968  0.00  0.00    +0.000 A 
ATOM      6  C   UNL     1      -0.587  10.469  22.273  0.00  0.00    +0.000 A 
ATOM      7  C   UNL     1      -1.540  11.289  22.925  0.00  0.00    +0.000 A 
ATOM      8  C   UNL     1      -2.347  12.169  22.188  0.00  0.00    +0.000 A 
ATOM      9  C   UNL     1      -2.133  12.189  20.822  0.00  0.00    +0.000 A 
ATOM     10  N   UNL     1      -1.250  11.409  20.169  0.00  0.00    +0.000 NA
ATOM     11  C   UNL     1      -0.480  10.557  20.873  0.00  0.00    +0.000 A 
ENDROOT
BRANCH   3  12
ATOM     12  N   UNL     1       2.159   8.023  20.166  0.00  0.00    +0.000 N 
ATOM     13  C   UNL     1       1.992   6.653  20.113  0.00  0.00    +0.000 C 
ATOM     14  O   UNL     1       1.084   6.040  20.668  0.00  0.00    +0.000 OA
ATOM     15  H   UNL     1       3.094   8.369  19.994  0.00  0.00    +0.000 HD
BRANCH  13  16
ATOM     16  C   UNL     1       3.086   5.937  19.343  0.00  0.00    +0.000 C 
BRANCH  16  17
ATOM     17  C   UNL     1       2.522   5.125  18.170  0.00  0.00    +0.000 C 
BRANCH  17  18
ATOM     18  C   UNL     1       3.123   3.720  18.037  0.00  0.00    +0.000 C 
BRANCH  18  19
ATOM     19  C   UNL     1       4.635   3.712  18.172  0.00  0.00    +0.000 C 
ATOM     20  O   UNL     1       5.201   3.411  19.221  0.00  0.00    +0.000 OA
BRANCH  19  21
ATOM     21  C   UNL     1       5.465   4.072  16.989  0.00  0.00    +0.000 A 
ATOM     22  C   UNL     1       6.715   4.698  17.105  0.00  0.00    +0.000 A 
ATOM     23  C   UNL     1       7.415   5.067  15.953  0.00  0.00    +0.000 A 
ATOM     24  C   UNL     1       6.872   4.803  14.700  0.00  0.00    +0.000 A 
ATOM     25  F   UNL     1       7.539   5.176  13.602  0.00  0.00    +0.000 F 
ATOM     26  C   UNL     1       5.646   4.162  14.570  0.00  0.00    +0.000 A 
ATOM     27  C   UNL     1       4.943   3.794  15.715  0.00  0.00    +0.000 A 
ENDBRANCH  19  21
ENDBRANCH  18  19
ENDBRANCH  17  18
ENDBRANCH  16  17
ENDBRANCH  13  16
ENDBRANCH   3  12
BRANCH   8  28
ATOM     28  C   UNL     1      -3.353  13.116  22.799  0.00  0.00    +0.000 C 
BRANCH  28  29
ATOM     29  N   UNL     1      -4.734  12.659  22.902  0.00  0.00    +0.000 NA
ATOM     30  C   UNL     1      -5.677  13.078  21.880  0.00  0.00    +0.000 C 
ATOM     31  C   UNL     1      -6.858  13.666  22.629  0.00  0.00    +0.000 C 
ATOM     32  C   UNL     1      -6.829  12.987  23.983  0.00  0.00    +0.000 C 
ATOM     33  C   UNL     1      -5.363  12.650  24.215  0.00  0.00    +0.000 C 
ENDBRANCH  28  29
ENDBRANCH   8  28
TORSDOF 8
ENDMDL
MODEL 6
REMARK VINA RESULT:      -8.0      1.914      2.635
REMARK  Name = 
REMARK  9 active torsions:
REMARK  status: ('A' for Active; 'I' for Inactive)
REMARK    1  A    between atoms: C_1  and  C_2
REMARK    2  A    between atoms: C_3  and  N_4
REMARK    3  A    between atoms: C_5  and  C_7
REMARK    4  A    between atoms: C_7  and  C_8
REMARK    5  A    between atoms: C_8  and  C_9
REMARK    6  A    between atoms: C_9  and  C_10
REMARK    7  A    between atoms: C_10  and  C_12
REMARK    8  A    between atoms: C_23  and  C_24
REMARK    9  A    between atoms: C_24  and  N_25
REMARK                            x       y       z     vdW  Elec       q    Type
REMARK                         _______ _______ _______ _____ _____    ______ ____
ROOT
ATOM      1  C   UNL     1       2.115   8.798  17.825  0.00  0.00    +0.000 C 
ATOM      2  C   UNL     1       1.575   8.857  19.235  0.00  0.00    +0.000 A 
ATOM      3  C   UNL     1       1.889   7.881  20.192  0.00  0.00    +0.000 A 
ATOM      4  C   UNL     1       1.458   8.046  21.513  0.00  0.00    +0.000 A 
ATOM      5  C   UNL     1       0.681   9.154  21.868  0.00  0.00    +0.000 A 
ATOM      6  C   UNL     1       0.333  10.127  20.904  0.00  0.00    +0.000 A 
ATOM      7  C   UNL     1      -0.446  11.270  21.207  0.00  0.00    +0.000 A 
ATOM      8  C   UNL     1      -0.737  12.219  20.217  0.00  0.00    +0.000 A 
ATOM      9  C   UNL     1      -0.205  11.973  18.964  0.00  0.00    +0.000 A 
ATOM     10  N   UNL     1       0.522  10.887  18.637  0.00  0.00    +0.000 NA
ATOM     11  C   UNL     1       0.796   9.969  19.584  0.00  0.00    +0.000 A 
ENDROOT
BRANCH   3  12
ATOM     12  N   UNL     1       2.607   6.721  19.813  0.00  0.00    +0.000 N 
ATOM     13  C   UNL     1       2.140   5.444  20.053  0.00  0.00    +0.000 C 
ATOM     14  O   UNL     1       1.077   5.184  20.611  0.00  0.00    +0.000 OA
ATOM     15  H   UNL     1       3.607   6.818  19.688  0.00  0.00    +0.000 HD
BRANCH  13  16
ATOM     16  C   UNL     1       3.100   4.353  19.614  0.00  0.00    +0.000 C 
BRANCH  16  17
ATOM     17  C   UNL     1       3.106   4.177  18.090  0.00  0.00    +0.000 C 
BRANCH  17  18
ATOM     18  C   UNL     1       4.314   3.397  17.556  0.00  0.00    +0.000 C 
BRANCH  18  19
ATOM     19  C   UNL     1       5.197   4.230  16.645  0.00  0.00    +0.000 C 
ATOM     20  O   UNL     1       5.111   4.181  15.419  0.00  0.00    +0.000 OA
BRANCH  19  21
ATOM     21  C   UNL     1       6.197   5.150  17.256  0.00  0.00    +0.000 A 
ATOM     22  C   UNL     1       6.927   4.817  18.406  0.00  0.00    +0.000 A 
ATOM     23  C   UNL     1       7.804   5.751  18.965  0.00  0.00    +0.000 A 
ATOM     24  C   UNL     1       7.953   7.000  18.372  0.00  0.00    +0.000 A 
ATOM     25  F   UNL     1       8.780   7.895  18.923  0.00  0.00    +0.000 F 
ATOM     26  C   UNL     1       7.254   7.335  17.219  0.00  0.00    +0.000 A 
ATOM     27  C   UNL     1       6.377   6.408  16.658  0.00  0.00    +0.000 A 
ENDBRANCH  19  21
ENDBRANCH  18  19
ENDBRANCH  17  18
ENDBRANCH  16  17
ENDBRANCH  13  16
ENDBRANCH   3  12
BRANCH   8  28
ATOM     28  C   UNL     1      -1.516  13.491  20.459  0.00  0.00    +0.000 C 
BRANCH  28  29
ATOM     29  N   UNL     1      -0.760  14.731  20.591  0.00  0.00    +0.000 NA
ATOM     30  C   UNL     1      -0.607  15.573  19.419  0.00  0.00    +0.000 C 
ATOM     31  C   UNL     1       0.882  15.840  19.297  0.00  0.00    +0.000 C 
ATOM     32  C   UNL     1       1.412  15.696  20.710  0.00  0.00    +0.000 C 
ATOM     33  C   UNL     1       0.463  14.713  21.380  0.00  0.00    +0.000 C 
ENDBRANCH  28  29
ENDBRANCH   8  28
TORSDOF 8
ENDMDL
MODEL 7
REMARK VINA RESULT:      -8.0      2.156      2.887
REMARK  Name = 
REMARK  9 active torsions:
REMARK  status: ('A' for Active; 'I' for Inactive)
REMARK    1  A    between atoms: C_1  and  C_2
REMARK    2  A    between atoms: C_3  and  N_4
REMARK    3  A    between atoms: C_5  and  C_7
REMARK    4  A    between atoms: C_7  and  C_8
REMARK    5  A    between atoms: C_8  and  C_9
REMARK    6  A    between atoms: C_9  and  C_10
REMARK    7  A    between atoms: C_10  and  C_12
REMARK    8  A    between atoms: C_23  and  C_24
REMARK    9  A    between atoms: C_24  and  N_25
REMARK                            x       y       z     vdW  Elec       q    Type
REMARK                         _______ _______ _______ _____ _____    ______ ____
ROOT
ATOM      1  C   UNL     1       3.179   7.449  17.523  0.00  0.00    +0.000 C 
ATOM      2  C   UNL     1       2.396   7.486  18.814  0.00  0.00    +0.000 A 
ATOM      3  C   UNL     1       2.350   6.390  19.687  0.00  0.00    +0.000 A 
ATOM      4  C   UNL     1       1.706   6.517  20.922  0.00  0.00    +0.000 A 
ATOM      5  C   UNL     1       1.073   7.718  21.267  0.00  0.00    +0.000 A 
ATOM      6  C   UNL     1       1.087   8.818  20.380  0.00  0.00    +0.000 A 
ATOM      7  C   UNL     1       0.469  10.057  20.679  0.00  0.00    +0.000 A 
ATOM      8  C   UNL     1       0.539  11.126  19.774  0.00  0.00    +0.000 A 
ATOM      9  C   UNL     1       1.254  10.893  18.613  0.00  0.00    +0.000 A 
ATOM     10  N   UNL     1       1.836   9.722  18.289  0.00  0.00    +0.000 NA
ATOM     11  C   UNL     1       1.763   8.691  19.153  0.00  0.00    +0.000 A 
ENDROOT
BRANCH   3  12
ATOM     12  N   UNL     1       2.921   5.152  19.302  0.00  0.00    +0.000 N 
ATOM     13  C   UNL     1       2.159   4.073  18.901  0.00  0.00    +0.000 C 
ATOM     14  O   UNL     1       0.932   4.069  18.840  0.00  0.00    +0.000 OA
ATOM     15  H   UNL     1       3.847   4.944  19.652  0.00  0.00    +0.000 HD
BRANCH  13  16
ATOM     16  C   UNL     1       2.978   2.833  18.591  0.00  0.00    +0.000 C 
BRANCH  16  17
ATOM     17  C   UNL     1       4.383   3.188  18.086  0.00  0.00    +0.000 C 
BRANCH  17  18
ATOM     18  C   UNL     1       4.408   3.777  16.670  0.00  0.00    +0.000 C 
BRANCH  18  19
ATOM     19  C   UNL     1       5.804   4.169  16.221  0.00  0.00    +0.000 C 
ATOM     20  O   UNL     1       6.359   3.640  15.260  0.00  0.00    +0.000 OA
BRANCH  19  21
ATOM     21  C   UNL     1       6.525   5.240  16.964  0.00  0.00    +0.000 A 
ATOM     22  C   UNL     1       6.496   6.585  16.569  0.00  0.00    +0.000 A 
ATOM     23  C   UNL     1       7.247   7.531  17.272  0.00  0.00    +0.000 A 
ATOM     24  C   UNL     1       8.011   7.133  18.364  0.00  0.00    +0.000 A 
ATOM     25  F   UNL     1       8.741   8.041  19.022  0.00  0.00    +0.000 F 
ATOM     26  C   UNL     1       8.030   5.808  18.782  0.00  0.00    +0.000 A 
ATOM     27  C   UNL     1       7.285   4.861  18.083  0.00  0.00    +0.000 A 
ENDBRANCH  19  21
ENDBRANCH  18  19
ENDBRANCH  17  18
ENDBRANCH  16  17
ENDBRANCH  13  16
ENDBRANCH   3  12
BRANCH   8  28
ATOM     28  C   UNL     1      -0.046  12.495  20.027  0.00  0.00    +0.000 C 
BRANCH  28  29
ATOM     29  N   UNL     1       0.228  13.118  21.317  0.00  0.00    +0.000 NA
ATOM     30  C   UNL     1      -0.781  13.024  22.357  0.00  0.00    +0.000 C 
ATOM     31  C   UNL     1      -1.011  14.445  22.835  0.00  0.00    +0.000 C 
ATOM     32  C   UNL     1       0.286  15.166  22.529  0.00  0.00    +0.000 C 
ATOM     33  C   UNL     1       0.865  14.427  21.331  0.00  0.00    +0.000 C 
ENDBRANCH  28  29
ENDBRANCH   8  28
TORSDOF 8
ENDMDL
MODEL 8
REMARK VINA RESULT:      -8.0      4.036     11.370
REMARK  Name = 
REMARK  9 active torsions:
REMARK  status: ('A' for Active; 'I' for Inactive)
REMARK    1  A    between atoms: C_1  and  C_2
REMARK    2  A    between atoms: C_3  and  N_4
REMARK    3  A    between atoms: C_5  and  C_7
REMARK    4  A    between atoms: C_7  and  C_8
REMARK    5  A    between atoms: C_8  and  C_9
REMARK    6  A    between atoms: C_9  and  C_10
REMARK    7  A    between atoms: C_10  and  C_12
REMARK    8  A    between atoms: C_23  and  C_24
REMARK    9  A    between atoms: C_24  and  N_25
REMARK                            x       y       z     vdW  Elec       q    Type
REMARK                         _______ _______ _______ _____ _____    ______ ____
ROOT
ATOM      1  C   UNL     1       0.731   8.569  21.711  0.00  0.00    +0.000 C 
ATOM      2  C   UNL     1       1.184   8.706  20.277  0.00  0.00    +0.000 A 
ATOM      3  C   UNL     1       0.962   9.876  19.536  0.00  0.00    +0.000 A 
ATOM      4  C   UNL     1       1.504   9.992  18.252  0.00  0.00    +0.000 A 
ATOM      5  C   UNL     1       2.225   8.932  17.691  0.00  0.00    +0.000 A 
ATOM      6  C   UNL     1       2.427   7.736  18.418  0.00  0.00    +0.000 A 
ATOM      7  C   UNL     1       3.152   6.634  17.903  0.00  0.00    +0.000 A 
ATOM      8  C   UNL     1       3.347   5.483  18.680  0.00  0.00    +0.000 A 
ATOM      9  C   UNL     1       2.812   5.513  19.955  0.00  0.00    +0.000 A 
ATOM     10  N   UNL     1       2.101   6.536  20.467  0.00  0.00    +0.000 NA
ATOM     11  C   UNL     1       1.905   7.639  19.721  0.00  0.00    +0.000 A 
ENDROOT
BRANCH   3  12
ATOM     12  N   UNL     1       0.165  10.915  20.074  0.00  0.00    +0.000 N 
ATOM     13  C   UNL     1      -1.134  11.145  19.665  0.00  0.00    +0.000 C 
ATOM     14  O   UNL     1      -1.722  10.490  18.809  0.00  0.00    +0.000 OA
ATOM     15  H   UNL     1       0.651  11.698  20.493  0.00  0.00    +0.000 HD
BRANCH  13  16
ATOM     16  C   UNL     1      -1.777  12.346  20.334  0.00  0.00    +0.000 C 
BRANCH  16  17
ATOM     17  C   UNL     1      -1.236  12.568  21.753  0.00  0.00    +0.000 C 
BRANCH  17  18
ATOM     18  C   UNL     1      -2.155  12.042  22.862  0.00  0.00    +0.000 C 
BRANCH  18  19
ATOM     19  C   UNL     1      -3.503  12.741  22.889  0.00  0.00    +0.000 C 
ATOM     20  O   UNL     1      -4.499  12.272  22.342  0.00  0.00    +0.000 OA
BRANCH  19  21
ATOM     21  C   UNL     1      -3.627  14.038  23.612  0.00  0.00    +0.000 A 
ATOM     22  C   UNL     1      -2.662  14.491  24.524  0.00  0.00    +0.000 A 
ATOM     23  C   UNL     1      -2.870  15.686  25.217  0.00  0.00    +0.000 A 
ATOM     24  C   UNL     1      -4.028  16.423  24.991  0.00  0.00    +0.000 A 
ATOM     25  F   UNL     1      -4.228  17.558  25.671  0.00  0.00    +0.000 F 
ATOM     26  C   UNL     1      -4.980  15.999  24.073  0.00  0.00    +0.000 A 
ATOM     27  C   UNL     1      -4.779  14.807  23.380  0.00  0.00    +0.000 A 
ENDBRANCH  19  21
ENDBRANCH  18  19
ENDBRANCH  17  18
ENDBRANCH  16  17
ENDBRANCH  13  16
ENDBRANCH   3  12
BRANCH   8  28
ATOM     28  C   UNL     1       4.147   4.281  18.235  0.00  0.00    +0.000 C 
BRANCH  28  29
ATOM     29  N   UNL     1       5.571   4.472  17.988  0.00  0.00    +0.000 NA
ATOM     30  C   UNL     1       6.332   5.277  18.927  0.00  0.00    +0.000 C 
ATOM     31  C   UNL     1       7.059   6.311  18.086  0.00  0.00    +0.000 C 
ATOM     32  C   UNL     1       7.196   5.666  16.722  0.00  0.00    +0.000 C 
ATOM     33  C   UNL     1       6.009   4.719  16.621  0.00  0.00    +0.000 C 
ENDBRANCH  28  29
ENDBRANCH   8  28
TORSDOF 8
ENDMDL
MODEL 9
REMARK VINA RESULT:      -7.9      3.947      9.958
REMARK  Name = 
REMARK  9 active torsions:
REMARK  status: ('A' for Active; 'I' for Inactive)
REMARK    1  A    between atoms: C_1  and  C_2
REMARK    2  A    between atoms: C_3  and  N_4
REMARK    3  A    between atoms: C_5  and  C_7
REMARK    4  A    between atoms: C_7  and  C_8
REMARK    5  A    between atoms: C_8  and  C_9
REMARK    6  A    between atoms: C_9  and  C_10
REMARK    7  A    between atoms: C_10  and  C_12
REMARK    8  A    between atoms: C_23  and  C_24
REMARK    9  A    between atoms: C_24  and  N_25
REMARK                            x       y       z     vdW  Elec       q    Type
REMARK                         _______ _______ _______ _____ _____    ______ ____
ROOT
ATOM      1  C   UNL     1       0.990  10.664  18.507  0.00  0.00    +0.000 C 
ATOM      2  C   UNL     1       1.075   9.524  19.494  0.00  0.00    +0.000 A 
ATOM      3  C   UNL     1       0.321   9.505  20.676  0.00  0.00    +0.000 A 
ATOM      4  C   UNL     1       0.350   8.373  21.496  0.00  0.00    +0.000 A 
ATOM      5  C   UNL     1       1.162   7.282  21.163  0.00  0.00    +0.000 A 
ATOM      6  C   UNL     1       1.950   7.303  19.990  0.00  0.00    +0.000 A 
ATOM      7  C   UNL     1       2.784   6.227  19.602  0.00  0.00    +0.000 A 
ATOM      8  C   UNL     1       3.523   6.291  18.411  0.00  0.00    +0.000 A 
ATOM      9  C   UNL     1       3.363   7.440  17.658  0.00  0.00    +0.000 A 
ATOM     10  N   UNL     1       2.594   8.489  18.008  0.00  0.00    +0.000 NA
ATOM     11  C   UNL     1       1.891   8.435  19.155  0.00  0.00    +0.000 A 
ENDROOT
BRANCH   3  12
ATOM     12  N   UNL     1      -0.437  10.642  21.052  0.00  0.00    +0.000 N 
ATOM     13  C   UNL     1      -0.571  11.046  22.365  0.00  0.00    +0.000 C 
ATOM     14  O   UNL     1      -0.062  10.475  23.326  0.00  0.00    +0.000 OA
ATOM     15  H   UNL     1      -1.158  10.947  20.411  0.00  0.00    +0.000 HD
BRANCH  13  16
ATOM     16  C   UNL     1      -1.474  12.254  22.539  0.00  0.00    +0.000 C 
BRANCH  16  17
ATOM     17  C   UNL     1      -1.316  13.256  21.388  0.00  0.00    +0.000 C 
BRANCH  17  18
ATOM     18  C   UNL     1      -2.641  13.844  20.885  0.00  0.00    +0.000 C 
BRANCH  18  19
ATOM     19  C   UNL     1      -3.693  12.782  20.622  0.00  0.00    +0.000 C 
ATOM     20  O   UNL     1      -4.488  12.414  21.486  0.00  0.00    +0.000 OA
BRANCH  19  21
ATOM     21  C   UNL     1      -3.775  12.168  19.267  0.00  0.00    +0.000 A 
ATOM     22  C   UNL     1      -2.640  11.752  18.556  0.00  0.00    +0.000 A 
ATOM     23  C   UNL     1      -2.780  11.243  17.262  0.00  0.00    +0.000 A 
ATOM     24  C   UNL     1      -4.045  11.145  16.692  0.00  0.00    +0.000 A 
ATOM     25  F   UNL     1      -4.170  10.674  15.446  0.00  0.00    +0.000 F 
ATOM     26  C   UNL     1      -5.180  11.531  17.394  0.00  0.00    +0.000 A 
ATOM     27  C   UNL     1      -5.045  12.041  18.683  0.00  0.00    +0.000 A 
ENDBRANCH  19  21
ENDBRANCH  18  19
ENDBRANCH  17  18
ENDBRANCH  16  17
ENDBRANCH  13  16
ENDBRANCH   3  12
BRANCH   8  28
ATOM     28  C   UNL     1       4.398   5.175  17.892  0.00  0.00    +0.000 C 
BRANCH  28  29
ATOM     29  N   UNL     1       3.830   3.832  17.856  0.00  0.00    +0.000 NA
ATOM     30  C   UNL     1       2.514   3.656  17.268  0.00  0.00    +0.000 C 
ATOM     31  C   UNL     1       1.700   2.900  18.302  0.00  0.00    +0.000 C 
ATOM     32  C   UNL     1       2.728   2.138  19.114  0.00  0.00    +0.000 C 
ATOM     33  C   UNL     1       3.992   2.981  19.026  0.00  0.00    +0.000 C 
ENDBRANCH  28  29
ENDBRANCH   8  28
TORSDOF 8
ENDMDL
