MODEL 1
REMARK VINA RESULT:      -8.1      0.000      0.000
REMARK  Name = 
REMARK  4 active torsions:
REMARK  status: ('A' for Active; 'I' for Inactive)
REMARK    1  A    between atoms: C_1  and  C_2
REMARK    2  A    between atoms: C_8  and  C_9
REMARK    3  A    between atoms: C_20  and  C_21
REMARK    4  A    between atoms: C_20  and  C_22
REMARK                            x       y       z     vdW  Elec       q    Type
REMARK                         _______ _______ _______ _____ _____    ______ ____
ROOT
ATOM      1  C   UNL     1       4.049   0.619  18.946  0.00  0.00    +0.000 C 
ATOM      2  C   UNL     1       3.081   1.743  18.712  0.00  0.00    +0.000 C 
ATOM      3  C   UNL     1       1.858   1.745  19.275  0.00  0.00    +0.000 C 
ATOM      4  C   UNL     1       0.866   2.852  19.071  0.00  0.00    +0.000 C 
ATOM      5  C   UNL     1       1.472   4.122  18.428  0.00  0.00    +0.000 C 
ATOM      6  C   UNL     1       2.281   3.620  17.230  0.00  0.00    +0.000 C 
ATOM      7  C   UNL     1       3.530   2.882  17.776  0.00  0.00    +0.000 C 
ATOM      8  C   UNL     1       4.467   3.922  18.492  0.00  0.00    +0.000 C 
ATOM      9  N   UNL     1       3.707   4.514  19.622  0.00  0.00    +0.000 NA
ATOM     10  C   UNL     1       2.352   5.030  19.366  0.00  0.00    +0.000 C 
ATOM     11  C   UNL     1       1.679   5.160  20.754  0.00  0.00    +0.000 C 
ATOM     12  C   UNL     1       2.463   6.476  18.822  0.00  0.00    +0.000 C 
ATOM     13  H   UNL     1       4.254   5.198  20.133  0.00  0.00    +0.000 HD
ENDROOT
BRANCH   8  14
ATOM     14  C   UNL     1       5.168   4.950  17.559  0.00  0.00    +0.000 A 
ATOM     15  C   UNL     1       4.709   5.137  16.240  0.00  0.00    +0.000 A 
ATOM     16  C   UNL     1       5.222   6.152  15.460  0.00  0.00    +0.000 A 
ATOM     17  N   UNL     1       6.202   6.972  15.863  0.00  0.00    +0.000 NA
ATOM     18  C   UNL     1       6.735   6.757  17.067  0.00  0.00    +0.000 A 
ATOM     19  C   UNL     1       7.779   7.599  17.432  0.00  0.00    +0.000 A 
ATOM     20  C   UNL     1       8.430   7.467  18.656  0.00  0.00    +0.000 A 
ATOM     21  C   UNL     1       8.054   6.454  19.520  0.00  0.00    +0.000 A 
ATOM     22  C   UNL     1       7.013   5.591  19.168  0.00  0.00    +0.000 A 
ATOM     23  C   UNL     1       6.294   5.741  17.955  0.00  0.00    +0.000 A 
ENDBRANCH   8  14
TORSDOF 1
ENDMDL
MODEL 2
REMARK VINA RESULT:      -8.0      1.294      2.543
REMARK  Name = 
REMARK  4 active torsions:
REMARK  status: ('A' for Active; 'I' for Inactive)
REMARK    1  A    between atoms: C_1  and  C_2
REMARK    2  A    between atoms: C_8  and  C_9
REMARK    3  A    between atoms: C_20  and  C_21
REMARK    4  A    between atoms: C_20  and  C_22
REMARK                            x       y       z     vdW  Elec       q    Type
REMARK                         _______ _______ _______ _____ _____    ______ ____
ROOT
ATOM      1  C   UNL     1       4.026   0.689  18.949  0.00  0.00    +0.000 C 
ATOM      2  C   UNL     1       3.201   1.898  18.614  0.00  0.00    +0.000 C 
ATOM      3  C   UNL     1       1.926   2.017  19.034  0.00  0.00    +0.000 C 
ATOM      4  C   UNL     1       1.073   3.213  18.727  0.00  0.00    +0.000 C 
ATOM      5  C   UNL     1       1.865   4.418  18.166  0.00  0.00    +0.000 C 
ATOM      6  C   UNL     1       2.755   3.837  17.065  0.00  0.00    +0.000 C 
ATOM      7  C   UNL     1       3.858   2.987  17.744  0.00  0.00    +0.000 C 
ATOM      8  C   UNL     1       4.800   3.936  18.570  0.00  0.00    +0.000 C 
ATOM      9  N   UNL     1       3.976   4.601  19.610  0.00  0.00    +0.000 NA
ATOM     10  C   UNL     1       2.714   5.242  19.205  0.00  0.00    +0.000 C 
ATOM     11  C   UNL     1       1.902   5.439  20.508  0.00  0.00    +0.000 C 
ATOM     12  C   UNL     1       3.022   6.669  18.687  0.00  0.00    +0.000 C 
ATOM     13  H   UNL     1       4.523   5.233  20.184  0.00  0.00    +0.000 HD
ENDROOT
BRANCH   8  14
ATOM     14  C   UNL     1       5.697   4.891  17.729  0.00  0.00    +0.000 A 
ATOM     15  C   UNL     1       6.264   6.035  18.325  0.00  0.00    +0.000 A 
ATOM     16  C   UNL     1       7.182   6.798  17.634  0.00  0.00    +0.000 A 
ATOM     17  N   UNL     1       7.547   6.552  16.369  0.00  0.00    +0.000 NA
ATOM     18  C   UNL     1       6.951   5.539  15.737  0.00  0.00    +0.000 A 
ATOM     19  C   UNL     1       7.323   5.341  14.413  0.00  0.00    +0.000 A 
ATOM     20  C   UNL     1       6.761   4.328  13.640  0.00  0.00    +0.000 A 
ATOM     21  C   UNL     1       5.785   3.516  14.189  0.00  0.00    +0.000 A 
ATOM     22  C   UNL     1       5.390   3.704  15.516  0.00  0.00    +0.000 A 
ATOM     23  C   UNL     1       5.989   4.688  16.343  0.00  0.00    +0.000 A 
ENDBRANCH   8  14
TORSDOF 1
ENDMDL
MODEL 3
REMARK VINA RESULT:      -7.7      1.690      3.779
REMARK  Name = 
REMARK  4 active torsions:
REMARK  status: ('A' for Active; 'I' for Inactive)
REMARK    1  A    between atoms: C_1  and  C_2
REMARK    2  A    between atoms: C_8  and  C_9
REMARK    3  A    between atoms: C_20  and  C_21
REMARK    4  A    between atoms: C_20  and  C_22
REMARK                            x       y       z     vdW  Elec       q    Type
REMARK                         _______ _______ _______ _____ _____    ______ ____
ROOT
ATOM      1  C   UNL     1       1.464   6.936  20.481  0.00  0.00    +0.000 C 
ATOM      2  C   UNL     1       1.868   5.490  20.469  0.00  0.00    +0.000 C 
ATOM      3  C   UNL     1       0.994   4.514  20.784  0.00  0.00    +0.000 C 
ATOM      4  C   UNL     1       1.357   3.058  20.776  0.00  0.00    +0.000 C 
ATOM      5  C   UNL     1       2.706   2.755  20.082  0.00  0.00    +0.000 C 
ATOM      6  C   UNL     1       3.696   3.765  20.668  0.00  0.00    +0.000 C 
ATOM      7  C   UNL     1       3.331   5.165  20.114  0.00  0.00    +0.000 C 
ATOM      8  C   UNL     1       3.597   5.187  18.564  0.00  0.00    +0.000 C 
ATOM      9  N   UNL     1       2.724   4.163  17.939  0.00  0.00    +0.000 NA
ATOM     10  C   UNL     1       2.711   2.805  18.508  0.00  0.00    +0.000 C 
ATOM     11  C   UNL     1       1.433   2.126  17.958  0.00  0.00    +0.000 C 
ATOM     12  C   UNL     1       3.896   2.003  17.915  0.00  0.00    +0.000 C 
ATOM     13  H   UNL     1       2.843   4.121  16.932  0.00  0.00    +0.000 HD
ENDROOT
BRANCH   8  14
ATOM     14  C   UNL     1       5.093   5.127  18.137  0.00  0.00    +0.000 A 
ATOM     15  C   UNL     1       6.109   5.319  19.094  0.00  0.00    +0.000 A 
ATOM     16  C   UNL     1       7.431   5.114  18.757  0.00  0.00    +0.000 A 
ATOM     17  N   UNL     1       7.838   4.786  17.524  0.00  0.00    +0.000 NA
ATOM     18  C   UNL     1       6.913   4.699  16.567  0.00  0.00    +0.000 A 
ATOM     19  C   UNL     1       7.377   4.399  15.292  0.00  0.00    +0.000 A 
ATOM     20  C   UNL     1       6.513   4.297  14.204  0.00  0.00    +0.000 A 
ATOM     21  C   UNL     1       5.162   4.531  14.386  0.00  0.00    +0.000 A 
ATOM     22  C   UNL     1       4.675   4.842  15.658  0.00  0.00    +0.000 A 
ATOM     23  C   UNL     1       5.524   4.893  16.793  0.00  0.00    +0.000 A 
ENDBRANCH   8  14
TORSDOF 1
ENDMDL
MODEL 4
REMARK VINA RESULT:      -7.3      2.591      5.238
REMARK  Name = 
REMARK  4 active torsions:
REMARK  status: ('A' for Active; 'I' for Inactive)
REMARK    1  A    between atoms: C_1  and  C_2
REMARK    2  A    between atoms: C_8  and  C_9
REMARK    3  A    between atoms: C_20  and  C_21
REMARK    4  A    between atoms: C_20  and  C_22
REMARK                            x       y       z     vdW  Elec       q    Type
REMARK                         _______ _______ _______ _____ _____    ______ ____
ROOT
ATOM      1  C   UNL     1       5.340   6.009  16.732  0.00  0.00    +0.000 C 
ATOM      2  C   UNL     1       4.199   5.147  17.190  0.00  0.00    +0.000 C 
ATOM      3  C   UNL     1       4.231   3.807  17.052  0.00  0.00    +0.000 C 
ATOM      4  C   UNL     1       3.116   2.912  17.505  0.00  0.00    +0.000 C 
ATOM      5  C   UNL     1       2.080   3.615  18.414  0.00  0.00    +0.000 C 
ATOM      6  C   UNL     1       1.739   4.924  17.699  0.00  0.00    +0.000 C 
ATOM      7  C   UNL     1       2.973   5.856  17.798  0.00  0.00    +0.000 C 
ATOM      8  C   UNL     1       3.191   6.259  19.302  0.00  0.00    +0.000 C 
ATOM      9  N   UNL     1       3.444   5.016  20.073  0.00  0.00    +0.000 NA
ATOM     10  C   UNL     1       2.523   3.881  19.902  0.00  0.00    +0.000 C 
ATOM     11  C   UNL     1       3.268   2.643  20.458  0.00  0.00    +0.000 C 
ATOM     12  C   UNL     1       1.302   4.084  20.834  0.00  0.00    +0.000 C 
ATOM     13  H   UNL     1       3.595   5.203  21.059  0.00  0.00    +0.000 HD
ENDROOT
BRANCH   8  14
ATOM     14  C   UNL     1       2.112   7.203  19.909  0.00  0.00    +0.000 A 
ATOM     15  C   UNL     1       1.381   6.803  21.045  0.00  0.00    +0.000 A 
ATOM     16  C   UNL     1       0.538   7.691  21.679  0.00  0.00    +0.000 A 
ATOM     17  N   UNL     1       0.312   8.938  21.244  0.00  0.00    +0.000 NA
ATOM     18  C   UNL     1       0.906   9.316  20.111  0.00  0.00    +0.000 A 
ATOM     19  C   UNL     1       0.615  10.600  19.667  0.00  0.00    +0.000 A 
ATOM     20  C   UNL     1       1.157  11.107  18.489  0.00  0.00    +0.000 A 
ATOM     21  C   UNL     1       1.981  10.305  17.720  0.00  0.00    +0.000 A 
ATOM     22  C   UNL     1       2.280   9.007  18.143  0.00  0.00    +0.000 A 
ATOM     23  C   UNL     1       1.789   8.488  19.369  0.00  0.00    +0.000 A 
ENDBRANCH   8  14
TORSDOF 1
ENDMDL
MODEL 5
REMARK VINA RESULT:      -7.2      1.526      5.742
REMARK  Name = 
REMARK  4 active torsions:
REMARK  status: ('A' for Active; 'I' for Inactive)
REMARK    1  A    between atoms: C_1  and  C_2
REMARK    2  A    between atoms: C_8  and  C_9
REMARK    3  A    between atoms: C_20  and  C_21
REMARK    4  A    between atoms: C_20  and  C_22
REMARK                            x       y       z     vdW  Elec       q    Type
REMARK                         _______ _______ _______ _____ _____    ______ ____
ROOT
ATOM      1  C   UNL     1       7.955   5.553  20.235  0.00  0.00    +0.000 C 
ATOM      2  C   UNL     1       7.272   5.980  18.967  0.00  0.00    +0.000 C 
ATOM      3  C   UNL     1       7.910   6.721  18.041  0.00  0.00    +0.000 C 
ATOM      4  C   UNL     1       7.265   7.160  16.759  0.00  0.00    +0.000 C 
ATOM      5  C   UNL     1       5.932   6.437  16.451  0.00  0.00    +0.000 C 
ATOM      6  C   UNL     1       5.127   6.507  17.751  0.00  0.00    +0.000 C 
ATOM      7  C   UNL     1       5.800   5.564  18.779  0.00  0.00    +0.000 C 
ATOM      8  C   UNL     1       5.649   4.078  18.287  0.00  0.00    +0.000 C 
ATOM      9  N   UNL     1       6.340   3.961  16.979  0.00  0.00    +0.000 NA
ATOM     10  C   UNL     1       6.043   4.954  15.933  0.00  0.00    +0.000 C 
ATOM     11  C   UNL     1       7.193   4.843  14.904  0.00  0.00    +0.000 C 
ATOM     12  C   UNL     1       4.764   4.516  15.177  0.00  0.00    +0.000 C 
ATOM     13  H   UNL     1       6.283   3.022  16.599  0.00  0.00    +0.000 HD
ENDROOT
BRANCH   8  14
ATOM     14  C   UNL     1       4.204   3.502  18.323  0.00  0.00    +0.000 A 
ATOM     15  C   UNL     1       3.867   2.387  17.529  0.00  0.00    +0.000 A 
ATOM     16  C   UNL     1       2.639   1.776  17.670  0.00  0.00    +0.000 A 
ATOM     17  N   UNL     1       1.685   2.216  18.502  0.00  0.00    +0.000 NA
ATOM     18  C   UNL     1       1.928   3.331  19.192  0.00  0.00    +0.000 A 
ATOM     19  C   UNL     1       0.900   3.781  20.010  0.00  0.00    +0.000 A 
ATOM     20  C   UNL     1       1.023   4.942  20.769  0.00  0.00    +0.000 A 
ATOM     21  C   UNL     1       2.185   5.688  20.684  0.00  0.00    +0.000 A 
ATOM     22  C   UNL     1       3.229   5.259  19.861  0.00  0.00    +0.000 A 
ATOM     23  C   UNL     1       3.152   4.049  19.124  0.00  0.00    +0.000 A 
ENDBRANCH   8  14
TORSDOF 1
ENDMDL
MODEL 6
REMARK VINA RESULT:      -7.2      1.152      1.217
REMARK  Name = 
REMARK  4 active torsions:
REMARK  status: ('A' for Active; 'I' for Inactive)
REMARK    1  A    between atoms: C_1  and  C_2
REMARK    2  A    between atoms: C_8  and  C_9
REMARK    3  A    between atoms: C_20  and  C_21
REMARK    4  A    between atoms: C_20  and  C_22
REMARK                            x       y       z     vdW  Elec       q    Type
REMARK                         _______ _______ _______ _____ _____    ______ ____
ROOT
ATOM      1  C   UNL     1       4.302   1.502  21.202  0.00  0.00    +0.000 C 
ATOM      2  C   UNL     1       3.266   2.330  20.498  0.00  0.00    +0.000 C 
ATOM      3  C   UNL     1       2.053   2.549  21.042  0.00  0.00    +0.000 C 
ATOM      4  C   UNL     1       0.995   3.377  20.374  0.00  0.00    +0.000 C 
ATOM      5  C   UNL     1       1.514   4.205  19.175  0.00  0.00    +0.000 C 
ATOM      6  C   UNL     1       2.333   3.224  18.333  0.00  0.00    +0.000 C 
ATOM      7  C   UNL     1       3.631   2.896  19.112  0.00  0.00    +0.000 C 
ATOM      8  C   UNL     1       4.517   4.192  19.200  0.00  0.00    +0.000 C 
ATOM      9  N   UNL     1       3.742   5.221  19.938  0.00  0.00    +0.000 NA
ATOM     10  C   UNL     1       2.355   5.490  19.523  0.00  0.00    +0.000 C 
ATOM     11  C   UNL     1       1.698   6.243  20.705  0.00  0.00    +0.000 C 
ATOM     12  C   UNL     1       2.372   6.499  18.347  0.00  0.00    +0.000 C 
ATOM     13  H   UNL     1       4.256   6.090  20.033  0.00  0.00    +0.000 HD
ENDROOT
BRANCH   8  14
ATOM     14  C   UNL     1       5.141   4.673  17.859  0.00  0.00    +0.000 A 
ATOM     15  C   UNL     1       4.672   4.157  16.635  0.00  0.00    +0.000 A 
ATOM     16  C   UNL     1       5.109   4.689  15.440  0.00  0.00    +0.000 A 
ATOM     17  N   UNL     1       6.025   5.663  15.355  0.00  0.00    +0.000 NA
ATOM     18  C   UNL     1       6.571   6.103  16.490  0.00  0.00    +0.000 A 
ATOM     19  C   UNL     1       7.548   7.082  16.360  0.00  0.00    +0.000 A 
ATOM     20  C   UNL     1       8.205   7.612  17.468  0.00  0.00    +0.000 A 
ATOM     21  C   UNL     1       7.903   7.131  18.729  0.00  0.00    +0.000 A 
ATOM     22  C   UNL     1       6.930   6.141  18.882  0.00  0.00    +0.000 A 
ATOM     23  C   UNL     1       6.204   5.628  17.777  0.00  0.00    +0.000 A 
ENDBRANCH   8  14
TORSDOF 1
ENDMDL
MODEL 7
REMARK VINA RESULT:      -7.1      2.713      4.924
REMARK  Name = 
REMARK  4 active torsions:
REMARK  status: ('A' for Active; 'I' for Inactive)
REMARK    1  A    between atoms: C_1  and  C_2
REMARK    2  A    between atoms: C_8  and  C_9
REMARK    3  A    between atoms: C_20  and  C_21
REMARK    4  A    between atoms: C_20  and  C_22
REMARK                            x       y       z     vdW  Elec       q    Type
REMARK                         _______ _______ _______ _____ _____    ______ ____
ROOT
ATOM      1  C   UNL     1       6.140   4.895  18.467  0.00  0.00    +0.000 C 
ATOM      2  C   UNL     1       4.716   4.420  18.529  0.00  0.00    +0.000 C 
ATOM      3  C   UNL     1       4.416   3.138  18.817  0.00  0.00    +0.000 C 
ATOM      4  C   UNL     1       3.008   2.627  18.896  0.00  0.00    +0.000 C 
ATOM      5  C   UNL     1       1.938   3.744  18.929  0.00  0.00    +0.000 C 
ATOM      6  C   UNL     1       2.320   4.700  17.797  0.00  0.00    +0.000 C 
ATOM      7  C   UNL     1       3.611   5.447  18.219  0.00  0.00    +0.000 C 
ATOM      8  C   UNL     1       3.287   6.377  19.444  0.00  0.00    +0.000 C 
ATOM      9  N   UNL     1       2.825   5.513  20.560  0.00  0.00    +0.000 NA
ATOM     10  C   UNL     1       1.775   4.517  20.292  0.00  0.00    +0.000 C 
ATOM     11  C   UNL     1       1.829   3.517  21.472  0.00  0.00    +0.000 C 
ATOM     12  C   UNL     1       0.393   5.208  20.396  0.00  0.00    +0.000 C 
ATOM     13  H   UNL     1       2.597   6.051  21.390  0.00  0.00    +0.000 HD
ENDROOT
BRANCH   8  14
ATOM     14  C   UNL     1       2.375   7.601  19.137  0.00  0.00    +0.000 A 
ATOM     15  C   UNL     1       2.198   8.035  17.809  0.00  0.00    +0.000 A 
ATOM     16  C   UNL     1       1.274   9.016  17.513  0.00  0.00    +0.000 A 
ATOM     17  N   UNL     1       0.544   9.649  18.442  0.00  0.00    +0.000 NA
ATOM     18  C   UNL     1       0.762   9.338  19.721  0.00  0.00    +0.000 A 
ATOM     19  C   UNL     1       0.018  10.045  20.657  0.00  0.00    +0.000 A 
ATOM     20  C   UNL     1       0.165   9.827  22.025  0.00  0.00    +0.000 A 
ATOM     21  C   UNL     1       1.097   8.906  22.468  0.00  0.00    +0.000 A 
ATOM     22  C   UNL     1       1.862   8.190  21.544  0.00  0.00    +0.000 A 
ATOM     23  C   UNL     1       1.690   8.350  20.145  0.00  0.00    +0.000 A 
ENDBRANCH   8  14
TORSDOF 1
ENDMDL
MODEL 8
REMARK VINA RESULT:      -6.6      1.772      5.728
REMARK  Name = 
REMARK  4 active torsions:
REMARK  status: ('A' for Active; 'I' for Inactive)
REMARK    1  A    between atoms: C_1  and  C_2
REMARK    2  A    between atoms: C_8  and  C_9
REMARK    3  A    between atoms: C_20  and  C_21
REMARK    4  A    between atoms: C_20  and  C_22
REMARK                            x       y       z     vdW  Elec       q    Type
REMARK                         _______ _______ _______ _____ _____    ______ ____
ROOT
ATOM      1  C   UNL     1       8.115   6.980  18.449  0.00  0.00    +0.000 C 
ATOM      2  C   UNL     1       7.069   6.522  17.472  0.00  0.00    +0.000 C 
ATOM      3  C   UNL     1       7.400   6.103  16.235  0.00  0.00    +0.000 C 
ATOM      4  C   UNL     1       6.387   5.631  15.234  0.00  0.00    +0.000 C 
ATOM      5  C   UNL     1       4.987   5.370  15.838  0.00  0.00    +0.000 C 
ATOM      6  C   UNL     1       4.676   6.608  16.683  0.00  0.00    +0.000 C 
ATOM      7  C   UNL     1       5.599   6.578  17.928  0.00  0.00    +0.000 C 
ATOM      8  C   UNL     1       5.198   5.357  18.833  0.00  0.00    +0.000 C 
ATOM      9  N   UNL     1       5.396   4.119  18.039  0.00  0.00    +0.000 NA
ATOM     10  C   UNL     1       4.824   4.052  16.684  0.00  0.00    +0.000 C 
ATOM     11  C   UNL     1       5.547   2.881  15.976  0.00  0.00    +0.000 C 
ATOM     12  C   UNL     1       3.340   3.620  16.789  0.00  0.00    +0.000 C 
ATOM     13  H   UNL     1       5.155   3.285  18.565  0.00  0.00    +0.000 HD
ENDROOT
BRANCH   8  14
ATOM     14  C   UNL     1       3.818   5.471  19.544  0.00  0.00    +0.000 A 
ATOM     15  C   UNL     1       3.113   6.691  19.529  0.00  0.00    +0.000 A 
ATOM     16  C   UNL     1       1.826   6.759  20.019  0.00  0.00    +0.000 A 
ATOM     17  N   UNL     1       1.191   5.720  20.579  0.00  0.00    +0.000 NA
ATOM     18  C   UNL     1       1.866   4.576  20.706  0.00  0.00    +0.000 A 
ATOM     19  C   UNL     1       1.191   3.535  21.331  0.00  0.00    +0.000 A 
ATOM     20  C   UNL     1       1.792   2.295  21.540  0.00  0.00    +0.000 A 
ATOM     21  C   UNL     1       3.103   2.101  21.145  0.00  0.00    +0.000 A 
ATOM     22  C   UNL     1       3.803   3.138  20.523  0.00  0.00    +0.000 A 
ATOM     23  C   UNL     1       3.196   4.390  20.245  0.00  0.00    +0.000 A 
ENDBRANCH   8  14
TORSDOF 1
ENDMDL
MODEL 9
REMARK VINA RESULT:      -6.6      1.589      5.545
REMARK  Name = 
REMARK  4 active torsions:
REMARK  status: ('A' for Active; 'I' for Inactive)
REMARK    1  A    between atoms: C_1  and  C_2
REMARK    2  A    between atoms: C_8  and  C_9
REMARK    3  A    between atoms: C_20  and  C_21
REMARK    4  A    between atoms: C_20  and  C_22
REMARK                            x       y       z     vdW  Elec       q    Type
REMARK                         _______ _______ _______ _____ _____    ______ ____
ROOT
ATOM      1  C   UNL     1       4.892   4.105  13.130  0.00  0.00    +0.000 C 
ATOM      2  C   UNL     1       5.758   4.277  14.346  0.00  0.00    +0.000 C 
ATOM      3  C   UNL     1       6.936   4.927  14.282  0.00  0.00    +0.000 C 
ATOM      4  C   UNL     1       7.824   5.127  15.475  0.00  0.00    +0.000 C 
ATOM      5  C   UNL     1       7.139   4.806  16.825  0.00  0.00    +0.000 C 
ATOM      6  C   UNL     1       6.463   3.449  16.620  0.00  0.00    +0.000 C 
ATOM      7  C   UNL     1       5.261   3.655  15.665  0.00  0.00    +0.000 C 
ATOM      8  C   UNL     1       4.181   4.543  16.385  0.00  0.00    +0.000 C 
ATOM      9  N   UNL     1       4.803   5.856  16.690  0.00  0.00    +0.000 NA
ATOM     10  C   UNL     1       6.114   5.875  17.360  0.00  0.00    +0.000 C 
ATOM     11  C   UNL     1       6.680   7.300  17.143  0.00  0.00    +0.000 C 
ATOM     12  C   UNL     1       5.896   5.743  18.888  0.00  0.00    +0.000 C 
ATOM     13  H   UNL     1       4.159   6.484  17.158  0.00  0.00    +0.000 HD
ENDROOT
BRANCH   8  14
ATOM     14  C   UNL     1       3.443   3.870  17.578  0.00  0.00    +0.000 A 
ATOM     15  C   UNL     1       3.388   2.465  17.674  0.00  0.00    +0.000 A 
ATOM     16  C   UNL     1       2.874   1.863  18.803  0.00  0.00    +0.000 A 
ATOM     17  N   UNL     1       2.353   2.544  19.833  0.00  0.00    +0.000 NA
ATOM     18  C   UNL     1       2.292   3.873  19.731  0.00  0.00    +0.000 A 
ATOM     19  C   UNL     1       1.706   4.541  20.799  0.00  0.00    +0.000 A 
ATOM     20  C   UNL     1       1.566   5.927  20.806  0.00  0.00    +0.000 A 
ATOM     21  C   UNL     1       1.991   6.657  19.711  0.00  0.00    +0.000 A 
ATOM     22  C   UNL     1       2.575   6.004  18.623  0.00  0.00    +0.000 A 
ATOM     23  C   UNL     1       2.783   4.601  18.616  0.00  0.00    +0.000 A 
ENDBRANCH   8  14
TORSDOF 1
ENDMDL
