MODEL 1
REMARK VINA RESULT:      -7.5      0.000      0.000
REMARK  Name = 
REMARK  7 active torsions:
REMARK  status: ('A' for Active; 'I' for Inactive)
REMARK    1  A    between atoms: N_1  and  C_2
REMARK    2  A    between atoms: C_2  and  N_4
REMARK    3  A    between atoms: N_4  and  N_5
REMARK    4  A    between atoms: C_10  and  C_11
REMARK    5  A    between atoms: C_11  and  O_12
REMARK    6  A    between atoms: C_11  and  C_13
REMARK    7  A    between atoms: C_11  and  C_17
REMARK                            x       y       z     vdW  Elec       q    Type
REMARK                         _______ _______ _______ _____ _____    ______ ____
ROOT
ATOM      1  N   UNL     1       4.497   4.836  16.927  0.00  0.00    +0.000 NA
ATOM      2  C   UNL     1       3.765   5.706  17.559  0.00  0.00    +0.000 C 
ATOM      3  C   UNL     1       3.906   7.209  17.522  0.00  0.00    +0.000 C 
ATOM      4  C   UNL     1       2.598   7.668  18.144  0.00  0.00    +0.000 C 
ATOM      5  C   UNL     1       2.230   6.569  19.131  0.00  0.00    +0.000 C 
ATOM      6  C   UNL     1       2.584   5.261  18.411  0.00  0.00    +0.000 C 
ENDROOT
BRANCH   1   7
ATOM      7  N   UNL     1       5.416   5.338  16.049  0.00  0.00    +0.000 N 
ATOM      8  H   UNL     1       5.127   5.671  15.135  0.00  0.00    +0.000 HD
BRANCH   7   9
ATOM      9  C   UNL     1       6.756   5.133  16.201  0.00  0.00    +0.000 C 
ATOM     10  S   UNL     1       7.415   4.737  17.672  0.00  0.00    +0.000 S 
BRANCH   9  11
ATOM     11  N   UNL     1       7.518   5.267  15.093  0.00  0.00    +0.000 N 
ATOM     12  H   UNL     1       7.530   6.159  14.616  0.00  0.00    +0.000 HD
ATOM     13  H   UNL     1       8.324   4.668  15.016  0.00  0.00    +0.000 HD
ENDBRANCH   9  11
ENDBRANCH   7   9
ENDBRANCH   1   7
BRANCH   6  14
ATOM     14  C   UNL     1       2.774   3.982  19.278  0.00  0.00    +0.000 C 
BRANCH  14  15
ATOM     15  C   UNL     1       1.963   4.018  20.598  0.00  0.00    +0.000 C 
ATOM     16  F   UNL     1       2.400   5.061  21.359  0.00  0.00    +0.000 F 
ATOM     17  F   UNL     1       0.653   4.275  20.364  0.00  0.00    +0.000 F 
ATOM     18 CL   UNL     1       2.080   2.563  21.616  0.00  0.00    +0.000 Cl
ENDBRANCH  14  15
BRANCH  14  19
ATOM     19  C   UNL     1       2.300   2.729  18.495  0.00  0.00    +0.000 C 
ATOM     20  F   UNL     1       1.171   2.200  19.022  0.00  0.00    +0.000 F 
ATOM     21  F   UNL     1       1.998   3.058  17.213  0.00  0.00    +0.000 F 
ATOM     22 CL   UNL     1       3.521   1.419  18.442  0.00  0.00    +0.000 Cl
ENDBRANCH  14  19
BRANCH  14  23
ATOM     23  O   UNL     1       4.207   3.878  19.557  0.00  0.00    +0.000 OA
ATOM     24  H   UNL     1       4.675   4.489  18.948  0.00  0.00    +0.000 HD
ENDBRANCH  14  23
ENDBRANCH   6  14
TORSDOF 7
ENDMDL
MODEL 2
REMARK VINA RESULT:      -7.4      3.876      5.327
REMARK  Name = 
REMARK  7 active torsions:
REMARK  status: ('A' for Active; 'I' for Inactive)
REMARK    1  A    between atoms: N_1  and  C_2
REMARK    2  A    between atoms: C_2  and  N_4
REMARK    3  A    between atoms: N_4  and  N_5
REMARK    4  A    between atoms: C_10  and  C_11
REMARK    5  A    between atoms: C_11  and  O_12
REMARK    6  A    between atoms: C_11  and  C_13
REMARK    7  A    between atoms: C_11  and  C_17
REMARK                            x       y       z     vdW  Elec       q    Type
REMARK                         _______ _______ _______ _____ _____    ______ ____
ROOT
ATOM      1  N   UNL     1       3.714   4.803  19.936  0.00  0.00    +0.000 NA
ATOM      2  C   UNL     1       3.696   5.733  19.027  0.00  0.00    +0.000 C 
ATOM      3  C   UNL     1       2.555   6.669  18.708  0.00  0.00    +0.000 C 
ATOM      4  C   UNL     1       3.234   7.717  17.842  0.00  0.00    +0.000 C 
ATOM      5  C   UNL     1       4.344   6.965  17.121  0.00  0.00    +0.000 C 
ATOM      6  C   UNL     1       4.928   6.019  18.179  0.00  0.00    +0.000 C 
ENDROOT
BRANCH   1   7
ATOM      7  N   UNL     1       2.629   4.743  20.765  0.00  0.00    +0.000 N 
ATOM      8  H   UNL     1       2.482   5.454  21.474  0.00  0.00    +0.000 HD
BRANCH   7   9
ATOM      9  C   UNL     1       1.887   3.608  20.911  0.00  0.00    +0.000 C 
ATOM     10  S   UNL     1       0.932   3.027  19.684  0.00  0.00    +0.000 S 
BRANCH   9  11
ATOM     11  N   UNL     1       1.970   2.980  22.106  0.00  0.00    +0.000 N 
ATOM     12  H   UNL     1       1.687   2.011  22.167  0.00  0.00    +0.000 HD
ATOM     13  H   UNL     1       2.657   3.324  22.757  0.00  0.00    +0.000 HD
ENDBRANCH   9  11
ENDBRANCH   7   9
ENDBRANCH   1   7
BRANCH   6  14
ATOM     14  C   UNL     1       5.750   4.793  17.683  0.00  0.00    +0.000 C 
BRANCH  14  15
ATOM     15  C   UNL     1       5.098   4.073  16.476  0.00  0.00    +0.000 C 
ATOM     16  F   UNL     1       4.962   4.960  15.450  0.00  0.00    +0.000 F 
ATOM     17  F   UNL     1       5.900   3.093  15.995  0.00  0.00    +0.000 F 
ATOM     18 CL   UNL     1       3.482   3.386  16.769  0.00  0.00    +0.000 Cl
ENDBRANCH  14  15
BRANCH  14  19
ATOM     19  C   UNL     1       7.162   5.246  17.224  0.00  0.00    +0.000 C 
ATOM     20  F   UNL     1       8.061   4.237  17.280  0.00  0.00    +0.000 F 
ATOM     21  F   UNL     1       7.132   5.650  15.929  0.00  0.00    +0.000 F 
ATOM     22 CL   UNL     1       7.825   6.598  18.195  0.00  0.00    +0.000 Cl
ENDBRANCH  14  19
BRANCH  14  23
ATOM     23  O   UNL     1       5.870   3.883  18.823  0.00  0.00    +0.000 OA
ATOM     24  H   UNL     1       5.013   3.892  19.303  0.00  0.00    +0.000 HD
ENDBRANCH  14  23
ENDBRANCH   6  14
TORSDOF 7
ENDMDL
MODEL 3
REMARK VINA RESULT:      -7.3      3.880      5.424
REMARK  Name = 
REMARK  7 active torsions:
REMARK  status: ('A' for Active; 'I' for Inactive)
REMARK    1  A    between atoms: N_1  and  C_2
REMARK    2  A    between atoms: C_2  and  N_4
REMARK    3  A    between atoms: N_4  and  N_5
REMARK    4  A    between atoms: C_10  and  C_11
REMARK    5  A    between atoms: C_11  and  O_12
REMARK    6  A    between atoms: C_11  and  C_13
REMARK    7  A    between atoms: C_11  and  C_17
REMARK                            x       y       z     vdW  Elec       q    Type
REMARK                         _______ _______ _______ _____ _____    ______ ____
ROOT
ATOM      1  N   UNL     1       3.670   4.680  19.839  0.00  0.00    +0.000 NA
ATOM      2  C   UNL     1       3.678   5.646  18.969  0.00  0.00    +0.000 C 
ATOM      3  C   UNL     1       2.543   6.590  18.651  0.00  0.00    +0.000 C 
ATOM      4  C   UNL     1       3.244   7.676  17.850  0.00  0.00    +0.000 C 
ATOM      5  C   UNL     1       4.382   6.958  17.137  0.00  0.00    +0.000 C 
ATOM      6  C   UNL     1       4.935   5.972  18.174  0.00  0.00    +0.000 C 
ENDROOT
BRANCH   1   7
ATOM      7  N   UNL     1       2.558   4.581  20.629  0.00  0.00    +0.000 N 
ATOM      8  H   UNL     1       2.359   5.289  21.328  0.00  0.00    +0.000 HD
BRANCH   7   9
ATOM      9  C   UNL     1       1.855   3.420  20.752  0.00  0.00    +0.000 C 
ATOM     10  S   UNL     1       1.001   2.778  19.481  0.00  0.00    +0.000 S 
BRANCH   9  11
ATOM     11  N   UNL     1       1.888   2.818  21.962  0.00  0.00    +0.000 N 
ATOM     12  H   UNL     1       1.194   3.074  22.652  0.00  0.00    +0.000 HD
ATOM     13  H   UNL     1       2.295   1.898  22.005  0.00  0.00    +0.000 HD
ENDBRANCH   9  11
ENDBRANCH   7   9
ENDBRANCH   1   7
BRANCH   6  14
ATOM     14  C   UNL     1       5.780   4.771  17.657  0.00  0.00    +0.000 C 
BRANCH  14  15
ATOM     15  C   UNL     1       5.265   4.203  16.311  0.00  0.00    +0.000 C 
ATOM     16  F   UNL     1       5.998   3.101  15.984  0.00  0.00    +0.000 F 
ATOM     17  F   UNL     1       3.989   3.760  16.419  0.00  0.00    +0.000 F 
ATOM     18 CL   UNL     1       5.363   5.307  14.918  0.00  0.00    +0.000 Cl
ENDBRANCH  14  15
BRANCH  14  19
ATOM     19  C   UNL     1       7.250   5.211  17.424  0.00  0.00    +0.000 C 
ATOM     20  F   UNL     1       8.114   4.178  17.548  0.00  0.00    +0.000 F 
ATOM     21  F   UNL     1       7.408   5.684  16.162  0.00  0.00    +0.000 F 
ATOM     22 CL   UNL     1       7.795   6.493  18.551  0.00  0.00    +0.000 Cl
ENDBRANCH  14  19
BRANCH  14  23
ATOM     23  O   UNL     1       5.731   3.746  18.700  0.00  0.00    +0.000 OA
ATOM     24  H   UNL     1       5.785   4.202  19.569  0.00  0.00    +0.000 HD
ENDBRANCH  14  23
ENDBRANCH   6  14
TORSDOF 7
ENDMDL
MODEL 4
REMARK VINA RESULT:      -7.1      0.860      1.053
REMARK  Name = 
REMARK  7 active torsions:
REMARK  status: ('A' for Active; 'I' for Inactive)
REMARK    1  A    between atoms: N_1  and  C_2
REMARK    2  A    between atoms: C_2  and  N_4
REMARK    3  A    between atoms: N_4  and  N_5
REMARK    4  A    between atoms: C_10  and  C_11
REMARK    5  A    between atoms: C_11  and  O_12
REMARK    6  A    between atoms: C_11  and  C_13
REMARK    7  A    between atoms: C_11  and  C_17
REMARK                            x       y       z     vdW  Elec       q    Type
REMARK                         _______ _______ _______ _____ _____    ______ ____
ROOT
ATOM      1  N   UNL     1       4.560   4.618  16.788  0.00  0.00    +0.000 NA
ATOM      2  C   UNL     1       3.881   5.527  17.422  0.00  0.00    +0.000 C 
ATOM      3  C   UNL     1       4.086   7.021  17.361  0.00  0.00    +0.000 C 
ATOM      4  C   UNL     1       2.812   7.546  18.004  0.00  0.00    +0.000 C 
ATOM      5  C   UNL     1       2.418   6.476  19.014  0.00  0.00    +0.000 C 
ATOM      6  C   UNL     1       2.700   5.145  18.305  0.00  0.00    +0.000 C 
ENDROOT
BRANCH   1   7
ATOM      7  N   UNL     1       5.481   5.068  15.883  0.00  0.00    +0.000 N 
ATOM      8  H   UNL     1       5.246   5.134  14.899  0.00  0.00    +0.000 HD
BRANCH   7   9
ATOM      9  C   UNL     1       6.812   5.141  16.175  0.00  0.00    +0.000 C 
ATOM     10  S   UNL     1       7.409   4.659  17.647  0.00  0.00    +0.000 S 
BRANCH   9  11
ATOM     11  N   UNL     1       7.618   5.627  15.205  0.00  0.00    +0.000 N 
ATOM     12  H   UNL     1       8.468   6.105  15.473  0.00  0.00    +0.000 HD
ATOM     13  H   UNL     1       7.584   5.167  14.310  0.00  0.00    +0.000 HD
ENDBRANCH   9  11
ENDBRANCH   7   9
ENDBRANCH   1   7
BRANCH   6  14
ATOM     14  C   UNL     1       2.853   3.870  19.186  0.00  0.00    +0.000 C 
BRANCH  14  15
ATOM     15  C   UNL     1       2.105   3.975  20.538  0.00  0.00    +0.000 C 
ATOM     16  F   UNL     1       2.674   4.962  21.285  0.00  0.00    +0.000 F 
ATOM     17  F   UNL     1       0.818   4.361  20.361  0.00  0.00    +0.000 F 
ATOM     18 CL   UNL     1       2.118   2.506  21.544  0.00  0.00    +0.000 Cl
ENDBRANCH  14  15
BRANCH  14  19
ATOM     19  C   UNL     1       2.272   2.636  18.447  0.00  0.00    +0.000 C 
ATOM     20  F   UNL     1       2.408   2.739  17.104  0.00  0.00    +0.000 F 
ATOM     21  F   UNL     1       2.941   1.511  18.806  0.00  0.00    +0.000 F 
ATOM     22 CL   UNL     1       0.534   2.359  18.781  0.00  0.00    +0.000 Cl
ENDBRANCH  14  19
BRANCH  14  23
ATOM     23  O   UNL     1       4.288   3.686  19.405  0.00  0.00    +0.000 OA
ATOM     24  H   UNL     1       4.417   2.798  19.805  0.00  0.00    +0.000 HD
ENDBRANCH  14  23
ENDBRANCH   6  14
TORSDOF 7
ENDMDL
MODEL 5
REMARK VINA RESULT:      -7.1      1.150      1.175
REMARK  Name = 
REMARK  7 active torsions:
REMARK  status: ('A' for Active; 'I' for Inactive)
REMARK    1  A    between atoms: N_1  and  C_2
REMARK    2  A    between atoms: C_2  and  N_4
REMARK    3  A    between atoms: N_4  and  N_5
REMARK    4  A    between atoms: C_10  and  C_11
REMARK    5  A    between atoms: C_11  and  O_12
REMARK    6  A    between atoms: C_11  and  C_13
REMARK    7  A    between atoms: C_11  and  C_17
REMARK                            x       y       z     vdW  Elec       q    Type
REMARK                         _______ _______ _______ _____ _____    ______ ____
ROOT
ATOM      1  N   UNL     1       5.401   4.089  17.409  0.00  0.00    +0.000 NA
ATOM      2  C   UNL     1       4.614   5.081  17.702  0.00  0.00    +0.000 C 
ATOM      3  C   UNL     1       4.928   6.554  17.585  0.00  0.00    +0.000 C 
ATOM      4  C   UNL     1       3.552   7.186  17.722  0.00  0.00    +0.000 C 
ATOM      5  C   UNL     1       2.779   6.240  18.630  0.00  0.00    +0.000 C 
ATOM      6  C   UNL     1       3.186   4.834  18.171  0.00  0.00    +0.000 C 
ENDROOT
BRANCH   1   7
ATOM      7  N   UNL     1       6.595   4.411  16.826  0.00  0.00    +0.000 N 
ATOM      8  H   UNL     1       7.377   4.723  17.393  0.00  0.00    +0.000 HD
BRANCH   7   9
ATOM      9  C   UNL     1       6.713   4.641  15.487  0.00  0.00    +0.000 C 
ATOM     10  S   UNL     1       5.770   3.842  14.379  0.00  0.00    +0.000 S 
BRANCH   9  11
ATOM     11  N   UNL     1       7.636   5.553  15.109  0.00  0.00    +0.000 N 
ATOM     12  H   UNL     1       8.601   5.261  15.022  0.00  0.00    +0.000 HD
ATOM     13  H   UNL     1       7.314   6.326  14.551  0.00  0.00    +0.000 HD
ENDBRANCH   9  11
ENDBRANCH   7   9
ENDBRANCH   1   7
BRANCH   6  14
ATOM     14  C   UNL     1       2.957   3.652  19.159  0.00  0.00    +0.000 C 
BRANCH  14  15
ATOM     15  C   UNL     1       1.835   3.932  20.189  0.00  0.00    +0.000 C 
ATOM     16  F   UNL     1       2.121   5.085  20.856  0.00  0.00    +0.000 F 
ATOM     17  F   UNL     1       0.649   4.163  19.575  0.00  0.00    +0.000 F 
ATOM     18 CL   UNL     1       1.592   2.676  21.427  0.00  0.00    +0.000 Cl
ENDBRANCH  14  15
BRANCH  14  19
ATOM     19  C   UNL     1       2.542   2.377  18.379  0.00  0.00    +0.000 C 
ATOM     20  F   UNL     1       1.377   1.860  18.835  0.00  0.00    +0.000 F 
ATOM     21  F   UNL     1       2.337   2.668  17.069  0.00  0.00    +0.000 F 
ATOM     22 CL   UNL     1       3.764   1.068  18.454  0.00  0.00    +0.000 Cl
ENDBRANCH  14  19
BRANCH  14  23
ATOM     23  O   UNL     1       4.233   3.423  19.837  0.00  0.00    +0.000 OA
ATOM     24  H   UNL     1       4.188   3.863  20.714  0.00  0.00    +0.000 HD
ENDBRANCH  14  23
ENDBRANCH   6  14
TORSDOF 7
ENDMDL
MODEL 6
REMARK VINA RESULT:      -7.0      1.853      2.088
REMARK  Name = 
REMARK  7 active torsions:
REMARK  status: ('A' for Active; 'I' for Inactive)
REMARK    1  A    between atoms: N_1  and  C_2
REMARK    2  A    between atoms: C_2  and  N_4
REMARK    3  A    between atoms: N_4  and  N_5
REMARK    4  A    between atoms: C_10  and  C_11
REMARK    5  A    between atoms: C_11  and  O_12
REMARK    6  A    between atoms: C_11  and  C_13
REMARK    7  A    between atoms: C_11  and  C_17
REMARK                            x       y       z     vdW  Elec       q    Type
REMARK                         _______ _______ _______ _____ _____    ______ ____
ROOT
ATOM      1  N   UNL     1       5.512   4.181  16.667  0.00  0.00    +0.000 NA
ATOM      2  C   UNL     1       4.838   5.217  17.071  0.00  0.00    +0.000 C 
ATOM      3  C   UNL     1       5.318   6.647  17.127  0.00  0.00    +0.000 C 
ATOM      4  C   UNL     1       4.020   7.413  17.331  0.00  0.00    +0.000 C 
ATOM      5  C   UNL     1       3.130   6.463  18.121  0.00  0.00    +0.000 C 
ATOM      6  C   UNL     1       3.384   5.081  17.503  0.00  0.00    +0.000 C 
ENDROOT
BRANCH   1   7
ATOM      7  N   UNL     1       6.745   4.430  16.131  0.00  0.00    +0.000 N 
ATOM      8  H   UNL     1       7.519   4.710  16.725  0.00  0.00    +0.000 HD
BRANCH   7   9
ATOM      9  C   UNL     1       6.931   4.630  14.795  0.00  0.00    +0.000 C 
ATOM     10  S   UNL     1       6.038   3.811  13.659  0.00  0.00    +0.000 S 
BRANCH   9  11
ATOM     11  N   UNL     1       7.878   5.528  14.443  0.00  0.00    +0.000 N 
ATOM     12  H   UNL     1       8.583   5.783  15.122  0.00  0.00    +0.000 HD
ATOM     13  H   UNL     1       8.104   5.594  13.464  0.00  0.00    +0.000 HD
ENDBRANCH   9  11
ENDBRANCH   7   9
ENDBRANCH   1   7
BRANCH   6  14
ATOM     14  C   UNL     1       3.005   3.828  18.345  0.00  0.00    +0.000 C 
BRANCH  14  15
ATOM     15  C   UNL     1       3.645   3.830  19.756  0.00  0.00    +0.000 C 
ATOM     16  F   UNL     1       4.966   3.513  19.644  0.00  0.00    +0.000 F 
ATOM     17  F   UNL     1       3.623   5.068  20.305  0.00  0.00    +0.000 F 
ATOM     18 CL   UNL     1       2.945   2.682  20.923  0.00  0.00    +0.000 Cl
ENDBRANCH  14  15
BRANCH  14  19
ATOM     19  C   UNL     1       1.469   3.765  18.550  0.00  0.00    +0.000 C 
ATOM     20  F   UNL     1       1.077   4.441  19.655  0.00  0.00    +0.000 F 
ATOM     21  F   UNL     1       0.827   4.348  17.505  0.00  0.00    +0.000 F 
ATOM     22 CL   UNL     1       0.839   2.095  18.703  0.00  0.00    +0.000 Cl
ENDBRANCH  14  19
BRANCH  14  23
ATOM     23  O   UNL     1       3.450   2.663  17.579  0.00  0.00    +0.000 OA
ATOM     24  H   UNL     1       4.364   2.448  17.868  0.00  0.00    +0.000 HD
ENDBRANCH  14  23
ENDBRANCH   6  14
TORSDOF 7
ENDMDL
MODEL 7
REMARK VINA RESULT:      -7.0      1.288      1.407
REMARK  Name = 
REMARK  7 active torsions:
REMARK  status: ('A' for Active; 'I' for Inactive)
REMARK    1  A    between atoms: N_1  and  C_2
REMARK    2  A    between atoms: C_2  and  N_4
REMARK    3  A    between atoms: N_4  and  N_5
REMARK    4  A    between atoms: C_10  and  C_11
REMARK    5  A    between atoms: C_11  and  O_12
REMARK    6  A    between atoms: C_11  and  C_13
REMARK    7  A    between atoms: C_11  and  C_17
REMARK                            x       y       z     vdW  Elec       q    Type
REMARK                         _______ _______ _______ _____ _____    ______ ____
ROOT
ATOM      1  N   UNL     1       4.660   4.819  16.743  0.00  0.00    +0.000 NA
ATOM      2  C   UNL     1       3.910   5.618  17.442  0.00  0.00    +0.000 C 
ATOM      3  C   UNL     1       3.977   7.126  17.479  0.00  0.00    +0.000 C 
ATOM      4  C   UNL     1       2.670   7.488  18.166  0.00  0.00    +0.000 C 
ATOM      5  C   UNL     1       2.390   6.323  19.105  0.00  0.00    +0.000 C 
ATOM      6  C   UNL     1       2.781   5.072  18.306  0.00  0.00    +0.000 C 
ENDROOT
BRANCH   1   7
ATOM      7  N   UNL     1       5.524   5.411  15.863  0.00  0.00    +0.000 N 
ATOM      8  H   UNL     1       5.314   6.322  15.469  0.00  0.00    +0.000 HD
BRANCH   7   9
ATOM      9  C   UNL     1       6.512   4.712  15.233  0.00  0.00    +0.000 C 
ATOM     10  S   UNL     1       6.262   3.981  13.764  0.00  0.00    +0.000 S 
BRANCH   9  11
ATOM     11  N   UNL     1       7.704   4.647  15.867  0.00  0.00    +0.000 N 
ATOM     12  H   UNL     1       8.372   5.394  15.726  0.00  0.00    +0.000 HD
ATOM     13  H   UNL     1       7.737   4.126  16.728  0.00  0.00    +0.000 HD
ENDBRANCH   9  11
ENDBRANCH   7   9
ENDBRANCH   1   7
BRANCH   6  14
ATOM     14  C   UNL     1       3.062   3.762  19.099  0.00  0.00    +0.000 C 
BRANCH  14  15
ATOM     15  C   UNL     1       2.314   3.701  20.454  0.00  0.00    +0.000 C 
ATOM     16  F   UNL     1       2.503   2.472  21.011  0.00  0.00    +0.000 F 
ATOM     17  F   UNL     1       2.838   4.578  21.346  0.00  0.00    +0.000 F 
ATOM     18 CL   UNL     1       0.554   3.959  20.378  0.00  0.00    +0.000 Cl
ENDBRANCH  14  15
BRANCH  14  19
ATOM     19  C   UNL     1       2.601   2.530  18.277  0.00  0.00    +0.000 C 
ATOM     20  F   UNL     1       1.411   2.050  18.707  0.00  0.00    +0.000 F 
ATOM     21  F   UNL     1       2.420   2.870  16.975  0.00  0.00    +0.000 F 
ATOM     22 CL   UNL     1       3.765   1.169  18.321  0.00  0.00    +0.000 Cl
ENDBRANCH  14  19
BRANCH  14  23
ATOM     23  O   UNL     1       4.510   3.704  19.307  0.00  0.00    +0.000 OA
ATOM     24  H   UNL     1       4.694   4.027  20.216  0.00  0.00    +0.000 HD
ENDBRANCH  14  23
ENDBRANCH   6  14
TORSDOF 7
ENDMDL
MODEL 8
REMARK VINA RESULT:      -6.9      3.655      5.203
REMARK  Name = 
REMARK  7 active torsions:
REMARK  status: ('A' for Active; 'I' for Inactive)
REMARK    1  A    between atoms: N_1  and  C_2
REMARK    2  A    between atoms: C_2  and  N_4
REMARK    3  A    between atoms: N_4  and  N_5
REMARK    4  A    between atoms: C_10  and  C_11
REMARK    5  A    between atoms: C_11  and  O_12
REMARK    6  A    between atoms: C_11  and  C_13
REMARK    7  A    between atoms: C_11  and  C_17
REMARK                            x       y       z     vdW  Elec       q    Type
REMARK                         _______ _______ _______ _____ _____    ______ ____
ROOT
ATOM      1  N   UNL     1       3.677   4.942  19.926  0.00  0.00    +0.000 NA
ATOM      2  C   UNL     1       3.735   5.806  18.956  0.00  0.00    +0.000 C 
ATOM      3  C   UNL     1       2.653   6.771  18.534  0.00  0.00    +0.000 C 
ATOM      4  C   UNL     1       3.411   7.723  17.623  0.00  0.00    +0.000 C 
ATOM      5  C   UNL     1       4.505   6.871  16.995  0.00  0.00    +0.000 C 
ATOM      6  C   UNL     1       5.007   5.973  18.135  0.00  0.00    +0.000 C 
ENDROOT
BRANCH   1   7
ATOM      7  N   UNL     1       2.564   4.991  20.719  0.00  0.00    +0.000 N 
ATOM      8  H   UNL     1       2.457   5.725  21.411  0.00  0.00    +0.000 HD
BRANCH   7   9
ATOM      9  C   UNL     1       1.721   3.928  20.856  0.00  0.00    +0.000 C 
ATOM     10  S   UNL     1       2.134   2.599  21.763  0.00  0.00    +0.000 S 
BRANCH   9  11
ATOM     11  N   UNL     1       0.533   4.010  20.216  0.00  0.00    +0.000 N 
ATOM     12  H   UNL     1       0.238   4.907  19.852  0.00  0.00    +0.000 HD
ATOM     13  H   UNL     1       0.194   3.174  19.771  0.00  0.00    +0.000 HD
ENDBRANCH   9  11
ENDBRANCH   7   9
ENDBRANCH   1   7
BRANCH   6  14
ATOM     14  C   UNL     1       5.782   4.679  17.753  0.00  0.00    +0.000 C 
BRANCH  14  15
ATOM     15  C   UNL     1       5.002   3.773  16.767  0.00  0.00    +0.000 C 
ATOM     16  F   UNL     1       4.294   4.559  15.908  0.00  0.00    +0.000 F 
ATOM     17  F   UNL     1       5.845   3.058  15.982  0.00  0.00    +0.000 F 
ATOM     18 CL   UNL     1       3.835   2.651  17.508  0.00  0.00    +0.000 Cl
ENDBRANCH  14  15
BRANCH  14  19
ATOM     19  C   UNL     1       7.123   5.042  17.061  0.00  0.00    +0.000 C 
ATOM     20  F   UNL     1       7.618   6.221  17.505  0.00  0.00    +0.000 F 
ATOM     21  F   UNL     1       8.068   4.109  17.340  0.00  0.00    +0.000 F 
ATOM     22 CL   UNL     1       6.994   5.162  15.278  0.00  0.00    +0.000 Cl
ENDBRANCH  14  19
BRANCH  14  23
ATOM     23  O   UNL     1       6.048   3.968  19.004  0.00  0.00    +0.000 OA
ATOM     24  H   UNL     1       5.425   3.211  19.056  0.00  0.00    +0.000 HD
ENDBRANCH  14  23
ENDBRANCH   6  14
TORSDOF 7
ENDMDL
MODEL 9
REMARK VINA RESULT:      -6.8      4.077      5.536
REMARK  Name = 
REMARK  7 active torsions:
REMARK  status: ('A' for Active; 'I' for Inactive)
REMARK    1  A    between atoms: N_1  and  C_2
REMARK    2  A    between atoms: C_2  and  N_4
REMARK    3  A    between atoms: N_4  and  N_5
REMARK    4  A    between atoms: C_10  and  C_11
REMARK    5  A    between atoms: C_11  and  O_12
REMARK    6  A    between atoms: C_11  and  C_13
REMARK    7  A    between atoms: C_11  and  C_17
REMARK                            x       y       z     vdW  Elec       q    Type
REMARK                         _______ _______ _______ _____ _____    ______ ____
ROOT
ATOM      1  N   UNL     1       3.039   3.819  17.831  0.00  0.00    +0.000 NA
ATOM      2  C   UNL     1       3.262   5.099  17.801  0.00  0.00    +0.000 C 
ATOM      3  C   UNL     1       2.228   6.200  17.775  0.00  0.00    +0.000 C 
ATOM      4  C   UNL     1       3.062   7.429  18.099  0.00  0.00    +0.000 C 
ATOM      5  C   UNL     1       4.439   7.127  17.525  0.00  0.00    +0.000 C 
ATOM      6  C   UNL     1       4.683   5.646  17.848  0.00  0.00    +0.000 C 
ENDROOT
BRANCH   1   7
ATOM      7  N   UNL     1       1.736   3.431  17.968  0.00  0.00    +0.000 N 
ATOM      8  H   UNL     1       1.010   3.854  17.399  0.00  0.00    +0.000 HD
BRANCH   7   9
ATOM      9  C   UNL     1       1.296   2.725  19.050  0.00  0.00    +0.000 C 
ATOM     10  S   UNL     1       1.079   3.444  20.530  0.00  0.00    +0.000 S 
BRANCH   9  11
ATOM     11  N   UNL     1       1.047   1.411  18.854  0.00  0.00    +0.000 N 
ATOM     12  H   UNL     1       1.789   0.822  18.500  0.00  0.00    +0.000 HD
ATOM     13  H   UNL     1       0.327   0.993  19.420  0.00  0.00    +0.000 HD
ENDBRANCH   9  11
ENDBRANCH   7   9
ENDBRANCH   1   7
BRANCH   6  14
ATOM     14  C   UNL     1       5.763   4.890  17.021  0.00  0.00    +0.000 C 
BRANCH  14  15
ATOM     15  C   UNL     1       5.649   5.144  15.497  0.00  0.00    +0.000 C 
ATOM     16  F   UNL     1       4.661   4.355  14.989  0.00  0.00    +0.000 F 
ATOM     17  F   UNL     1       5.256   6.415  15.238  0.00  0.00    +0.000 F 
ATOM     18 CL   UNL     1       7.113   4.802  14.545  0.00  0.00    +0.000 Cl
ENDBRANCH  14  15
BRANCH  14  19
ATOM     19  C   UNL     1       7.182   5.352  17.447  0.00  0.00    +0.000 C 
ATOM     20  F   UNL     1       8.117   4.403  17.208  0.00  0.00    +0.000 F 
ATOM     21  F   UNL     1       7.561   6.440  16.730  0.00  0.00    +0.000 F 
ATOM     22 CL   UNL     1       7.299   5.783  19.182  0.00  0.00    +0.000 Cl
ENDBRANCH  14  19
BRANCH  14  23
ATOM     23  O   UNL     1       5.596   3.467  17.320  0.00  0.00    +0.000 OA
ATOM     24  H   UNL     1       6.468   3.119  17.608  0.00  0.00    +0.000 HD
ENDBRANCH  14  23
ENDBRANCH   6  14
TORSDOF 7
ENDMDL
