MODEL 1
REMARK VINA RESULT:      -8.5      0.000      0.000
REMARK  Name = 
REMARK  7 active torsions:
REMARK  status: ('A' for Active; 'I' for Inactive)
REMARK    1  A    between atoms: C_1  and  C_2
REMARK    2  A    between atoms: C_5  and  S_6
REMARK    3  A    between atoms: S_6  and  C_9
REMARK    4  A    between atoms: C_9  and  C_10
REMARK    5  A    between atoms: N_12  and  C_13
REMARK    6  A    between atoms: C_16  and  S_17
REMARK    7  A    between atoms: S_17  and  N_20
REMARK                            x       y       z     vdW  Elec       q    Type
REMARK                         _______ _______ _______ _____ _____    ______ ____
ROOT
ATOM      1  C   UNL     1       0.525   9.878  19.804  0.00  0.00    +0.000 A 
ATOM      2  C   UNL     1       0.951   8.882  20.689  0.00  0.00    +0.000 A 
ATOM      3  C   UNL     1       1.784   7.848  20.257  0.00  0.00    +0.000 A 
ATOM      4  C   UNL     1       2.193   7.802  18.925  0.00  0.00    +0.000 A 
ATOM      5  C   UNL     1       1.800   8.802  18.032  0.00  0.00    +0.000 A 
ATOM      6  C   UNL     1       0.950   9.827  18.470  0.00  0.00    +0.000 A 
ENDROOT
BRANCH   1   9
ATOM      7  C   UNL     1       0.034  12.085  20.866  0.00  0.00    +0.000 C 
ATOM      8  O   UNL     1       1.189  12.450  21.071  0.00  0.00    +0.000 OA
ATOM      9  N   UNL     1      -0.341  10.927  20.195  0.00  0.00    +0.000 N 
ATOM     10  H   UNL     1      -1.316  10.814  19.940  0.00  0.00    +0.000 HD
BRANCH   7  11
ATOM     11  C   UNL     1      -1.099  12.948  21.323  0.00  0.00    +0.000 C 
BRANCH  11  12
ATOM     12  S   UNL     1      -1.441  12.638  23.021  0.00  0.00    +0.000 S 
ATOM     13  O   UNL     1      -0.841  13.706  23.800  0.00  0.00    +0.000 OA
ATOM     14  O   UNL     1      -1.053  11.262  23.283  0.00  0.00    +0.000 OA
BRANCH  12  19
ATOM     15  C   UNL     1      -7.484  12.705  23.677  0.00  0.00    +0.000 C 
ATOM     16  C   UNL     1      -5.992  12.718  23.515  0.00  0.00    +0.000 A 
ATOM     17  C   UNL     1      -5.407  13.011  22.277  0.00  0.00    +0.000 A 
ATOM     18  C   UNL     1      -4.017  13.013  22.131  0.00  0.00    +0.000 A 
ATOM     19  C   UNL     1      -3.205  12.726  23.231  0.00  0.00    +0.000 A 
ATOM     20  C   UNL     1      -3.776  12.414  24.468  0.00  0.00    +0.000 A 
ATOM     21  C   UNL     1      -5.166  12.420  24.608  0.00  0.00    +0.000 A 
ENDBRANCH  12  19
ENDBRANCH  11  12
ENDBRANCH   7  11
ENDBRANCH   1   9
BRANCH   4  22
ATOM     22  S   UNL     1       3.264   6.480  18.396  0.00  0.00    +0.000 S 
ATOM     23  O   UNL     1       4.040   6.950  17.268  0.00  0.00    +0.000 OA
ATOM     24  O   UNL     1       3.916   5.964  19.582  0.00  0.00    +0.000 OA
BRANCH  22  25
ATOM     25  N   UNL     1       2.189   5.281  17.889  0.00  0.00    +0.000 N 
ATOM     26  C   UNL     1       1.994   4.220  18.793  0.00  0.00    +0.000 A 
ATOM     27  C   UNL     1       1.128   4.314  19.867  0.00  0.00    +0.000 A 
ATOM     28  C   UNL     1       0.999   3.202  20.693  0.00  0.00    +0.000 A 
ATOM     29  C   UNL     1       1.756   2.065  20.425  0.00  0.00    +0.000 A 
ATOM     30  C   UNL     1       2.613   2.087  19.335  0.00  0.00    +0.000 A 
ATOM     31  N   UNL     1       2.744   3.144  18.502  0.00  0.00    +0.000 NA
ATOM     32  H   UNL     1       2.489   4.909  16.991  0.00  0.00    +0.000 HD
ENDBRANCH  22  25
ENDBRANCH   4  22
TORSDOF 6
ENDMDL
MODEL 2
REMARK VINA RESULT:      -8.4      3.330      9.778
REMARK  Name = 
REMARK  7 active torsions:
REMARK  status: ('A' for Active; 'I' for Inactive)
REMARK    1  A    between atoms: C_1  and  C_2
REMARK    2  A    between atoms: C_5  and  S_6
REMARK    3  A    between atoms: S_6  and  C_9
REMARK    4  A    between atoms: C_9  and  C_10
REMARK    5  A    between atoms: N_12  and  C_13
REMARK    6  A    between atoms: C_16  and  S_17
REMARK    7  A    between atoms: S_17  and  N_20
REMARK                            x       y       z     vdW  Elec       q    Type
REMARK                         _______ _______ _______ _____ _____    ______ ____
ROOT
ATOM      1  C   UNL     1       2.022   7.178  19.766  0.00  0.00    +0.000 A 
ATOM      2  C   UNL     1       1.450   7.690  20.937  0.00  0.00    +0.000 A 
ATOM      3  C   UNL     1       0.931   8.986  20.973  0.00  0.00    +0.000 A 
ATOM      4  C   UNL     1       0.987   9.784  19.831  0.00  0.00    +0.000 A 
ATOM      5  C   UNL     1       1.530   9.282  18.646  0.00  0.00    +0.000 A 
ATOM      6  C   UNL     1       2.065   7.987  18.623  0.00  0.00    +0.000 A 
ENDROOT
BRANCH   1   9
ATOM      7  C   UNL     1       1.956   4.701  20.073  0.00  0.00    +0.000 C 
ATOM      8  O   UNL     1       0.768   4.585  20.365  0.00  0.00    +0.000 OA
ATOM      9  N   UNL     1       2.583   5.881  19.695  0.00  0.00    +0.000 N 
ATOM     10  H   UNL     1       3.523   5.827  19.317  0.00  0.00    +0.000 HD
BRANCH   7  11
ATOM     11  C   UNL     1       2.831   3.488  20.070  0.00  0.00    +0.000 C 
BRANCH  11  12
ATOM     12  S   UNL     1       3.430   3.185  18.443  0.00  0.00    +0.000 S 
ATOM     13  O   UNL     1       2.340   3.425  17.514  0.00  0.00    +0.000 OA
ATOM     14  O   UNL     1       4.069   1.879  18.468  0.00  0.00    +0.000 OA
BRANCH  12  19
ATOM     15  C   UNL     1       7.662   7.431  17.438  0.00  0.00    +0.000 C 
ATOM     16  C   UNL     1       6.630   6.365  17.666  0.00  0.00    +0.000 A 
ATOM     17  C   UNL     1       5.606   6.146  16.737  0.00  0.00    +0.000 A 
ATOM     18  C   UNL     1       4.644   5.158  16.960  0.00  0.00    +0.000 A 
ATOM     19  C   UNL     1       4.707   4.378  18.117  0.00  0.00    +0.000 A 
ATOM     20  C   UNL     1       5.713   4.598  19.063  0.00  0.00    +0.000 A 
ATOM     21  C   UNL     1       6.676   5.584  18.830  0.00  0.00    +0.000 A 
ENDBRANCH  12  19
ENDBRANCH  11  12
ENDBRANCH   7  11
ENDBRANCH   1   9
BRANCH   4  22
ATOM     22  S   UNL     1       0.310  11.431  19.895  0.00  0.00    +0.000 S 
ATOM     23  O   UNL     1      -0.765  11.442  20.865  0.00  0.00    +0.000 OA
ATOM     24  O   UNL     1       1.429  12.344  20.017  0.00  0.00    +0.000 OA
BRANCH  22  25
ATOM     25  N   UNL     1      -0.318  11.659  18.344  0.00  0.00    +0.000 N 
ATOM     26  C   UNL     1      -1.664  11.284  18.175  0.00  0.00    +0.000 A 
ATOM     27  C   UNL     1      -2.713  12.107  18.544  0.00  0.00    +0.000 A 
ATOM     28  C   UNL     1      -4.006  11.647  18.320  0.00  0.00    +0.000 A 
ATOM     29  C   UNL     1      -4.191  10.382  17.767  0.00  0.00    +0.000 A 
ATOM     30  C   UNL     1      -3.069   9.630  17.456  0.00  0.00    +0.000 A 
ATOM     31  N   UNL     1      -1.800  10.059  17.641  0.00  0.00    +0.000 NA
ATOM     32  H   UNL     1       0.258  11.167  17.666  0.00  0.00    +0.000 HD
ENDBRANCH  22  25
ENDBRANCH   4  22
TORSDOF 6
ENDMDL
MODEL 3
REMARK VINA RESULT:      -8.4      0.790      1.197
REMARK  Name = 
REMARK  7 active torsions:
REMARK  status: ('A' for Active; 'I' for Inactive)
REMARK    1  A    between atoms: C_1  and  C_2
REMARK    2  A    between atoms: C_5  and  S_6
REMARK    3  A    between atoms: S_6  and  C_9
REMARK    4  A    between atoms: C_9  and  C_10
REMARK    5  A    between atoms: N_12  and  C_13
REMARK    6  A    between atoms: C_16  and  S_17
REMARK    7  A    between atoms: S_17  and  N_20
REMARK                            x       y       z     vdW  Elec       q    Type
REMARK                         _______ _______ _______ _____ _____    ______ ____
ROOT
ATOM      1  C   UNL     1       0.889   9.306  19.397  0.00  0.00    +0.000 A 
ATOM      2  C   UNL     1       1.530   9.316  18.153  0.00  0.00    +0.000 A 
ATOM      3  C   UNL     1       2.495   8.358  17.836  0.00  0.00    +0.000 A 
ATOM      4  C   UNL     1       2.830   7.380  18.773  0.00  0.00    +0.000 A 
ATOM      5  C   UNL     1       2.182   7.337  20.010  0.00  0.00    +0.000 A 
ATOM      6  C   UNL     1       1.227   8.313  20.326  0.00  0.00    +0.000 A 
ENDROOT
BRANCH   1   9
ATOM      7  C   UNL     1       0.134  11.340  20.633  0.00  0.00    +0.000 C 
ATOM      8  O   UNL     1       1.223  11.700  21.074  0.00  0.00    +0.000 OA
ATOM      9  N   UNL     1      -0.074  10.275  19.767  0.00  0.00    +0.000 N 
ATOM     10  H   UNL     1      -0.988  10.174  19.339  0.00  0.00    +0.000 HD
BRANCH   7  11
ATOM     11  C   UNL     1      -1.095  12.110  20.999  0.00  0.00    +0.000 C 
BRANCH  11  12
ATOM     12  S   UNL     1      -1.265  12.171  22.750  0.00  0.00    +0.000 S 
ATOM     13  O   UNL     1      -0.487  13.297  23.235  0.00  0.00    +0.000 OA
ATOM     14  O   UNL     1      -0.972  10.837  23.247  0.00  0.00    +0.000 OA
BRANCH  12  19
ATOM     15  C   UNL     1      -7.169  13.027  23.914  0.00  0.00    +0.000 C 
ATOM     16  C   UNL     1      -5.708  12.845  23.626  0.00  0.00    +0.000 A 
ATOM     17  C   UNL     1      -5.203  13.028  22.333  0.00  0.00    +0.000 A 
ATOM     18  C   UNL     1      -3.843  12.848  22.069  0.00  0.00    +0.000 A 
ATOM     19  C   UNL     1      -2.978  12.489  23.106  0.00  0.00    +0.000 A 
ATOM     20  C   UNL     1      -3.471  12.285  24.398  0.00  0.00    +0.000 A 
ATOM     21  C   UNL     1      -4.831  12.473  24.655  0.00  0.00    +0.000 A 
ENDBRANCH  12  19
ENDBRANCH  11  12
ENDBRANCH   7  11
ENDBRANCH   1   9
BRANCH   4  22
ATOM     22  S   UNL     1       4.056   6.160  18.346  0.00  0.00    +0.000 S 
ATOM     23  O   UNL     1       5.094   6.811  17.576  0.00  0.00    +0.000 OA
ATOM     24  O   UNL     1       4.376   5.439  19.562  0.00  0.00    +0.000 OA
BRANCH  22  25
ATOM     25  N   UNL     1       3.210   5.078  17.364  0.00  0.00    +0.000 N 
ATOM     26  C   UNL     1       2.646   3.972  18.027  0.00  0.00    +0.000 A 
ATOM     27  C   UNL     1       1.441   4.050  18.701  0.00  0.00    +0.000 A 
ATOM     28  C   UNL     1       0.965   2.895  19.311  0.00  0.00    +0.000 A 
ATOM     29  C   UNL     1       1.723   1.729  19.244  0.00  0.00    +0.000 A 
ATOM     30  C   UNL     1       2.931   1.768  18.563  0.00  0.00    +0.000 A 
ATOM     31  N   UNL     1       3.408   2.869  17.942  0.00  0.00    +0.000 NA
ATOM     32  H   UNL     1       3.816   4.750  16.615  0.00  0.00    +0.000 HD
ENDBRANCH  22  25
ENDBRANCH   4  22
TORSDOF 6
ENDMDL
MODEL 4
REMARK VINA RESULT:      -8.4      2.316      3.065
REMARK  Name = 
REMARK  7 active torsions:
REMARK  status: ('A' for Active; 'I' for Inactive)
REMARK    1  A    between atoms: C_1  and  C_2
REMARK    2  A    between atoms: C_5  and  S_6
REMARK    3  A    between atoms: S_6  and  C_9
REMARK    4  A    between atoms: C_9  and  C_10
REMARK    5  A    between atoms: N_12  and  C_13
REMARK    6  A    between atoms: C_16  and  S_17
REMARK    7  A    between atoms: S_17  and  N_20
REMARK                            x       y       z     vdW  Elec       q    Type
REMARK                         _______ _______ _______ _____ _____    ______ ____
ROOT
ATOM      1  C   UNL     1       0.700  10.091  19.753  0.00  0.00    +0.000 A 
ATOM      2  C   UNL     1       1.195   9.920  18.455  0.00  0.00    +0.000 A 
ATOM      3  C   UNL     1       1.892   8.764  18.100  0.00  0.00    +0.000 A 
ATOM      4  C   UNL     1       2.105   7.766  19.051  0.00  0.00    +0.000 A 
ATOM      5  C   UNL     1       1.596   7.906  20.344  0.00  0.00    +0.000 A 
ATOM      6  C   UNL     1       0.913   9.078  20.698  0.00  0.00    +0.000 A 
ENDROOT
BRANCH   1   9
ATOM      7  C   UNL     1       0.566  12.329  20.853  0.00  0.00    +0.000 C 
ATOM      8  O   UNL     1       1.764  12.499  21.066  0.00  0.00    +0.000 OA
ATOM      9  N   UNL     1       0.013  11.259  20.161  0.00  0.00    +0.000 N 
ATOM     10  H   UNL     1      -0.966  11.308  19.902  0.00  0.00    +0.000 HD
BRANCH   7  11
ATOM     11  C   UNL     1      -0.415  13.355  21.323  0.00  0.00    +0.000 C 
BRANCH  11  12
ATOM     12  S   UNL     1      -1.096  12.869  22.871  0.00  0.00    +0.000 S 
ATOM     13  O   UNL     1      -0.793  13.908  23.839  0.00  0.00    +0.000 OA
ATOM     14  O   UNL     1      -0.642  11.510  23.121  0.00  0.00    +0.000 OA
BRANCH  12  19
ATOM     15  C   UNL     1      -7.136  12.857  22.185  0.00  0.00    +0.000 C 
ATOM     16  C   UNL     1      -5.646  12.832  22.363  0.00  0.00    +0.000 A 
ATOM     17  C   UNL     1      -5.074  12.908  23.639  0.00  0.00    +0.000 A 
ATOM     18  C   UNL     1      -3.686  12.892  23.798  0.00  0.00    +0.000 A 
ATOM     19  C   UNL     1      -2.862  12.795  22.674  0.00  0.00    +0.000 A 
ATOM     20  C   UNL     1      -3.418  12.737  21.393  0.00  0.00    +0.000 A 
ATOM     21  C   UNL     1      -4.807  12.747  21.243  0.00  0.00    +0.000 A 
ENDBRANCH  12  19
ENDBRANCH  11  12
ENDBRANCH   7  11
ENDBRANCH   1   9
BRANCH   4  22
ATOM     22  S   UNL     1       2.987   6.294  18.575  0.00  0.00    +0.000 S 
ATOM     23  O   UNL     1       3.765   5.845  19.710  0.00  0.00    +0.000 OA
ATOM     24  O   UNL     1       2.028   5.414  17.938  0.00  0.00    +0.000 OA
BRANCH  22  25
ATOM     25  N   UNL     1       4.020   6.831  17.352  0.00  0.00    +0.000 N 
ATOM     26  C   UNL     1       5.109   5.987  17.064  0.00  0.00    +0.000 A 
ATOM     27  C   UNL     1       4.988   4.875  16.250  0.00  0.00    +0.000 A 
ATOM     28  C   UNL     1       6.130   4.116  16.019  0.00  0.00    +0.000 A 
ATOM     29  C   UNL     1       7.326   4.484  16.630  0.00  0.00    +0.000 A 
ATOM     30  C   UNL     1       7.330   5.604  17.448  0.00  0.00    +0.000 A 
ATOM     31  N   UNL     1       6.242   6.374  17.673  0.00  0.00    +0.000 NA
ATOM     32  H   UNL     1       4.364   7.761  17.578  0.00  0.00    +0.000 HD
ENDBRANCH  22  25
ENDBRANCH   4  22
TORSDOF 6
ENDMDL
MODEL 5
REMARK VINA RESULT:      -8.3      3.731      9.812
REMARK  Name = 
REMARK  7 active torsions:
REMARK  status: ('A' for Active; 'I' for Inactive)
REMARK    1  A    between atoms: C_1  and  C_2
REMARK    2  A    between atoms: C_5  and  S_6
REMARK    3  A    between atoms: S_6  and  C_9
REMARK    4  A    between atoms: C_9  and  C_10
REMARK    5  A    between atoms: N_12  and  C_13
REMARK    6  A    between atoms: C_16  and  S_17
REMARK    7  A    between atoms: S_17  and  N_20
REMARK                            x       y       z     vdW  Elec       q    Type
REMARK                         _______ _______ _______ _____ _____    ______ ____
ROOT
ATOM      1  C   UNL     1       2.093   6.739  20.260  0.00  0.00    +0.000 A 
ATOM      2  C   UNL     1       1.285   7.422  21.176  0.00  0.00    +0.000 A 
ATOM      3  C   UNL     1       0.810   8.705  20.896  0.00  0.00    +0.000 A 
ATOM      4  C   UNL     1       1.149   9.318  19.691  0.00  0.00    +0.000 A 
ATOM      5  C   UNL     1       1.933   8.643  18.752  0.00  0.00    +0.000 A 
ATOM      6  C   UNL     1       2.420   7.363  19.048  0.00  0.00    +0.000 A 
ENDROOT
BRANCH   1   9
ATOM      7  C   UNL     1       2.065   4.248  20.091  0.00  0.00    +0.000 C 
ATOM      8  O   UNL     1       1.140   4.129  19.291  0.00  0.00    +0.000 OA
ATOM      9  N   UNL     1       2.617   5.450  20.516  0.00  0.00    +0.000 N 
ATOM     10  H   UNL     1       3.481   5.422  21.046  0.00  0.00    +0.000 HD
BRANCH   7  11
ATOM     11  C   UNL     1       2.712   3.021  20.650  0.00  0.00    +0.000 C 
BRANCH  11  12
ATOM     12  S   UNL     1       3.943   2.432  19.538  0.00  0.00    +0.000 S 
ATOM     13  O   UNL     1       3.278   1.651  18.510  0.00  0.00    +0.000 OA
ATOM     14  O   UNL     1       4.977   1.809  20.348  0.00  0.00    +0.000 OA
BRANCH  12  19
ATOM     15  C   UNL     1       6.632   7.141  16.792  0.00  0.00    +0.000 C 
ATOM     16  C   UNL     1       5.953   5.998  17.487  0.00  0.00    +0.000 A 
ATOM     17  C   UNL     1       6.340   5.607  18.775  0.00  0.00    +0.000 A 
ATOM     18  C   UNL     1       5.710   4.536  19.412  0.00  0.00    +0.000 A 
ATOM     19  C   UNL     1       4.680   3.852  18.762  0.00  0.00    +0.000 A 
ATOM     20  C   UNL     1       4.295   4.219  17.469  0.00  0.00    +0.000 A 
ATOM     21  C   UNL     1       4.926   5.295  16.840  0.00  0.00    +0.000 A 
ENDBRANCH  12  19
ENDBRANCH  11  12
ENDBRANCH   7  11
ENDBRANCH   1   9
BRANCH   4  22
ATOM     22  S   UNL     1       0.525  10.951  19.348  0.00  0.00    +0.000 S 
ATOM     23  O   UNL     1      -0.491  11.264  20.330  0.00  0.00    +0.000 OA
ATOM     24  O   UNL     1       1.675  11.815  19.170  0.00  0.00    +0.000 OA
BRANCH  22  25
ATOM     25  N   UNL     1      -0.185  10.790  17.825  0.00  0.00    +0.000 N 
ATOM     26  C   UNL     1      -1.592  10.774  17.810  0.00  0.00    +0.000 A 
ATOM     27  C   UNL     1      -2.345  11.933  17.859  0.00  0.00    +0.000 A 
ATOM     28  C   UNL     1      -3.730  11.807  17.825  0.00  0.00    +0.000 A 
ATOM     29  C   UNL     1      -4.295  10.536  17.773  0.00  0.00    +0.000 A 
ATOM     30  C   UNL     1      -3.447   9.439  17.753  0.00  0.00    +0.000 A 
ATOM     31  N   UNL     1      -2.099   9.531  17.763  0.00  0.00    +0.000 NA
ATOM     32  H   UNL     1       0.167   9.951  17.370  0.00  0.00    +0.000 HD
ENDBRANCH  22  25
ENDBRANCH   4  22
TORSDOF 6
ENDMDL
MODEL 6
REMARK VINA RESULT:      -8.2      0.408      1.300
REMARK  Name = 
REMARK  7 active torsions:
REMARK  status: ('A' for Active; 'I' for Inactive)
REMARK    1  A    between atoms: C_1  and  C_2
REMARK    2  A    between atoms: C_5  and  S_6
REMARK    3  A    between atoms: S_6  and  C_9
REMARK    4  A    between atoms: C_9  and  C_10
REMARK    5  A    between atoms: N_12  and  C_13
REMARK    6  A    between atoms: C_16  and  S_17
REMARK    7  A    between atoms: S_17  and  N_20
REMARK                            x       y       z     vdW  Elec       q    Type
REMARK                         _______ _______ _______ _____ _____    ______ ____
ROOT
ATOM      1  C   UNL     1       0.545  10.016  19.525  0.00  0.00    +0.000 A 
ATOM      2  C   UNL     1       0.999   9.868  18.209  0.00  0.00    +0.000 A 
ATOM      3  C   UNL     1       1.832   8.805  17.854  0.00  0.00    +0.000 A 
ATOM      4  C   UNL     1       2.224   7.882  18.823  0.00  0.00    +0.000 A 
ATOM      5  C   UNL     1       1.761   7.998  20.136  0.00  0.00    +0.000 A 
ATOM      6  C   UNL     1       0.938   9.077  20.488  0.00  0.00    +0.000 A 
ENDROOT
BRANCH   1   9
ATOM      7  C   UNL     1       0.164  12.311  20.432  0.00  0.00    +0.000 C 
ATOM      8  O   UNL     1       1.329  12.700  20.440  0.00  0.00    +0.000 OA
ATOM      9  N   UNL     1      -0.278  11.093  19.931  0.00  0.00    +0.000 N 
ATOM     10  H   UNL     1      -1.276  10.951  19.825  0.00  0.00    +0.000 HD
BRANCH   7  11
ATOM     11  C   UNL     1      -0.911  13.208  20.958  0.00  0.00    +0.000 C 
BRANCH  11  12
ATOM     12  S   UNL     1      -1.109  12.957  22.688  0.00  0.00    +0.000 S 
ATOM     13  O   UNL     1      -0.528  14.097  23.374  0.00  0.00    +0.000 OA
ATOM     14  O   UNL     1      -0.610  11.622  22.978  0.00  0.00    +0.000 OA
BRANCH  12  19
ATOM     15  C   UNL     1      -7.050  13.104  23.964  0.00  0.00    +0.000 C 
ATOM     16  C   UNL     1      -5.586  13.039  23.641  0.00  0.00    +0.000 A 
ATOM     17  C   UNL     1      -4.686  12.412  24.511  0.00  0.00    +0.000 A 
ATOM     18  C   UNL     1      -3.323  12.363  24.209  0.00  0.00    +0.000 A 
ATOM     19  C   UNL     1      -2.855  12.939  23.026  0.00  0.00    +0.000 A 
ATOM     20  C   UNL     1      -3.739  13.585  22.157  0.00  0.00    +0.000 A 
ATOM     21  C   UNL     1      -5.102  13.625  22.463  0.00  0.00    +0.000 A 
ENDBRANCH  12  19
ENDBRANCH  11  12
ENDBRANCH   7  11
ENDBRANCH   1   9
BRANCH   4  22
ATOM     22  S   UNL     1       3.279   6.527  18.348  0.00  0.00    +0.000 S 
ATOM     23  O   UNL     1       4.067   6.944  17.208  0.00  0.00    +0.000 OA
ATOM     24  O   UNL     1       3.920   6.047  19.556  0.00  0.00    +0.000 OA
BRANCH  22  25
ATOM     25  N   UNL     1       2.191   5.324  17.881  0.00  0.00    +0.000 N 
ATOM     26  C   UNL     1       2.021   4.271  18.798  0.00  0.00    +0.000 A 
ATOM     27  C   UNL     1       1.186   4.373  19.896  0.00  0.00    +0.000 A 
ATOM     28  C   UNL     1       1.079   3.268  20.733  0.00  0.00    +0.000 A 
ATOM     29  C   UNL     1       1.829   2.128  20.453  0.00  0.00    +0.000 A 
ATOM     30  C   UNL     1       2.655   2.141  19.340  0.00  0.00    +0.000 A 
ATOM     31  N   UNL     1       2.762   3.192  18.496  0.00  0.00    +0.000 NA
ATOM     32  H   UNL     1       2.466   4.945  16.978  0.00  0.00    +0.000 HD
ENDBRANCH  22  25
ENDBRANCH   4  22
TORSDOF 6
ENDMDL
MODEL 7
REMARK VINA RESULT:      -8.1      3.413     10.309
REMARK  Name = 
REMARK  7 active torsions:
REMARK  status: ('A' for Active; 'I' for Inactive)
REMARK    1  A    between atoms: C_1  and  C_2
REMARK    2  A    between atoms: C_5  and  S_6
REMARK    3  A    between atoms: S_6  and  C_9
REMARK    4  A    between atoms: C_9  and  C_10
REMARK    5  A    between atoms: N_12  and  C_13
REMARK    6  A    between atoms: C_16  and  S_17
REMARK    7  A    between atoms: S_17  and  N_20
REMARK                            x       y       z     vdW  Elec       q    Type
REMARK                         _______ _______ _______ _____ _____    ______ ____
ROOT
ATOM      1  C   UNL     1       2.165   7.364  18.800  0.00  0.00    +0.000 A 
ATOM      2  C   UNL     1       2.089   8.328  17.789  0.00  0.00    +0.000 A 
ATOM      3  C   UNL     1       1.585   9.604  18.051  0.00  0.00    +0.000 A 
ATOM      4  C   UNL     1       1.144   9.921  19.335  0.00  0.00    +0.000 A 
ATOM      5  C   UNL     1       1.235   8.981  20.364  0.00  0.00    +0.000 A 
ATOM      6  C   UNL     1       1.727   7.697  20.089  0.00  0.00    +0.000 A 
ENDROOT
BRANCH   1   9
ATOM      7  C   UNL     1       2.196   4.900  19.203  0.00  0.00    +0.000 C 
ATOM      8  O   UNL     1       1.208   4.821  19.930  0.00  0.00    +0.000 OA
ATOM      9  N   UNL     1       2.644   6.052  18.570  0.00  0.00    +0.000 N 
ATOM     10  H   UNL     1       3.367   5.964  17.865  0.00  0.00    +0.000 HD
BRANCH   7  11
ATOM     11  C   UNL     1       2.992   3.667  18.913  0.00  0.00    +0.000 C 
BRANCH  11  12
ATOM     12  S   UNL     1       4.701   3.975  19.200  0.00  0.00    +0.000 S 
ATOM     13  O   UNL     1       5.268   2.795  19.828  0.00  0.00    +0.000 OA
ATOM     14  O   UNL     1       4.787   5.256  19.883  0.00  0.00    +0.000 OA
BRANCH  12  19
ATOM     15  C   UNL     1       7.289   4.921  13.782  0.00  0.00    +0.000 C 
ATOM     16  C   UNL     1       6.651   4.658  15.115  0.00  0.00    +0.000 A 
ATOM     17  C   UNL     1       5.300   4.304  15.206  0.00  0.00    +0.000 A 
ATOM     18  C   UNL     1       4.710   4.069  16.451  0.00  0.00    +0.000 A 
ATOM     19  C   UNL     1       5.476   4.183  17.613  0.00  0.00    +0.000 A 
ATOM     20  C   UNL     1       6.821   4.555  17.538  0.00  0.00    +0.000 A 
ATOM     21  C   UNL     1       7.406   4.781  16.290  0.00  0.00    +0.000 A 
ENDBRANCH  12  19
ENDBRANCH  11  12
ENDBRANCH   7  11
ENDBRANCH   1   9
BRANCH   4  22
ATOM     22  S   UNL     1       0.513  11.557  19.651  0.00  0.00    +0.000 S 
ATOM     23  O   UNL     1      -0.435  11.474  20.741  0.00  0.00    +0.000 OA
ATOM     24  O   UNL     1       1.657  12.443  19.729  0.00  0.00    +0.000 OA
BRANCH  22  25
ATOM     25  N   UNL     1      -0.293  11.952  18.221  0.00  0.00    +0.000 N 
ATOM     26  C   UNL     1      -1.619  11.490  18.126  0.00  0.00    +0.000 A 
ATOM     27  C   UNL     1      -2.678  12.157  18.716  0.00  0.00    +0.000 A 
ATOM     28  C   UNL     1      -3.952  11.623  18.550  0.00  0.00    +0.000 A 
ATOM     29  C   UNL     1      -4.105  10.441  17.831  0.00  0.00    +0.000 A 
ATOM     30  C   UNL     1      -2.972   9.841  17.302  0.00  0.00    +0.000 A 
ATOM     31  N   UNL     1      -1.725  10.347  17.428  0.00  0.00    +0.000 NA
ATOM     32  H   UNL     1       0.239  11.614  17.423  0.00  0.00    +0.000 HD
ENDBRANCH  22  25
ENDBRANCH   4  22
TORSDOF 6
ENDMDL
MODEL 8
REMARK VINA RESULT:      -8.1      4.248     10.792
REMARK  Name = 
REMARK  7 active torsions:
REMARK  status: ('A' for Active; 'I' for Inactive)
REMARK    1  A    between atoms: C_1  and  C_2
REMARK    2  A    between atoms: C_5  and  S_6
REMARK    3  A    between atoms: S_6  and  C_9
REMARK    4  A    between atoms: C_9  and  C_10
REMARK    5  A    between atoms: N_12  and  C_13
REMARK    6  A    between atoms: C_16  and  S_17
REMARK    7  A    between atoms: S_17  and  N_20
REMARK                            x       y       z     vdW  Elec       q    Type
REMARK                         _______ _______ _______ _____ _____    ______ ____
ROOT
ATOM      1  C   UNL     1       2.030   7.505  18.891  0.00  0.00    +0.000 A 
ATOM      2  C   UNL     1       1.840   8.494  17.919  0.00  0.00    +0.000 A 
ATOM      3  C   UNL     1       1.345   9.753  18.265  0.00  0.00    +0.000 A 
ATOM      4  C   UNL     1       1.029  10.029  19.595  0.00  0.00    +0.000 A 
ATOM      5  C   UNL     1       1.237   9.064  20.584  0.00  0.00    +0.000 A 
ATOM      6  C   UNL     1       1.718   7.797  20.225  0.00  0.00    +0.000 A 
ENDROOT
BRANCH   1   9
ATOM      7  C   UNL     1       2.252   5.053  19.306  0.00  0.00    +0.000 C 
ATOM      8  O   UNL     1       1.448   4.950  20.230  0.00  0.00    +0.000 OA
ATOM      9  N   UNL     1       2.503   6.209  18.578  0.00  0.00    +0.000 N 
ATOM     10  H   UNL     1       3.061   6.134  17.735  0.00  0.00    +0.000 HD
BRANCH   7  11
ATOM     11  C   UNL     1       3.018   3.846  18.866  0.00  0.00    +0.000 C 
BRANCH  11  12
ATOM     12  S   UNL     1       4.739   4.099  19.132  0.00  0.00    +0.000 S 
ATOM     13  O   UNL     1       5.272   2.907  19.768  0.00  0.00    +0.000 OA
ATOM     14  O   UNL     1       4.877   5.383  19.798  0.00  0.00    +0.000 OA
BRANCH  12  19
ATOM     15  C   UNL     1       7.292   4.889  13.672  0.00  0.00    +0.000 C 
ATOM     16  C   UNL     1       6.663   4.664  15.016  0.00  0.00    +0.000 A 
ATOM     17  C   UNL     1       5.317   4.296  15.127  0.00  0.00    +0.000 A 
ATOM     18  C   UNL     1       4.735   4.097  16.381  0.00  0.00    +0.000 A 
ATOM     19  C   UNL     1       5.505   4.262  17.535  0.00  0.00    +0.000 A 
ATOM     20  C   UNL     1       6.845   4.647  17.441  0.00  0.00    +0.000 A 
ATOM     21  C   UNL     1       7.422   4.838  16.182  0.00  0.00    +0.000 A 
ENDBRANCH  12  19
ENDBRANCH  11  12
ENDBRANCH   7  11
ENDBRANCH   1   9
BRANCH   4  22
ATOM     22  S   UNL     1       0.409  11.644  20.018  0.00  0.00    +0.000 S 
ATOM     23  O   UNL     1      -0.975  11.508  20.419  0.00  0.00    +0.000 OA
ATOM     24  O   UNL     1       1.382  12.253  20.903  0.00  0.00    +0.000 OA
BRANCH  22  25
ATOM     25  N   UNL     1       0.499  12.495  18.562  0.00  0.00    +0.000 N 
ATOM     26  C   UNL     1       1.474  13.508  18.511  0.00  0.00    +0.000 A 
ATOM     27  C   UNL     1       2.806  13.240  18.250  0.00  0.00    +0.000 A 
ATOM     28  C   UNL     1       3.686  14.316  18.208  0.00  0.00    +0.000 A 
ATOM     29  C   UNL     1       3.204  15.599  18.457  0.00  0.00    +0.000 A 
ATOM     30  C   UNL     1       1.854  15.752  18.734  0.00  0.00    +0.000 A 
ATOM     31  N   UNL     1       0.971  14.729  18.758  0.00  0.00    +0.000 NA
ATOM     32  H   UNL     1      -0.411  12.891  18.339  0.00  0.00    +0.000 HD
ENDBRANCH  22  25
ENDBRANCH   4  22
TORSDOF 6
ENDMDL
MODEL 9
REMARK VINA RESULT:      -8.1      1.178      1.463
REMARK  Name = 
REMARK  7 active torsions:
REMARK  status: ('A' for Active; 'I' for Inactive)
REMARK    1  A    between atoms: C_1  and  C_2
REMARK    2  A    between atoms: C_5  and  S_6
REMARK    3  A    between atoms: S_6  and  C_9
REMARK    4  A    between atoms: C_9  and  C_10
REMARK    5  A    between atoms: N_12  and  C_13
REMARK    6  A    between atoms: C_16  and  S_17
REMARK    7  A    between atoms: S_17  and  N_20
REMARK                            x       y       z     vdW  Elec       q    Type
REMARK                         _______ _______ _______ _____ _____    ______ ____
ROOT
ATOM      1  C   UNL     1       0.767  10.290  19.794  0.00  0.00    +0.000 A 
ATOM      2  C   UNL     1       1.031   9.221  20.658  0.00  0.00    +0.000 A 
ATOM      3  C   UNL     1       1.706   8.085  20.206  0.00  0.00    +0.000 A 
ATOM      4  C   UNL     1       2.118   8.009  18.876  0.00  0.00    +0.000 A 
ATOM      5  C   UNL     1       1.887   9.077  18.005  0.00  0.00    +0.000 A 
ATOM      6  C   UNL     1       1.193  10.207  18.461  0.00  0.00    +0.000 A 
ENDROOT
BRANCH   1   9
ATOM      7  C   UNL     1       0.591  12.507  20.929  0.00  0.00    +0.000 C 
ATOM      8  O   UNL     1       1.782  12.680  21.176  0.00  0.00    +0.000 OA
ATOM      9  N   UNL     1       0.062  11.447  20.204  0.00  0.00    +0.000 N 
ATOM     10  H   UNL     1      -0.910  11.495  19.921  0.00  0.00    +0.000 HD
BRANCH   7  11
ATOM     11  C   UNL     1      -0.408  13.519  21.391  0.00  0.00    +0.000 C 
BRANCH  11  12
ATOM     12  S   UNL     1      -1.108  13.014  22.925  0.00  0.00    +0.000 S 
ATOM     13  O   UNL     1      -0.780  14.021  23.919  0.00  0.00    +0.000 OA
ATOM     14  O   UNL     1      -0.692  11.638  23.143  0.00  0.00    +0.000 OA
BRANCH  12  19
ATOM     15  C   UNL     1      -7.141  12.703  22.247  0.00  0.00    +0.000 C 
ATOM     16  C   UNL     1      -5.652  12.808  22.405  0.00  0.00    +0.000 A 
ATOM     17  C   UNL     1      -4.805  12.737  21.292  0.00  0.00    +0.000 A 
ATOM     18  C   UNL     1      -3.419  12.826  21.446  0.00  0.00    +0.000 A 
ATOM     19  C   UNL     1      -2.874  12.994  22.721  0.00  0.00    +0.000 A 
ATOM     20  C   UNL     1      -3.706  13.047  23.843  0.00  0.00    +0.000 A 
ATOM     21  C   UNL     1      -5.091  12.963  23.681  0.00  0.00    +0.000 A 
ENDBRANCH  12  19
ENDBRANCH  11  12
ENDBRANCH   7  11
ENDBRANCH   1   9
BRANCH   4  22
ATOM     22  S   UNL     1       2.986   6.556  18.322  0.00  0.00    +0.000 S 
ATOM     23  O   UNL     1       2.014   5.615  17.808  0.00  0.00    +0.000 OA
ATOM     24  O   UNL     1       4.088   7.011  17.497  0.00  0.00    +0.000 OA
BRANCH  22  25
ATOM     25  N   UNL     1       3.677   5.947  19.737  0.00  0.00    +0.000 N 
ATOM     26  C   UNL     1       3.233   4.669  20.127  0.00  0.00    +0.000 A 
ATOM     27  C   UNL     1       3.740   3.508  19.572  0.00  0.00    +0.000 A 
ATOM     28  C   UNL     1       3.242   2.297  20.039  0.00  0.00    +0.000 A 
ATOM     29  C   UNL     1       2.246   2.301  21.012  0.00  0.00    +0.000 A 
ATOM     30  C   UNL     1       1.790   3.524  21.481  0.00  0.00    +0.000 A 
ATOM     31  N   UNL     1       2.271   4.716  21.064  0.00  0.00    +0.000 NA
ATOM     32  H   UNL     1       3.530   6.603  20.500  0.00  0.00    +0.000 HD
ENDBRANCH  22  25
ENDBRANCH   4  22
TORSDOF 6
ENDMDL
