MODEL 1
REMARK VINA RESULT:      -8.1      0.000      0.000
REMARK  Name = 
REMARK  8 active torsions:
REMARK  status: ('A' for Active; 'I' for Inactive)
REMARK    1  A    between atoms: C_1  and  O_2
REMARK    2  A    between atoms: O_2  and  C_3
REMARK    3  A    between atoms: C_5  and  C_6
REMARK    4  A    between atoms: C_7  and  C_8
REMARK    5  A    between atoms: C_19  and  O_20
REMARK    6  A    between atoms: O_20  and  C_21
REMARK    7  A    between atoms: C_22  and  O_23
REMARK    8  A    between atoms: O_23  and  C_24
REMARK                            x       y       z     vdW  Elec       q    Type
REMARK                         _______ _______ _______ _____ _____    ______ ____
ROOT
ATOM      1  C   UNL     1       2.653   4.055  18.254  0.00  0.00    +0.000 A 
ATOM      2  C   UNL     1       2.280   5.381  17.962  0.00  0.00    +0.000 A 
ATOM      3  C   UNL     1       3.215   6.413  18.035  0.00  0.00    +0.000 A 
ATOM      4  C   UNL     1       4.491   6.140  18.524  0.00  0.00    +0.000 A 
ATOM      5  C   UNL     1       4.875   4.833  18.844  0.00  0.00    +0.000 A 
ATOM      6  C   UNL     1       3.971   3.765  18.678  0.00  0.00    +0.000 A 
ENDROOT
BRANCH   1   8
ATOM      7  C   UNL     1       0.845   2.893  19.286  0.00  0.00    +0.000 C 
ATOM      8  O   UNL     1       1.750   3.024  18.195  0.00  0.00    +0.000 OA
ENDBRANCH   1   8
BRANCH   3   9
ATOM      9  C   UNL     1       2.968   7.746  17.476  0.00  0.00    +0.000 C 
ATOM     10  C   UNL     1       2.285   8.801  17.949  0.00  0.00    +0.000 C 
BRANCH  10  11
ATOM     11  C   UNL     1       1.493   8.945  19.175  0.00  0.00    +0.000 A 
ATOM     12  C   UNL     1       1.726   8.027  20.206  0.00  0.00    +0.000 A 
ATOM     13  C   UNL     1       1.130   8.196  21.453  0.00  0.00    +0.000 A 
ATOM     14  C   UNL     1       0.292   9.292  21.680  0.00  0.00    +0.000 A 
ATOM     15  C   UNL     1      -0.205   9.589  22.953  0.00  0.00    +0.000 A 
ATOM     16  C   UNL     1      -1.011  10.710  23.133  0.00  0.00    +0.000 A 
ATOM     17  C   UNL     1      -1.334  11.474  22.023  0.00  0.00    +0.000 A 
ATOM     18  N   UNL     1      -0.877  11.208  20.782  0.00  0.00    +0.000 NA
ATOM     19  C   UNL     1      -0.049  10.160  20.615  0.00  0.00    +0.000 A 
ATOM     20  C   UNL     1       0.540   9.949  19.374  0.00  0.00    +0.000 A 
ENDBRANCH  10  11
ENDBRANCH   3   9
BRANCH   5  21
ATOM     21  O   UNL     1       6.152   4.755  19.338  0.00  0.00    +0.000 OA
ATOM     22  C   UNL     1       7.161   5.355  18.538  0.00  0.00    +0.000 C 
ENDBRANCH   5  21
BRANCH   6  23
ATOM     23  O   UNL     1       4.431   2.512  19.007  0.00  0.00    +0.000 OA
ATOM     24  C   UNL     1       4.344   2.125  20.376  0.00  0.00    +0.000 C 
ENDBRANCH   6  23
TORSDOF 5
ENDMDL
MODEL 2
REMARK VINA RESULT:      -7.8      4.128      7.577
REMARK  Name = 
REMARK  8 active torsions:
REMARK  status: ('A' for Active; 'I' for Inactive)
REMARK    1  A    between atoms: C_1  and  O_2
REMARK    2  A    between atoms: O_2  and  C_3
REMARK    3  A    between atoms: C_5  and  C_6
REMARK    4  A    between atoms: C_7  and  C_8
REMARK    5  A    between atoms: C_19  and  O_20
REMARK    6  A    between atoms: O_20  and  C_21
REMARK    7  A    between atoms: C_22  and  O_23
REMARK    8  A    between atoms: O_23  and  C_24
REMARK                            x       y       z     vdW  Elec       q    Type
REMARK                         _______ _______ _______ _____ _____    ______ ____
ROOT
ATOM      1  C   UNL     1       0.079  10.658  20.893  0.00  0.00    +0.000 A 
ATOM      2  C   UNL     1       1.068   9.968  20.167  0.00  0.00    +0.000 A 
ATOM      3  C   UNL     1       0.969   9.834  18.782  0.00  0.00    +0.000 A 
ATOM      4  C   UNL     1      -0.185  10.279  18.139  0.00  0.00    +0.000 A 
ATOM      5  C   UNL     1      -1.192  10.945  18.845  0.00  0.00    +0.000 A 
ATOM      6  C   UNL     1      -1.057  11.177  20.228  0.00  0.00    +0.000 A 
ENDROOT
BRANCH   1   8
ATOM      7  C   UNL     1       0.092   9.607  23.032  0.00  0.00    +0.000 C 
ATOM      8  O   UNL     1       0.153  10.798  22.255  0.00  0.00    +0.000 OA
ENDBRANCH   1   8
BRANCH   3   9
ATOM      9  C   UNL     1       2.088   9.386  17.947  0.00  0.00    +0.000 C 
ATOM     10  C   UNL     1       2.677   8.187  17.811  0.00  0.00    +0.000 C 
BRANCH  10  11
ATOM     11  C   UNL     1       2.431   6.924  18.515  0.00  0.00    +0.000 A 
ATOM     12  C   UNL     1       2.368   6.966  19.913  0.00  0.00    +0.000 A 
ATOM     13  C   UNL     1       1.981   5.843  20.638  0.00  0.00    +0.000 A 
ATOM     14  C   UNL     1       1.650   4.662  19.967  0.00  0.00    +0.000 A 
ATOM     15  C   UNL     1       1.109   3.559  20.637  0.00  0.00    +0.000 A 
ATOM     16  C   UNL     1       0.767   2.417  19.918  0.00  0.00    +0.000 A 
ATOM     17  C   UNL     1       1.019   2.396  18.556  0.00  0.00    +0.000 A 
ATOM     18  N   UNL     1       1.547   3.440  17.883  0.00  0.00    +0.000 NA
ATOM     19  C   UNL     1       1.823   4.567  18.565  0.00  0.00    +0.000 A 
ATOM     20  C   UNL     1       2.238   5.697  17.872  0.00  0.00    +0.000 A 
ENDBRANCH  10  11
ENDBRANCH   3   9
BRANCH   5  21
ATOM     21  O   UNL     1      -2.265  11.283  18.060  0.00  0.00    +0.000 OA
ATOM     22  C   UNL     1      -2.460  10.479  16.904  0.00  0.00    +0.000 C 
ENDBRANCH   5  21
BRANCH   6  23
ATOM     23  O   UNL     1      -2.087  11.846  20.845  0.00  0.00    +0.000 OA
ATOM     24  C   UNL     1      -1.979  13.265  20.937  0.00  0.00    +0.000 C 
ENDBRANCH   6  23
TORSDOF 5
ENDMDL
MODEL 3
REMARK VINA RESULT:      -7.6      0.602      2.649
REMARK  Name = 
REMARK  8 active torsions:
REMARK  status: ('A' for Active; 'I' for Inactive)
REMARK    1  A    between atoms: C_1  and  O_2
REMARK    2  A    between atoms: O_2  and  C_3
REMARK    3  A    between atoms: C_5  and  C_6
REMARK    4  A    between atoms: C_7  and  C_8
REMARK    5  A    between atoms: C_19  and  O_20
REMARK    6  A    between atoms: O_20  and  C_21
REMARK    7  A    between atoms: C_22  and  O_23
REMARK    8  A    between atoms: O_23  and  C_24
REMARK                            x       y       z     vdW  Elec       q    Type
REMARK                         _______ _______ _______ _____ _____    ______ ____
ROOT
ATOM      1  C   UNL     1       4.862   4.978  18.981  0.00  0.00    +0.000 A 
ATOM      2  C   UNL     1       4.631   6.144  18.227  0.00  0.00    +0.000 A 
ATOM      3  C   UNL     1       3.335   6.510  17.865  0.00  0.00    +0.000 A 
ATOM      4  C   UNL     1       2.281   5.642  18.147  0.00  0.00    +0.000 A 
ATOM      5  C   UNL     1       2.492   4.466  18.874  0.00  0.00    +0.000 A 
ATOM      6  C   UNL     1       3.782   4.135  19.334  0.00  0.00    +0.000 A 
ENDROOT
BRANCH   1   8
ATOM      7  C   UNL     1       7.134   5.602  19.345  0.00  0.00    +0.000 C 
ATOM      8  O   UNL     1       6.128   4.594  19.345  0.00  0.00    +0.000 OA
ENDBRANCH   1   8
BRANCH   3   9
ATOM      9  C   UNL     1       3.006   7.837  17.337  0.00  0.00    +0.000 C 
ATOM     10  C   UNL     1       2.287   8.850  17.849  0.00  0.00    +0.000 C 
BRANCH  10  11
ATOM     11  C   UNL     1       1.527   8.934  19.101  0.00  0.00    +0.000 A 
ATOM     12  C   UNL     1       1.815   7.992  20.096  0.00  0.00    +0.000 A 
ATOM     13  C   UNL     1       1.252   8.106  21.364  0.00  0.00    +0.000 A 
ATOM     14  C   UNL     1       0.392   9.171  21.649  0.00  0.00    +0.000 A 
ATOM     15  C   UNL     1      -0.075   9.416  22.945  0.00  0.00    +0.000 A 
ATOM     16  C   UNL     1      -0.904  10.508  23.183  0.00  0.00    +0.000 A 
ATOM     17  C   UNL     1      -1.279  11.297  22.108  0.00  0.00    +0.000 A 
ATOM     18  N   UNL     1      -0.853  11.081  20.846  0.00  0.00    +0.000 NA
ATOM     19  C   UNL     1      -0.003  10.062  20.622  0.00  0.00    +0.000 A 
ATOM     20  C   UNL     1       0.555   9.905  19.360  0.00  0.00    +0.000 A 
ENDBRANCH  10  11
ENDBRANCH   3   9
BRANCH   5  21
ATOM     21  O   UNL     1       1.351   3.721  19.031  0.00  0.00    +0.000 OA
ATOM     22  C   UNL     1       0.731   3.803  20.307  0.00  0.00    +0.000 C 
ENDBRANCH   5  21
BRANCH   6  23
ATOM     23  O   UNL     1       3.900   2.967  20.048  0.00  0.00    +0.000 OA
ATOM     24  C   UNL     1       4.058   1.761  19.303  0.00  0.00    +0.000 C 
ENDBRANCH   6  23
TORSDOF 5
ENDMDL
MODEL 4
REMARK VINA RESULT:      -7.2      3.591      7.595
REMARK  Name = 
REMARK  8 active torsions:
REMARK  status: ('A' for Active; 'I' for Inactive)
REMARK    1  A    between atoms: C_1  and  O_2
REMARK    2  A    between atoms: O_2  and  C_3
REMARK    3  A    between atoms: C_5  and  C_6
REMARK    4  A    between atoms: C_7  and  C_8
REMARK    5  A    between atoms: C_19  and  O_20
REMARK    6  A    between atoms: O_20  and  C_21
REMARK    7  A    between atoms: C_22  and  O_23
REMARK    8  A    between atoms: O_23  and  C_24
REMARK                            x       y       z     vdW  Elec       q    Type
REMARK                         _______ _______ _______ _____ _____    ______ ____
ROOT
ATOM      1  C   UNL     1       2.046   8.423  18.641  0.00  0.00    +0.000 A 
ATOM      2  C   UNL     1       2.328   7.202  19.284  0.00  0.00    +0.000 A 
ATOM      3  C   UNL     1       1.709   6.875  20.489  0.00  0.00    +0.000 A 
ATOM      4  C   UNL     1       0.905   7.824  21.119  0.00  0.00    +0.000 A 
ATOM      5  C   UNL     1       0.632   9.054  20.510  0.00  0.00    +0.000 A 
ATOM      6  C   UNL     1       1.170   9.356  19.243  0.00  0.00    +0.000 A 
ENDROOT
BRANCH   1   8
ATOM      7  C   UNL     1       3.656   7.894  16.964  0.00  0.00    +0.000 C 
ATOM      8  O   UNL     1       2.647   8.769  17.457  0.00  0.00    +0.000 OA
ENDBRANCH   1   8
BRANCH   3   9
ATOM      9  C   UNL     1       1.738   5.522  21.053  0.00  0.00    +0.000 C 
ATOM     10  C   UNL     1       2.386   4.409  20.673  0.00  0.00    +0.000 C 
BRANCH  10  11
ATOM     11  C   UNL     1       3.240   4.161  19.506  0.00  0.00    +0.000 A 
ATOM     12  C   UNL     1       2.615   3.753  18.322  0.00  0.00    +0.000 A 
ATOM     13  C   UNL     1       3.338   3.655  17.137  0.00  0.00    +0.000 A 
ATOM     14  C   UNL     1       4.701   3.966  17.126  0.00  0.00    +0.000 A 
ATOM     15  C   UNL     1       5.433   4.032  15.936  0.00  0.00    +0.000 A 
ATOM     16  C   UNL     1       6.781   4.377  15.975  0.00  0.00    +0.000 A 
ATOM     17  C   UNL     1       7.367   4.602  17.210  0.00  0.00    +0.000 A 
ATOM     18  N   UNL     1       6.690   4.538  18.375  0.00  0.00    +0.000 NA
ATOM     19  C   UNL     1       5.372   4.264  18.336  0.00  0.00    +0.000 A 
ATOM     20  C   UNL     1       4.629   4.327  19.507  0.00  0.00    +0.000 A 
ENDBRANCH  10  11
ENDBRANCH   3   9
BRANCH   5  21
ATOM     21  O   UNL     1      -0.149   9.874  21.284  0.00  0.00    +0.000 OA
ATOM     22  C   UNL     1      -0.024   9.698  22.689  0.00  0.00    +0.000 C 
ENDBRANCH   5  21
BRANCH   6  23
ATOM     23  O   UNL     1       0.845  10.581  18.712  0.00  0.00    +0.000 OA
ATOM     24  C   UNL     1       1.670  11.687  19.073  0.00  0.00    +0.000 C 
ENDBRANCH   6  23
TORSDOF 5
ENDMDL
MODEL 5
REMARK VINA RESULT:      -7.0      3.572      7.405
REMARK  Name = 
REMARK  8 active torsions:
REMARK  status: ('A' for Active; 'I' for Inactive)
REMARK    1  A    between atoms: C_1  and  O_2
REMARK    2  A    between atoms: O_2  and  C_3
REMARK    3  A    between atoms: C_5  and  C_6
REMARK    4  A    between atoms: C_7  and  C_8
REMARK    5  A    between atoms: C_19  and  O_20
REMARK    6  A    between atoms: O_20  and  C_21
REMARK    7  A    between atoms: C_22  and  O_23
REMARK    8  A    between atoms: O_23  and  C_24
REMARK                            x       y       z     vdW  Elec       q    Type
REMARK                         _______ _______ _______ _____ _____    ______ ____
ROOT
ATOM      1  C   UNL     1       0.719   8.335  20.856  0.00  0.00    +0.000 A 
ATOM      2  C   UNL     1       0.838   6.986  21.240  0.00  0.00    +0.000 A 
ATOM      3  C   UNL     1       1.694   6.126  20.554  0.00  0.00    +0.000 A 
ATOM      4  C   UNL     1       2.335   6.582  19.403  0.00  0.00    +0.000 A 
ATOM      5  C   UNL     1       2.210   7.913  18.989  0.00  0.00    +0.000 A 
ATOM      6  C   UNL     1       1.428   8.819  19.732  0.00  0.00    +0.000 A 
ENDROOT
BRANCH   1   8
ATOM      7  C   UNL     1       0.263   9.605  22.821  0.00  0.00    +0.000 C 
ATOM      8  O   UNL     1      -0.121   9.198  21.512  0.00  0.00    +0.000 OA
ENDBRANCH   1   8
BRANCH   3   9
ATOM      9  C   UNL     1       2.075   4.808  21.071  0.00  0.00    +0.000 C 
ATOM     10  C   UNL     1       2.882   3.853  20.579  0.00  0.00    +0.000 C 
BRANCH  10  11
ATOM     11  C   UNL     1       3.608   3.790  19.306  0.00  0.00    +0.000 A 
ATOM     12  C   UNL     1       2.865   3.515  18.152  0.00  0.00    +0.000 A 
ATOM     13  C   UNL     1       3.456   3.597  16.894  0.00  0.00    +0.000 A 
ATOM     14  C   UNL     1       4.802   3.957  16.780  0.00  0.00    +0.000 A 
ATOM     15  C   UNL     1       5.397   4.202  15.538  0.00  0.00    +0.000 A 
ATOM     16  C   UNL     1       6.733   4.587  15.480  0.00  0.00    +0.000 A 
ATOM     17  C   UNL     1       7.447   4.673  16.664  0.00  0.00    +0.000 A 
ATOM     18  N   UNL     1       6.903   4.434  17.875  0.00  0.00    +0.000 NA
ATOM     19  C   UNL     1       5.596   4.119  17.940  0.00  0.00    +0.000 A 
ATOM     20  C   UNL     1       4.985   4.004  19.182  0.00  0.00    +0.000 A 
ENDBRANCH  10  11
ENDBRANCH   3   9
BRANCH   5  21
ATOM     21  O   UNL     1       2.882   8.177  17.822  0.00  0.00    +0.000 OA
ATOM     22  C   UNL     1       3.926   7.270  17.494  0.00  0.00    +0.000 C 
ENDBRANCH   5  21
BRANCH   6  23
ATOM     23  O   UNL     1       1.366  10.109  19.262  0.00  0.00    +0.000 OA
ATOM     24  C   UNL     1       0.254  10.448  18.436  0.00  0.00    +0.000 C 
ENDBRANCH   6  23
TORSDOF 5
ENDMDL
MODEL 6
REMARK VINA RESULT:      -7.0      2.631      4.662
REMARK  Name = 
REMARK  8 active torsions:
REMARK  status: ('A' for Active; 'I' for Inactive)
REMARK    1  A    between atoms: C_1  and  O_2
REMARK    2  A    between atoms: O_2  and  C_3
REMARK    3  A    between atoms: C_5  and  C_6
REMARK    4  A    between atoms: C_7  and  C_8
REMARK    5  A    between atoms: C_19  and  O_20
REMARK    6  A    between atoms: O_20  and  C_21
REMARK    7  A    between atoms: C_22  and  O_23
REMARK    8  A    between atoms: O_23  and  C_24
REMARK                            x       y       z     vdW  Elec       q    Type
REMARK                         _______ _______ _______ _____ _____    ______ ____
ROOT
ATOM      1  C   UNL     1       6.423   5.159  15.692  0.00  0.00    +0.000 A 
ATOM      2  C   UNL     1       5.499   4.113  15.872  0.00  0.00    +0.000 A 
ATOM      3  C   UNL     1       5.051   3.773  17.148  0.00  0.00    +0.000 A 
ATOM      4  C   UNL     1       5.626   4.394  18.257  0.00  0.00    +0.000 A 
ATOM      5  C   UNL     1       6.565   5.419  18.101  0.00  0.00    +0.000 A 
ATOM      6  C   UNL     1       6.950   5.842  16.814  0.00  0.00    +0.000 A 
ENDROOT
BRANCH   1   8
ATOM      7  C   UNL     1       6.903   4.486  13.456  0.00  0.00    +0.000 C 
ATOM      8  O   UNL     1       6.882   5.508  14.447  0.00  0.00    +0.000 OA
ENDBRANCH   1   8
BRANCH   3   9
ATOM      9  C   UNL     1       3.894   2.903  17.376  0.00  0.00    +0.000 C 
ATOM     10  C   UNL     1       2.713   3.124  17.976  0.00  0.00    +0.000 C 
BRANCH  10  11
ATOM     11  C   UNL     1       2.212   4.315  18.672  0.00  0.00    +0.000 A 
ATOM     12  C   UNL     1       1.782   4.157  19.995  0.00  0.00    +0.000 A 
ATOM     13  C   UNL     1       1.446   5.265  20.767  0.00  0.00    +0.000 A 
ATOM     14  C   UNL     1       1.538   6.548  20.219  0.00  0.00    +0.000 A 
ATOM     15  C   UNL     1       1.361   7.697  20.997  0.00  0.00    +0.000 A 
ATOM     16  C   UNL     1       1.493   8.953  20.411  0.00  0.00    +0.000 A 
ATOM     17  C   UNL     1       1.755   9.021  19.052  0.00  0.00    +0.000 A 
ATOM     18  N   UNL     1       1.922   7.931  18.274  0.00  0.00    +0.000 NA
ATOM     19  C   UNL     1       1.854   6.716  18.850  0.00  0.00    +0.000 A 
ATOM     20  C   UNL     1       2.158   5.589  18.097  0.00  0.00    +0.000 A 
ENDBRANCH  10  11
ENDBRANCH   3   9
BRANCH   5  21
ATOM     21  O   UNL     1       7.045   5.892  19.296  0.00  0.00    +0.000 OA
ATOM     22  C   UNL     1       8.281   5.338  19.727  0.00  0.00    +0.000 C 
ENDBRANCH   5  21
BRANCH   6  23
ATOM     23  O   UNL     1       7.871   6.860  16.749  0.00  0.00    +0.000 OA
ATOM     24  C   UNL     1       7.516   8.098  17.362  0.00  0.00    +0.000 C 
ENDBRANCH   6  23
TORSDOF 5
ENDMDL
MODEL 7
REMARK VINA RESULT:      -6.9      4.171      7.210
REMARK  Name = 
REMARK  8 active torsions:
REMARK  status: ('A' for Active; 'I' for Inactive)
REMARK    1  A    between atoms: C_1  and  O_2
REMARK    2  A    between atoms: O_2  and  C_3
REMARK    3  A    between atoms: C_5  and  C_6
REMARK    4  A    between atoms: C_7  and  C_8
REMARK    5  A    between atoms: C_19  and  O_20
REMARK    6  A    between atoms: O_20  and  C_21
REMARK    7  A    between atoms: C_22  and  O_23
REMARK    8  A    between atoms: O_23  and  C_24
REMARK                            x       y       z     vdW  Elec       q    Type
REMARK                         _______ _______ _______ _____ _____    ______ ____
ROOT
ATOM      1  C   UNL     1      -1.071  10.170  18.858  0.00  0.00    +0.000 A 
ATOM      2  C   UNL     1      -0.019   9.820  17.990  0.00  0.00    +0.000 A 
ATOM      3  C   UNL     1       1.299  10.149  18.306  0.00  0.00    +0.000 A 
ATOM      4  C   UNL     1       1.552  10.940  19.425  0.00  0.00    +0.000 A 
ATOM      5  C   UNL     1       0.518  11.320  20.287  0.00  0.00    +0.000 A 
ATOM      6  C   UNL     1      -0.806  10.908  20.035  0.00  0.00    +0.000 A 
ENDROOT
BRANCH   1   8
ATOM      7  C   UNL     1      -2.888  10.328  17.322  0.00  0.00    +0.000 C 
ATOM      8  O   UNL     1      -2.376   9.862  18.566  0.00  0.00    +0.000 OA
ENDBRANCH   1   8
BRANCH   3   9
ATOM      9  C   UNL     1       2.449   9.573  17.602  0.00  0.00    +0.000 C 
ATOM     10  C   UNL     1       2.985   8.341  17.622  0.00  0.00    +0.000 C 
BRANCH  10  11
ATOM     11  C   UNL     1       2.625   7.165  18.420  0.00  0.00    +0.000 A 
ATOM     12  C   UNL     1       2.265   7.377  19.756  0.00  0.00    +0.000 A 
ATOM     13  C   UNL     1       1.760   6.334  20.528  0.00  0.00    +0.000 A 
ATOM     14  C   UNL     1       1.609   5.062  19.965  0.00  0.00    +0.000 A 
ATOM     15  C   UNL     1       0.966   4.025  20.648  0.00  0.00    +0.000 A 
ATOM     16  C   UNL     1       0.813   2.786  20.032  0.00  0.00    +0.000 A 
ATOM     17  C   UNL     1       1.350   2.609  18.767  0.00  0.00    +0.000 A 
ATOM     18  N   UNL     1       1.983   3.587  18.087  0.00  0.00    +0.000 NA
ATOM     19  C   UNL     1       2.080   4.804  18.655  0.00  0.00    +0.000 A 
ATOM     20  C   UNL     1       2.605   5.859  17.920  0.00  0.00    +0.000 A 
ENDBRANCH  10  11
ENDBRANCH   3   9
BRANCH   5  21
ATOM     21  O   UNL     1       0.944  12.120  21.317  0.00  0.00    +0.000 OA
ATOM     22  C   UNL     1       1.363  13.427  20.949  0.00  0.00    +0.000 C 
ENDBRANCH   5  21
BRANCH   6  23
ATOM     23  O   UNL     1      -1.760  11.316  20.935  0.00  0.00    +0.000 OA
ATOM     24  C   UNL     1      -2.417  12.555  20.672  0.00  0.00    +0.000 C 
ENDBRANCH   6  23
TORSDOF 5
ENDMDL
MODEL 8
REMARK VINA RESULT:      -6.9      1.161      1.179
REMARK  Name = 
REMARK  8 active torsions:
REMARK  status: ('A' for Active; 'I' for Inactive)
REMARK    1  A    between atoms: C_1  and  O_2
REMARK    2  A    between atoms: O_2  and  C_3
REMARK    3  A    between atoms: C_5  and  C_6
REMARK    4  A    between atoms: C_7  and  C_8
REMARK    5  A    between atoms: C_19  and  O_20
REMARK    6  A    between atoms: O_20  and  C_21
REMARK    7  A    between atoms: C_22  and  O_23
REMARK    8  A    between atoms: O_23  and  C_24
REMARK                            x       y       z     vdW  Elec       q    Type
REMARK                         _______ _______ _______ _____ _____    ______ ____
ROOT
ATOM      1  C   UNL     1       1.914   4.411  18.714  0.00  0.00    +0.000 A 
ATOM      2  C   UNL     1       1.904   5.812  18.571  0.00  0.00    +0.000 A 
ATOM      3  C   UNL     1       2.904   6.457  17.844  0.00  0.00    +0.000 A 
ATOM      4  C   UNL     1       3.985   5.716  17.370  0.00  0.00    +0.000 A 
ATOM      5  C   UNL     1       4.027   4.325  17.524  0.00  0.00    +0.000 A 
ATOM      6  C   UNL     1       2.972   3.649  18.167  0.00  0.00    +0.000 A 
ENDROOT
BRANCH   1   8
ATOM      7  C   UNL     1       1.143   3.637  20.833  0.00  0.00    +0.000 C 
ATOM      8  O   UNL     1       0.944   3.755  19.428  0.00  0.00    +0.000 OA
ENDBRANCH   1   8
BRANCH   3   9
ATOM      9  C   UNL     1       2.798   7.857  17.421  0.00  0.00    +0.000 C 
ATOM     10  C   UNL     1       2.232   8.927  18.004  0.00  0.00    +0.000 C 
BRANCH  10  11
ATOM     11  C   UNL     1       1.464   9.032  19.249  0.00  0.00    +0.000 A 
ATOM     12  C   UNL     1       1.794   8.153  20.288  0.00  0.00    +0.000 A 
ATOM     13  C   UNL     1       1.221   8.299  21.548  0.00  0.00    +0.000 A 
ATOM     14  C   UNL     1       0.307   9.331  21.781  0.00  0.00    +0.000 A 
ATOM     15  C   UNL     1      -0.177   9.613  23.063  0.00  0.00    +0.000 A 
ATOM     16  C   UNL     1      -1.062  10.671  23.247  0.00  0.00    +0.000 A 
ATOM     17  C   UNL     1      -1.472  11.388  22.136  0.00  0.00    +0.000 A 
ATOM     18  N   UNL     1      -1.030  11.135  20.886  0.00  0.00    +0.000 NA
ATOM     19  C   UNL     1      -0.128  10.151  20.712  0.00  0.00    +0.000 A 
ATOM     20  C   UNL     1       0.442   9.963  19.460  0.00  0.00    +0.000 A 
ENDBRANCH  10  11
ENDBRANCH   3   9
BRANCH   5  21
ATOM     21  O   UNL     1       5.175   3.765  17.025  0.00  0.00    +0.000 OA
ATOM     22  C   UNL     1       5.846   4.521  16.026  0.00  0.00    +0.000 C 
ENDBRANCH   5  21
BRANCH   6  23
ATOM     23  O   UNL     1       3.087   2.283  18.268  0.00  0.00    +0.000 OA
ATOM     24  C   UNL     1       3.876   1.774  19.342  0.00  0.00    +0.000 C 
ENDBRANCH   6  23
TORSDOF 5
ENDMDL
MODEL 9
REMARK VINA RESULT:      -6.7      1.195      1.698
REMARK  Name = 
REMARK  8 active torsions:
REMARK  status: ('A' for Active; 'I' for Inactive)
REMARK    1  A    between atoms: C_1  and  O_2
REMARK    2  A    between atoms: O_2  and  C_3
REMARK    3  A    between atoms: C_5  and  C_6
REMARK    4  A    between atoms: C_7  and  C_8
REMARK    5  A    between atoms: C_19  and  O_20
REMARK    6  A    between atoms: O_20  and  C_21
REMARK    7  A    between atoms: C_22  and  O_23
REMARK    8  A    between atoms: O_23  and  C_24
REMARK                            x       y       z     vdW  Elec       q    Type
REMARK                         _______ _______ _______ _____ _____    ______ ____
ROOT
ATOM      1  C   UNL     1       1.958   4.320  19.275  0.00  0.00    +0.000 A 
ATOM      2  C   UNL     1       1.767   5.559  18.634  0.00  0.00    +0.000 A 
ATOM      3  C   UNL     1       2.858   6.363  18.305  0.00  0.00    +0.000 A 
ATOM      4  C   UNL     1       4.131   5.988  18.733  0.00  0.00    +0.000 A 
ATOM      5  C   UNL     1       4.339   4.772  19.394  0.00  0.00    +0.000 A 
ATOM      6  C   UNL     1       3.259   3.903  19.642  0.00  0.00    +0.000 A 
ENDROOT
BRANCH   1   8
ATOM      7  C   UNL     1       0.585   2.452  18.721  0.00  0.00    +0.000 C 
ATOM      8  O   UNL     1       0.900   3.515  19.614  0.00  0.00    +0.000 OA
ENDBRANCH   1   8
BRANCH   3   9
ATOM      9  C   UNL     1       2.753   7.509  17.397  0.00  0.00    +0.000 C 
ATOM     10  C   UNL     1       2.232   8.736  17.562  0.00  0.00    +0.000 C 
BRANCH  10  11
ATOM     11  C   UNL     1       1.528   9.320  18.709  0.00  0.00    +0.000 A 
ATOM     12  C   UNL     1       0.525  10.259  18.440  0.00  0.00    +0.000 A 
ATOM     13  C   UNL     1      -0.292  10.734  19.462  0.00  0.00    +0.000 A 
ATOM     14  C   UNL     1      -0.112  10.271  20.769  0.00  0.00    +0.000 A 
ATOM     15  C   UNL     1      -1.002  10.599  21.797  0.00  0.00    +0.000 A 
ATOM     16  C   UNL     1      -0.796  10.086  23.075  0.00  0.00    +0.000 A 
ATOM     17  C   UNL     1       0.320   9.297  23.296  0.00  0.00    +0.000 A 
ATOM     18  N   UNL     1       1.201   8.970  22.327  0.00  0.00    +0.000 NA
ATOM     19  C   UNL     1       0.972   9.415  21.077  0.00  0.00    +0.000 A 
ATOM     20  C   UNL     1       1.787   8.979  20.040  0.00  0.00    +0.000 A 
ENDBRANCH  10  11
ENDBRANCH   3   9
BRANCH   5  21
ATOM     21  O   UNL     1       5.646   4.582  19.767  0.00  0.00    +0.000 OA
ATOM     22  C   UNL     1       6.581   5.506  19.229  0.00  0.00    +0.000 C 
ENDBRANCH   5  21
BRANCH   6  23
ATOM     23  O   UNL     1       3.551   2.726  20.288  0.00  0.00    +0.000 OA
ATOM     24  C   UNL     1       2.922   2.501  21.548  0.00  0.00    +0.000 C 
ENDBRANCH   6  23
TORSDOF 5
ENDMDL
