MODEL 1
REMARK VINA RESULT:      -7.9      0.000      0.000
REMARK  Name = 
REMARK  6 active torsions:
REMARK  status: ('A' for Active; 'I' for Inactive)
REMARK    1  A    between atoms: C_2  and  C_4
REMARK    2  A    between atoms: C_4  and  S_5
REMARK    3  A    between atoms: S_5  and  C_6
REMARK    4  A    between atoms: C_8  and  C_9
REMARK    5  A    between atoms: C_15  and  S_16
REMARK    6  A    between atoms: S_16  and  C_19
REMARK                            x       y       z     vdW  Elec       q    Type
REMARK                         _______ _______ _______ _____ _____    ______ ____
ROOT
ATOM      1  C   UNL     1       2.950   4.854  20.210  0.00  0.00    +0.000 A 
ATOM      2  O   UNL     1       2.055   5.889  20.087  0.00  0.00    +0.000 OA
ATOM      3  C   UNL     1       2.678   6.835  19.313  0.00  0.00    +0.000 A 
ATOM      4  N   UNL     1       3.899   6.489  18.950  0.00  0.00    +0.000 NA
ATOM      5  C   UNL     1       4.073   5.224  19.496  0.00  0.00    +0.000 A 
ENDROOT
BRANCH   3   6
ATOM      6  C   UNL     1       2.062   8.076  18.931  0.00  0.00    +0.000 A 
ATOM      7  C   UNL     1       2.143   8.742  17.717  0.00  0.00    +0.000 A 
ATOM      8  C   UNL     1       1.363   9.918  17.825  0.00  0.00    +0.000 A 
ATOM      9  C   UNL     1       0.848   9.913  19.098  0.00  0.00    +0.000 A 
ATOM     10  O   UNL     1       1.260   8.808  19.772  0.00  0.00    +0.000 OA
ENDBRANCH   3   6
BRANCH   5  11
ATOM     11  S   UNL     1       5.518   4.299  19.268  0.00  0.00    +0.000 S 
ATOM     12  O   UNL     1       6.575   5.042  19.920  0.00  0.00    +0.000 OA
ATOM     13  O   UNL     1       5.183   2.948  19.678  0.00  0.00    +0.000 OA
BRANCH  11  14
ATOM     14  C   UNL     1       5.814   4.267  17.519  0.00  0.00    +0.000 A 
ATOM     15  C   UNL     1       4.773   3.947  16.640  0.00  0.00    +0.000 A 
ATOM     16  C   UNL     1       4.997   3.998  15.262  0.00  0.00    +0.000 A 
ATOM     17  C   UNL     1       6.250   4.368  14.773  0.00  0.00    +0.000 A 
ATOM     18 CL   UNL     1       6.517   4.440  13.075  0.00  0.00    +0.000 Cl
ATOM     19  C   UNL     1       7.286   4.692  15.650  0.00  0.00    +0.000 A 
ATOM     20  C   UNL     1       7.070   4.647  17.030  0.00  0.00    +0.000 A 
ENDBRANCH  11  14
ENDBRANCH   5  11
BRANCH   1  21
ATOM     21  S   UNL     1       2.582   3.434  21.151  0.00  0.00    +0.000 S 
BRANCH  21  22
ATOM     22  C   UNL     1       1.021   2.906  20.384  0.00  0.00    +0.000 C 
BRANCH  22  24
ATOM     23  N   UNL     1       2.491   1.654  18.875  0.00  0.00    +0.000 N 
ATOM     24  C   UNL     1       1.297   2.307  19.018  0.00  0.00    +0.000 C 
ATOM     25  O   UNL     1       0.536   2.427  18.063  0.00  0.00    +0.000 OA
ATOM     26  H   UNL     1       2.657   1.186  17.994  0.00  0.00    +0.000 HD
ATOM     27  H   UNL     1       3.057   1.389  19.670  0.00  0.00    +0.000 HD
ENDBRANCH  22  24
ENDBRANCH  21  22
ENDBRANCH   1  21
TORSDOF 6
ENDMDL
MODEL 2
REMARK VINA RESULT:      -7.8      3.316      6.955
REMARK  Name = 
REMARK  6 active torsions:
REMARK  status: ('A' for Active; 'I' for Inactive)
REMARK    1  A    between atoms: C_2  and  C_4
REMARK    2  A    between atoms: C_4  and  S_5
REMARK    3  A    between atoms: S_5  and  C_6
REMARK    4  A    between atoms: C_8  and  C_9
REMARK    5  A    between atoms: C_15  and  S_16
REMARK    6  A    between atoms: S_16  and  C_19
REMARK                            x       y       z     vdW  Elec       q    Type
REMARK                         _______ _______ _______ _____ _____    ______ ____
ROOT
ATOM      1  C   UNL     1       5.802   4.868  17.553  0.00  0.00    +0.000 A 
ATOM      2  O   UNL     1       6.623   4.995  16.457  0.00  0.00    +0.000 OA
ATOM      3  C   UNL     1       5.940   4.431  15.408  0.00  0.00    +0.000 A 
ATOM      4  N   UNL     1       4.763   3.945  15.755  0.00  0.00    +0.000 NA
ATOM      5  C   UNL     1       4.656   4.236  17.109  0.00  0.00    +0.000 A 
ENDROOT
BRANCH   3   6
ATOM      6  C   UNL     1       6.453   4.380  14.067  0.00  0.00    +0.000 A 
ATOM      7  C   UNL     1       6.114   3.503  13.047  0.00  0.00    +0.000 A 
ATOM      8  C   UNL     1       6.884   3.853  11.913  0.00  0.00    +0.000 A 
ATOM      9  C   UNL     1       7.655   4.923  12.297  0.00  0.00    +0.000 A 
ATOM     10  O   UNL     1       7.401   5.251  13.590  0.00  0.00    +0.000 OA
ENDBRANCH   3   6
BRANCH   5  11
ATOM     11  S   UNL     1       3.255   3.838  18.042  0.00  0.00    +0.000 S 
ATOM     12  O   UNL     1       2.246   3.423  17.091  0.00  0.00    +0.000 OA
ATOM     13  O   UNL     1       3.723   2.942  19.083  0.00  0.00    +0.000 OA
BRANCH  11  14
ATOM     14  C   UNL     1       2.739   5.343  18.827  0.00  0.00    +0.000 A 
ATOM     15  C   UNL     1       2.765   6.547  18.114  0.00  0.00    +0.000 A 
ATOM     16  C   UNL     1       2.286   7.713  18.716  0.00  0.00    +0.000 A 
ATOM     17  C   UNL     1       1.785   7.670  20.018  0.00  0.00    +0.000 A 
ATOM     18 CL   UNL     1       1.187   9.107  20.751  0.00  0.00    +0.000 Cl
ATOM     19  C   UNL     1       1.755   6.467  20.727  0.00  0.00    +0.000 A 
ATOM     20  C   UNL     1       2.229   5.296  20.130  0.00  0.00    +0.000 A 
ENDBRANCH  11  14
ENDBRANCH   5  11
BRANCH   1  21
ATOM     21  S   UNL     1       6.289   5.426  19.129  0.00  0.00    +0.000 S 
BRANCH  21  22
ATOM     22  C   UNL     1       7.996   5.958  18.796  0.00  0.00    +0.000 C 
BRANCH  22  24
ATOM     23  N   UNL     1       7.298   7.630  17.147  0.00  0.00    +0.000 N 
ATOM     24  C   UNL     1       7.999   7.390  18.297  0.00  0.00    +0.000 C 
ATOM     25  O   UNL     1       8.624   8.293  18.844  0.00  0.00    +0.000 OA
ATOM     26  H   UNL     1       7.229   8.592  16.841  0.00  0.00    +0.000 HD
ATOM     27  H   UNL     1       6.640   6.961  16.769  0.00  0.00    +0.000 HD
ENDBRANCH  22  24
ENDBRANCH  21  22
ENDBRANCH   1  21
TORSDOF 6
ENDMDL
MODEL 3
REMARK VINA RESULT:      -7.7      3.724      7.314
REMARK  Name = 
REMARK  6 active torsions:
REMARK  status: ('A' for Active; 'I' for Inactive)
REMARK    1  A    between atoms: C_2  and  C_4
REMARK    2  A    between atoms: C_4  and  S_5
REMARK    3  A    between atoms: S_5  and  C_6
REMARK    4  A    between atoms: C_8  and  C_9
REMARK    5  A    between atoms: C_15  and  S_16
REMARK    6  A    between atoms: S_16  and  C_19
REMARK                            x       y       z     vdW  Elec       q    Type
REMARK                         _______ _______ _______ _____ _____    ______ ____
ROOT
ATOM      1  C   UNL     1       7.076   5.944  17.209  0.00  0.00    +0.000 A 
ATOM      2  O   UNL     1       7.508   5.871  15.905  0.00  0.00    +0.000 OA
ATOM      3  C   UNL     1       6.701   4.943  15.294  0.00  0.00    +0.000 A 
ATOM      4  N   UNL     1       5.808   4.414  16.107  0.00  0.00    +0.000 NA
ATOM      5  C   UNL     1       6.022   5.058  17.320  0.00  0.00    +0.000 A 
ENDROOT
BRANCH   3   6
ATOM      6  C   UNL     1       6.816   4.587  13.907  0.00  0.00    +0.000 A 
ATOM      7  C   UNL     1       6.166   3.573  13.220  0.00  0.00    +0.000 A 
ATOM      8  C   UNL     1       6.604   3.623  11.875  0.00  0.00    +0.000 A 
ATOM      9  C   UNL     1       7.500   4.661  11.808  0.00  0.00    +0.000 A 
ATOM     10  O   UNL     1       7.633   5.251  13.025  0.00  0.00    +0.000 OA
ENDBRANCH   3   6
BRANCH   5  11
ATOM     11  S   UNL     1       5.063   4.747  18.726  0.00  0.00    +0.000 S 
ATOM     12  O   UNL     1       4.418   3.472  18.494  0.00  0.00    +0.000 OA
ATOM     13  O   UNL     1       5.952   4.948  19.854  0.00  0.00    +0.000 OA
BRANCH  11  14
ATOM     14  C   UNL     1       3.836   6.026  18.780  0.00  0.00    +0.000 A 
ATOM     15  C   UNL     1       2.989   6.136  19.889  0.00  0.00    +0.000 A 
ATOM     16  C   UNL     1       2.077   7.192  19.956  0.00  0.00    +0.000 A 
ATOM     17  C   UNL     1       2.017   8.127  18.923  0.00  0.00    +0.000 A 
ATOM     18 CL   UNL     1       0.899   9.432  19.016  0.00  0.00    +0.000 Cl
ATOM     19  C   UNL     1       2.865   8.020  17.819  0.00  0.00    +0.000 A 
ATOM     20  C   UNL     1       3.782   6.969  17.746  0.00  0.00    +0.000 A 
ENDBRANCH  11  14
ENDBRANCH   5  11
BRANCH   1  21
ATOM     21  S   UNL     1       7.849   6.988  18.369  0.00  0.00    +0.000 S 
BRANCH  21  22
ATOM     22  C   UNL     1       7.730   8.593  17.524  0.00  0.00    +0.000 C 
BRANCH  22  24
ATOM     23  N   UNL     1       9.124   9.212  19.443  0.00  0.00    +0.000 N 
ATOM     24  C   UNL     1       8.538   9.632  18.280  0.00  0.00    +0.000 C 
ATOM     25  O   UNL     1       8.639  10.800  17.919  0.00  0.00    +0.000 OA
ATOM     26  H   UNL     1       9.726   9.870  19.919  0.00  0.00    +0.000 HD
ATOM     27  H   UNL     1       9.208   8.232  19.679  0.00  0.00    +0.000 HD
ENDBRANCH  22  24
ENDBRANCH  21  22
ENDBRANCH   1  21
TORSDOF 6
ENDMDL
MODEL 4
REMARK VINA RESULT:      -7.6      3.362      6.921
REMARK  Name = 
REMARK  6 active torsions:
REMARK  status: ('A' for Active; 'I' for Inactive)
REMARK    1  A    between atoms: C_2  and  C_4
REMARK    2  A    between atoms: C_4  and  S_5
REMARK    3  A    between atoms: S_5  and  C_6
REMARK    4  A    between atoms: C_8  and  C_9
REMARK    5  A    between atoms: C_15  and  S_16
REMARK    6  A    between atoms: S_16  and  C_19
REMARK                            x       y       z     vdW  Elec       q    Type
REMARK                         _______ _______ _______ _____ _____    ______ ____
ROOT
ATOM      1  C   UNL     1       6.018   4.955  17.618  0.00  0.00    +0.000 A 
ATOM      2  O   UNL     1       6.766   5.122  16.476  0.00  0.00    +0.000 OA
ATOM      3  C   UNL     1       6.083   4.467  15.481  0.00  0.00    +0.000 A 
ATOM      4  N   UNL     1       4.976   3.888  15.904  0.00  0.00    +0.000 NA
ATOM      5  C   UNL     1       4.914   4.210  17.254  0.00  0.00    +0.000 A 
ENDROOT
BRANCH   3   6
ATOM      6  C   UNL     1       6.528   4.420  14.115  0.00  0.00    +0.000 A 
ATOM      7  C   UNL     1       6.110   3.572  13.101  0.00  0.00    +0.000 A 
ATOM      8  C   UNL     1       6.835   3.915  11.935  0.00  0.00    +0.000 A 
ATOM      9  C   UNL     1       7.660   4.952  12.296  0.00  0.00    +0.000 A 
ATOM     10  O   UNL     1       7.481   5.267  13.605  0.00  0.00    +0.000 OA
ENDBRANCH   3   6
BRANCH   5  11
ATOM     11  S   UNL     1       3.605   3.716  18.273  0.00  0.00    +0.000 S 
ATOM     12  O   UNL     1       2.673   3.017  17.414  0.00  0.00    +0.000 OA
ATOM     13  O   UNL     1       4.224   3.057  19.407  0.00  0.00    +0.000 OA
BRANCH  11  14
ATOM     14  C   UNL     1       2.853   5.208  18.868  0.00  0.00    +0.000 A 
ATOM     15  C   UNL     1       2.281   5.241  20.145  0.00  0.00    +0.000 A 
ATOM     16  C   UNL     1       1.758   6.440  20.634  0.00  0.00    +0.000 A 
ATOM     17  C   UNL     1       1.811   7.594  19.851  0.00  0.00    +0.000 A 
ATOM     18 CL   UNL     1       1.175   9.071  20.463  0.00  0.00    +0.000 Cl
ATOM     19  C   UNL     1       2.386   7.562  18.580  0.00  0.00    +0.000 A 
ATOM     20  C   UNL     1       2.914   6.367  18.084  0.00  0.00    +0.000 A 
ENDBRANCH  11  14
ENDBRANCH   5  11
BRANCH   1  21
ATOM     21  S   UNL     1       6.535   5.604  19.150  0.00  0.00    +0.000 S 
BRANCH  21  22
ATOM     22  C   UNL     1       8.177   6.252  18.716  0.00  0.00    +0.000 C 
BRANCH  22  24
ATOM     23  N   UNL     1       8.750   8.619  18.992  0.00  0.00    +0.000 N 
ATOM     24  C   UNL     1       8.055   7.695  18.261  0.00  0.00    +0.000 C 
ATOM     25  O   UNL     1       7.343   8.048  17.327  0.00  0.00    +0.000 OA
ATOM     26  H   UNL     1       8.739   9.574  18.658  0.00  0.00    +0.000 HD
ATOM     27  H   UNL     1       9.472   8.352  19.649  0.00  0.00    +0.000 HD
ENDBRANCH  22  24
ENDBRANCH  21  22
ENDBRANCH   1  21
TORSDOF 6
ENDMDL
MODEL 5
REMARK VINA RESULT:      -7.6      1.478      1.838
REMARK  Name = 
REMARK  6 active torsions:
REMARK  status: ('A' for Active; 'I' for Inactive)
REMARK    1  A    between atoms: C_2  and  C_4
REMARK    2  A    between atoms: C_4  and  S_5
REMARK    3  A    between atoms: S_5  and  C_6
REMARK    4  A    between atoms: C_8  and  C_9
REMARK    5  A    between atoms: C_15  and  S_16
REMARK    6  A    between atoms: S_16  and  C_19
REMARK                            x       y       z     vdW  Elec       q    Type
REMARK                         _______ _______ _______ _____ _____    ______ ____
ROOT
ATOM      1  C   UNL     1       3.173   4.846  18.790  0.00  0.00    +0.000 A 
ATOM      2  O   UNL     1       2.136   5.741  18.915  0.00  0.00    +0.000 OA
ATOM      3  C   UNL     1       2.698   6.987  18.790  0.00  0.00    +0.000 A 
ATOM      4  N   UNL     1       4.005   6.953  18.613  0.00  0.00    +0.000 NA
ATOM      5  C   UNL     1       4.313   5.598  18.589  0.00  0.00    +0.000 A 
ENDROOT
BRANCH   3   6
ATOM      6  C   UNL     1       1.939   8.206  18.844  0.00  0.00    +0.000 A 
ATOM      7  C   UNL     1       1.664   9.096  17.816  0.00  0.00    +0.000 A 
ATOM      8  C   UNL     1       0.878  10.141  18.359  0.00  0.00    +0.000 A 
ATOM      9  C   UNL     1       0.715   9.838  19.688  0.00  0.00    +0.000 A 
ATOM     10  O   UNL     1       1.346   8.674  19.991  0.00  0.00    +0.000 OA
ENDBRANCH   3   6
BRANCH   5  11
ATOM     11  S   UNL     1       5.921   5.010  18.334  0.00  0.00    +0.000 S 
ATOM     12  O   UNL     1       6.806   6.088  18.722  0.00  0.00    +0.000 OA
ATOM     13  O   UNL     1       5.971   3.719  18.994  0.00  0.00    +0.000 OA
BRANCH  11  14
ATOM     14  C   UNL     1       6.072   4.724  16.590  0.00  0.00    +0.000 A 
ATOM     15  C   UNL     1       7.196   5.191  15.900  0.00  0.00    +0.000 A 
ATOM     16  C   UNL     1       7.342   4.895  14.543  0.00  0.00    +0.000 A 
ATOM     17  C   UNL     1       6.371   4.137  13.887  0.00  0.00    +0.000 A 
ATOM     18 CL   UNL     1       6.562   3.766  12.217  0.00  0.00    +0.000 Cl
ATOM     19  C   UNL     1       5.253   3.666  14.577  0.00  0.00    +0.000 A 
ATOM     20  C   UNL     1       5.101   3.956  15.935  0.00  0.00    +0.000 A 
ENDBRANCH  11  14
ENDBRANCH   5  11
BRANCH   1  21
ATOM     21  S   UNL     1       2.916   3.128  18.917  0.00  0.00    +0.000 S 
BRANCH  21  22
ATOM     22  C   UNL     1       2.955   2.905  20.721  0.00  0.00    +0.000 C 
BRANCH  22  24
ATOM     23  N   UNL     1       0.546   3.245  20.429  0.00  0.00    +0.000 N 
ATOM     24  C   UNL     1       1.539   2.795  21.255  0.00  0.00    +0.000 C 
ATOM     25  O   UNL     1       1.273   2.377  22.377  0.00  0.00    +0.000 OA
ATOM     26  H   UNL     1      -0.408   3.110  20.739  0.00  0.00    +0.000 HD
ATOM     27  H   UNL     1       0.706   3.431  19.447  0.00  0.00    +0.000 HD
ENDBRANCH  22  24
ENDBRANCH  21  22
ENDBRANCH   1  21
TORSDOF 6
ENDMDL
MODEL 6
REMARK VINA RESULT:      -7.4      2.197      2.602
REMARK  Name = 
REMARK  6 active torsions:
REMARK  status: ('A' for Active; 'I' for Inactive)
REMARK    1  A    between atoms: C_2  and  C_4
REMARK    2  A    between atoms: C_4  and  S_5
REMARK    3  A    between atoms: S_5  and  C_6
REMARK    4  A    between atoms: C_8  and  C_9
REMARK    5  A    between atoms: C_15  and  S_16
REMARK    6  A    between atoms: S_16  and  C_19
REMARK                            x       y       z     vdW  Elec       q    Type
REMARK                         _______ _______ _______ _____ _____    ______ ____
ROOT
ATOM      1  C   UNL     1       2.569   4.614  20.558  0.00  0.00    +0.000 A 
ATOM      2  O   UNL     1       1.732   5.611  21.001  0.00  0.00    +0.000 OA
ATOM      3  C   UNL     1       2.071   6.732  20.284  0.00  0.00    +0.000 A 
ATOM      4  N   UNL     1       3.062   6.529  19.438  0.00  0.00    +0.000 NA
ATOM      5  C   UNL     1       3.371   5.182  19.588  0.00  0.00    +0.000 A 
ENDROOT
BRANCH   3   6
ATOM      6  C   UNL     1       1.409   7.999  20.437  0.00  0.00    +0.000 A 
ATOM      7  C   UNL     1       0.715   8.481  21.537  0.00  0.00    +0.000 A 
ATOM      8  C   UNL     1       0.249   9.777  21.209  0.00  0.00    +0.000 A 
ATOM      9  C   UNL     1       0.680  10.019  19.928  0.00  0.00    +0.000 A 
ATOM     10  O   UNL     1       1.383   8.957  19.455  0.00  0.00    +0.000 OA
ENDBRANCH   3   6
BRANCH   5  11
ATOM     11  S   UNL     1       4.597   4.395  18.654  0.00  0.00    +0.000 S 
ATOM     12  O   UNL     1       5.172   3.388  19.519  0.00  0.00    +0.000 OA
ATOM     13  O   UNL     1       3.959   4.038  17.400  0.00  0.00    +0.000 OA
BRANCH  11  14
ATOM     14  C   UNL     1       5.817   5.632  18.297  0.00  0.00    +0.000 A 
ATOM     15  C   UNL     1       5.554   6.618  17.339  0.00  0.00    +0.000 A 
ATOM     16  C   UNL     1       6.491   7.631  17.119  0.00  0.00    +0.000 A 
ATOM     17  C   UNL     1       7.676   7.655  17.855  0.00  0.00    +0.000 A 
ATOM     18 CL   UNL     1       8.821   8.911  17.588  0.00  0.00    +0.000 Cl
ATOM     19  C   UNL     1       7.935   6.674  18.814  0.00  0.00    +0.000 A 
ATOM     20  C   UNL     1       7.003   5.660  19.042  0.00  0.00    +0.000 A 
ENDBRANCH  11  14
ENDBRANCH   5  11
BRANCH   1  21
ATOM     21  S   UNL     1       2.509   3.007  21.228  0.00  0.00    +0.000 S 
BRANCH  21  22
ATOM     22  C   UNL     1       1.117   2.296  20.298  0.00  0.00    +0.000 C 
BRANCH  22  24
ATOM     23  N   UNL     1       2.544   1.488  18.476  0.00  0.00    +0.000 N 
ATOM     24  C   UNL     1       1.459   2.248  18.820  0.00  0.00    +0.000 C 
ATOM     25  O   UNL     1       0.847   2.881  17.966  0.00  0.00    +0.000 OA
ATOM     26  H   UNL     1       2.740   1.386  17.489  0.00  0.00    +0.000 HD
ATOM     27  H   UNL     1       2.961   0.826  19.116  0.00  0.00    +0.000 HD
ENDBRANCH  22  24
ENDBRANCH  21  22
ENDBRANCH   1  21
TORSDOF 6
ENDMDL
MODEL 7
REMARK VINA RESULT:      -7.4      1.410      1.559
REMARK  Name = 
REMARK  6 active torsions:
REMARK  status: ('A' for Active; 'I' for Inactive)
REMARK    1  A    between atoms: C_2  and  C_4
REMARK    2  A    between atoms: C_4  and  S_5
REMARK    3  A    between atoms: S_5  and  C_6
REMARK    4  A    between atoms: C_8  and  C_9
REMARK    5  A    between atoms: C_15  and  S_16
REMARK    6  A    between atoms: S_16  and  C_19
REMARK                            x       y       z     vdW  Elec       q    Type
REMARK                         _______ _______ _______ _____ _____    ______ ____
ROOT
ATOM      1  C   UNL     1       3.017   4.721  18.561  0.00  0.00    +0.000 A 
ATOM      2  O   UNL     1       2.015   5.657  18.662  0.00  0.00    +0.000 OA
ATOM      3  C   UNL     1       2.645   6.872  18.762  0.00  0.00    +0.000 A 
ATOM      4  N   UNL     1       3.961   6.779  18.748  0.00  0.00    +0.000 NA
ATOM      5  C   UNL     1       4.208   5.420  18.599  0.00  0.00    +0.000 A 
ENDROOT
BRANCH   3   6
ATOM      6  C   UNL     1       1.942   8.121  18.867  0.00  0.00    +0.000 A 
ATOM      7  C   UNL     1       1.672   9.045  17.869  0.00  0.00    +0.000 A 
ATOM      8  C   UNL     1       0.950  10.110  18.460  0.00  0.00    +0.000 A 
ATOM      9  C   UNL     1       0.818   9.784  19.787  0.00  0.00    +0.000 A 
ATOM     10  O   UNL     1       1.407   8.587  20.043  0.00  0.00    +0.000 OA
ENDBRANCH   3   6
BRANCH   5  11
ATOM     11  S   UNL     1       5.806   4.769  18.480  0.00  0.00    +0.000 S 
ATOM     12  O   UNL     1       6.695   5.798  18.975  0.00  0.00    +0.000 OA
ATOM     13  O   UNL     1       5.741   3.463  19.109  0.00  0.00    +0.000 OA
BRANCH  11  14
ATOM     14  C   UNL     1       6.108   4.512  16.751  0.00  0.00    +0.000 A 
ATOM     15  C   UNL     1       5.212   3.754  15.990  0.00  0.00    +0.000 A 
ATOM     16  C   UNL     1       5.418   3.620  14.615  0.00  0.00    +0.000 A 
ATOM     17  C   UNL     1       6.510   4.244  14.011  0.00  0.00    +0.000 A 
ATOM     18 CL   UNL     1       6.754   4.085  12.314  0.00  0.00    +0.000 Cl
ATOM     19  C   UNL     1       7.401   5.005  14.769  0.00  0.00    +0.000 A 
ATOM     20  C   UNL     1       7.200   5.145  16.145  0.00  0.00    +0.000 A 
ENDBRANCH  11  14
ENDBRANCH   5  11
BRANCH   1  21
ATOM     21  S   UNL     1       2.668   3.018  18.445  0.00  0.00    +0.000 S 
BRANCH  21  22
ATOM     22  C   UNL     1       2.931   2.493  20.166  0.00  0.00    +0.000 C 
BRANCH  22  24
ATOM     23  N   UNL     1       0.599   3.214  20.388  0.00  0.00    +0.000 N 
ATOM     24  C   UNL     1       1.783   2.979  21.031  0.00  0.00    +0.000 C 
ATOM     25  O   UNL     1       1.895   3.206  22.232  0.00  0.00    +0.000 OA
ATOM     26  H   UNL     1      -0.195   3.467  20.961  0.00  0.00    +0.000 HD
ATOM     27  H   UNL     1       0.422   2.880  19.449  0.00  0.00    +0.000 HD
ENDBRANCH  22  24
ENDBRANCH  21  22
ENDBRANCH   1  21
TORSDOF 6
ENDMDL
MODEL 8
REMARK VINA RESULT:      -7.3      0.888      1.426
REMARK  Name = 
REMARK  6 active torsions:
REMARK  status: ('A' for Active; 'I' for Inactive)
REMARK    1  A    between atoms: C_2  and  C_4
REMARK    2  A    between atoms: C_4  and  S_5
REMARK    3  A    between atoms: S_5  and  C_6
REMARK    4  A    between atoms: C_8  and  C_9
REMARK    5  A    between atoms: C_15  and  S_16
REMARK    6  A    between atoms: S_16  and  C_19
REMARK                            x       y       z     vdW  Elec       q    Type
REMARK                         _______ _______ _______ _____ _____    ______ ____
ROOT
ATOM      1  C   UNL     1       2.991   4.812  20.123  0.00  0.00    +0.000 A 
ATOM      2  O   UNL     1       2.032   5.796  20.068  0.00  0.00    +0.000 OA
ATOM      3  C   UNL     1       2.605   6.840  19.386  0.00  0.00    +0.000 A 
ATOM      4  N   UNL     1       3.850   6.603  19.020  0.00  0.00    +0.000 NA
ATOM      5  C   UNL     1       4.098   5.310  19.464  0.00  0.00    +0.000 A 
ENDROOT
BRANCH   3   6
ATOM      6  C   UNL     1       1.916   8.067  19.095  0.00  0.00    +0.000 A 
ATOM      7  C   UNL     1       1.203   8.883  19.962  0.00  0.00    +0.000 A 
ATOM      8  C   UNL     1       0.713   9.976  19.209  0.00  0.00    +0.000 A 
ATOM      9  C   UNL     1       1.149   9.774  17.923  0.00  0.00    +0.000 A 
ATOM     10  O   UNL     1       1.877   8.630  17.843  0.00  0.00    +0.000 OA
ENDBRANCH   3   6
BRANCH   5  11
ATOM     11  S   UNL     1       5.602   4.500  19.190  0.00  0.00    +0.000 S 
ATOM     12  O   UNL     1       6.619   5.328  19.805  0.00  0.00    +0.000 OA
ATOM     13  O   UNL     1       5.388   3.130  19.616  0.00  0.00    +0.000 OA
BRANCH  11  14
ATOM     14  C   UNL     1       5.841   4.482  17.433  0.00  0.00    +0.000 A 
ATOM     15  C   UNL     1       7.081   4.841  16.892  0.00  0.00    +0.000 A 
ATOM     16  C   UNL     1       7.282   4.752  15.513  0.00  0.00    +0.000 A 
ATOM     17  C   UNL     1       6.251   4.304  14.687  0.00  0.00    +0.000 A 
ATOM     18 CL   UNL     1       6.508   4.184  12.989  0.00  0.00    +0.000 Cl
ATOM     19  C   UNL     1       5.016   3.940  15.227  0.00  0.00    +0.000 A 
ATOM     20  C   UNL     1       4.808   4.024  16.606  0.00  0.00    +0.000 A 
ENDBRANCH  11  14
ENDBRANCH   5  11
BRANCH   1  21
ATOM     21  S   UNL     1       2.701   3.299  20.938  0.00  0.00    +0.000 S 
BRANCH  21  22
ATOM     22  C   UNL     1       2.409   2.195  19.524  0.00  0.00    +0.000 C 
BRANCH  22  24
ATOM     23  N   UNL     1       0.072   2.837  19.164  0.00  0.00    +0.000 N 
ATOM     24  C   UNL     1       1.331   2.779  18.630  0.00  0.00    +0.000 C 
ATOM     25  O   UNL     1       1.535   3.141  17.476  0.00  0.00    +0.000 OA
ATOM     26  H   UNL     1      -0.642   3.291  18.610  0.00  0.00    +0.000 HD
ATOM     27  H   UNL     1      -0.099   2.712  20.153  0.00  0.00    +0.000 HD
ENDBRANCH  22  24
ENDBRANCH  21  22
ENDBRANCH   1  21
TORSDOF 6
ENDMDL
MODEL 9
REMARK VINA RESULT:      -7.3      1.343      1.832
REMARK  Name = 
REMARK  6 active torsions:
REMARK  status: ('A' for Active; 'I' for Inactive)
REMARK    1  A    between atoms: C_2  and  C_4
REMARK    2  A    between atoms: C_4  and  S_5
REMARK    3  A    between atoms: S_5  and  C_6
REMARK    4  A    between atoms: C_8  and  C_9
REMARK    5  A    between atoms: C_15  and  S_16
REMARK    6  A    between atoms: S_16  and  C_19
REMARK                            x       y       z     vdW  Elec       q    Type
REMARK                         _______ _______ _______ _____ _____    ______ ____
ROOT
ATOM      1  C   UNL     1       4.152   4.953  18.849  0.00  0.00    +0.000 A 
ATOM      2  O   UNL     1       3.005   5.666  19.105  0.00  0.00    +0.000 OA
ATOM      3  C   UNL     1       3.240   6.935  18.637  0.00  0.00    +0.000 A 
ATOM      4  N   UNL     1       4.445   7.085  18.122  0.00  0.00    +0.000 NA
ATOM      5  C   UNL     1       5.025   5.827  18.232  0.00  0.00    +0.000 A 
ENDROOT
BRANCH   3   6
ATOM      6  C   UNL     1       2.269   7.993  18.699  0.00  0.00    +0.000 A 
ATOM      7  C   UNL     1       1.791   8.785  17.666  0.00  0.00    +0.000 A 
ATOM      8  C   UNL     1       0.846   9.681  18.221  0.00  0.00    +0.000 A 
ATOM      9  C   UNL     1       0.796   9.392  19.562  0.00  0.00    +0.000 A 
ATOM     10  O   UNL     1       1.646   8.376  19.861  0.00  0.00    +0.000 OA
ENDBRANCH   3   6
BRANCH   5  11
ATOM     11  S   UNL     1       6.616   5.478  17.650  0.00  0.00    +0.000 S 
ATOM     12  O   UNL     1       7.325   6.741  17.644  0.00  0.00    +0.000 OA
ATOM     13  O   UNL     1       7.082   4.357  18.444  0.00  0.00    +0.000 OA
BRANCH  11  14
ATOM     14  C   UNL     1       6.419   4.906  15.983  0.00  0.00    +0.000 A 
ATOM     15  C   UNL     1       7.400   5.190  15.026  0.00  0.00    +0.000 A 
ATOM     16  C   UNL     1       7.273   4.671  13.735  0.00  0.00    +0.000 A 
ATOM     17  C   UNL     1       6.174   3.874  13.410  0.00  0.00    +0.000 A 
ATOM     18 CL   UNL     1       6.028   3.229  11.822  0.00  0.00    +0.000 Cl
ATOM     19  C   UNL     1       5.199   3.587  14.366  0.00  0.00    +0.000 A 
ATOM     20  C   UNL     1       5.321   4.100  15.660  0.00  0.00    +0.000 A 
ENDBRANCH  11  14
ENDBRANCH   5  11
BRANCH   1  21
ATOM     21  S   UNL     1       4.311   3.281  19.313  0.00  0.00    +0.000 S 
BRANCH  21  22
ATOM     22  C   UNL     1       2.631   2.927  19.913  0.00  0.00    +0.000 C 
BRANCH  22  24
ATOM     23  N   UNL     1       2.499   1.750  17.768  0.00  0.00    +0.000 N 
ATOM     24  C   UNL     1       1.802   2.329  18.793  0.00  0.00    +0.000 C 
ATOM     25  O   UNL     1       0.577   2.388  18.756  0.00  0.00    +0.000 OA
ATOM     26  H   UNL     1       1.961   1.282  17.051  0.00  0.00    +0.000 HD
ATOM     27  H   UNL     1       3.484   1.531  17.844  0.00  0.00    +0.000 HD
ENDBRANCH  22  24
ENDBRANCH  21  22
ENDBRANCH   1  21
TORSDOF 6
ENDMDL
