MODEL 1
REMARK VINA RESULT:      -4.6      0.000      0.000
REMARK  Name = 
REMARK  6 active torsions:
REMARK  status: ('A' for Active; 'I' for Inactive)
REMARK    1  A    between atoms: C_1  and  C_2
REMARK    2  A    between atoms: C_2  and  N_3
REMARK    3  A    between atoms: C_2  and  C_4
REMARK    4  A    between atoms: C_5  and  P_6
REMARK    5  A    between atoms: P_6  and  O_8
REMARK    6  A    between atoms: P_6  and  O_9
REMARK                            x       y       z     vdW  Elec       q    Type
REMARK                         _______ _______ _______ _____ _____    ______ ____
ROOT
ATOM      1  C   UNL     1       6.133   3.836  13.194  0.00  0.00    +0.000 C 
ATOM      2  C   UNL     1       6.117   3.852  14.541  0.00  0.00    +0.000 C 
ENDROOT
BRANCH   1   4
ATOM      3  C   UNL     1       4.503   3.216  11.403  0.00  0.00    +0.000 C 
ATOM      4  C   UNL     1       5.593   2.721  12.351  0.00  0.00    +0.000 C 
BRANCH   4   5
ATOM      5  N   UNL     1       6.696   2.135  11.595  0.00  0.00    +0.000 NA
ATOM      6  H   UNL     1       7.563   2.623  11.827  0.00  0.00    +0.000 HD
ATOM      7  H   UNL     1       6.547   2.307  10.603  0.00  0.00    +0.000 HD
ENDBRANCH   4   5
ENDBRANCH   1   4
BRANCH   2   8
ATOM      8  P   UNL     1       6.857   5.201  15.530  0.00  0.00    +0.000 P 
ATOM      9  O   UNL     1       7.725   4.258  16.384  0.00  0.00    +0.000 OA
BRANCH   8  10
ATOM     10  O   UNL     1       7.852   5.610  14.295  0.00  0.00    +0.000 OA
ATOM     11  H   UNL     1       7.996   6.576  14.309  0.00  0.00    +0.000 HD
ENDBRANCH   8  10
BRANCH   8  12
ATOM     12  O   UNL     1       7.558   6.477  16.465  0.00  0.00    +0.000 OA
ATOM     13  H   UNL     1       8.285   6.032  16.947  0.00  0.00    +0.000 HD
ENDBRANCH   8  12
ENDBRANCH   2   8
TORSDOF 5
ENDMDL
MODEL 2
REMARK VINA RESULT:      -4.5      4.776      5.257
REMARK  Name = 
REMARK  6 active torsions:
REMARK  status: ('A' for Active; 'I' for Inactive)
REMARK    1  A    between atoms: C_1  and  C_2
REMARK    2  A    between atoms: C_2  and  N_3
REMARK    3  A    between atoms: C_2  and  C_4
REMARK    4  A    between atoms: C_5  and  P_6
REMARK    5  A    between atoms: P_6  and  O_8
REMARK    6  A    between atoms: P_6  and  O_9
REMARK                            x       y       z     vdW  Elec       q    Type
REMARK                         _______ _______ _______ _____ _____    ______ ____
ROOT
ATOM      1  C   UNL     1       4.734   3.536  18.242  0.00  0.00    +0.000 C 
ATOM      2  C   UNL     1       5.818   4.336  18.261  0.00  0.00    +0.000 C 
ENDROOT
BRANCH   1   4
ATOM      3  C   UNL     1       2.730   2.323  19.113  0.00  0.00    +0.000 C 
ATOM      4  C   UNL     1       4.047   3.010  19.466  0.00  0.00    +0.000 C 
BRANCH   4   5
ATOM      5  N   UNL     1       4.945   2.073  20.134  0.00  0.00    +0.000 NA
ATOM      6  H   UNL     1       5.755   1.895  19.537  0.00  0.00    +0.000 HD
ATOM      7  H   UNL     1       4.477   1.173  20.227  0.00  0.00    +0.000 HD
ENDBRANCH   4   5
ENDBRANCH   1   4
BRANCH   2   8
ATOM      8  P   UNL     1       6.670   4.893  16.740  0.00  0.00    +0.000 P 
ATOM      9  O   UNL     1       8.057   4.403  17.197  0.00  0.00    +0.000 OA
BRANCH   8  10
ATOM     10  O   UNL     1       6.081   3.618  15.899  0.00  0.00    +0.000 OA
ATOM     11  H   UNL     1       6.768   2.926  15.848  0.00  0.00    +0.000 HD
ENDBRANCH   8  10
BRANCH   8  12
ATOM     12  O   UNL     1       7.477   5.419  15.303  0.00  0.00    +0.000 OA
ATOM     13  H   UNL     1       8.132   6.066  15.634  0.00  0.00    +0.000 HD
ENDBRANCH   8  12
ENDBRANCH   2   8
TORSDOF 5
ENDMDL
MODEL 3
REMARK VINA RESULT:      -4.5      4.254      4.825
REMARK  Name = 
REMARK  6 active torsions:
REMARK  status: ('A' for Active; 'I' for Inactive)
REMARK    1  A    between atoms: C_1  and  C_2
REMARK    2  A    between atoms: C_2  and  N_3
REMARK    3  A    between atoms: C_2  and  C_4
REMARK    4  A    between atoms: C_5  and  P_6
REMARK    5  A    between atoms: P_6  and  O_8
REMARK    6  A    between atoms: P_6  and  O_9
REMARK                            x       y       z     vdW  Elec       q    Type
REMARK                         _______ _______ _______ _____ _____    ______ ____
ROOT
ATOM      1  C   UNL     1       4.825   3.475  17.483  0.00  0.00    +0.000 C 
ATOM      2  C   UNL     1       5.568   4.599  17.434  0.00  0.00    +0.000 C 
ENDROOT
BRANCH   1   4
ATOM      3  C   UNL     1       2.899   2.074  18.241  0.00  0.00    +0.000 C 
ATOM      4  C   UNL     1       3.986   3.063  18.655  0.00  0.00    +0.000 C 
BRANCH   4   5
ATOM      5  N   UNL     1       4.858   2.467  19.662  0.00  0.00    +0.000 NA
ATOM      6  H   UNL     1       4.289   1.995  20.367  0.00  0.00    +0.000 HD
ATOM      7  H   UNL     1       5.344   3.209  20.162  0.00  0.00    +0.000 HD
ENDBRANCH   4   5
ENDBRANCH   1   4
BRANCH   2   8
ATOM      8  P   UNL     1       6.638   5.023  16.012  0.00  0.00    +0.000 P 
ATOM      9  O   UNL     1       6.691   6.524  16.349  0.00  0.00    +0.000 OA
BRANCH   8  10
ATOM     10  O   UNL     1       7.954   4.419  16.775  0.00  0.00    +0.000 OA
ATOM     11  H   UNL     1       8.487   3.909  16.134  0.00  0.00    +0.000 HD
ENDBRANCH   8  10
BRANCH   8  12
ATOM     12  O   UNL     1       7.650   5.425  14.667  0.00  0.00    +0.000 OA
ATOM     13  H   UNL     1       8.414   5.871  15.084  0.00  0.00    +0.000 HD
ENDBRANCH   8  12
ENDBRANCH   2   8
TORSDOF 5
ENDMDL
MODEL 4
REMARK VINA RESULT:      -4.4      3.669      4.451
REMARK  Name = 
REMARK  6 active torsions:
REMARK  status: ('A' for Active; 'I' for Inactive)
REMARK    1  A    between atoms: C_1  and  C_2
REMARK    2  A    between atoms: C_2  and  N_3
REMARK    3  A    between atoms: C_2  and  C_4
REMARK    4  A    between atoms: C_5  and  P_6
REMARK    5  A    between atoms: P_6  and  O_8
REMARK    6  A    between atoms: P_6  and  O_9
REMARK                            x       y       z     vdW  Elec       q    Type
REMARK                         _______ _______ _______ _____ _____    ______ ____
ROOT
ATOM      1  C   UNL     1       5.086   4.247  17.595  0.00  0.00    +0.000 C 
ATOM      2  C   UNL     1       5.261   3.987  16.284  0.00  0.00    +0.000 C 
ENDROOT
BRANCH   1   4
ATOM      3  C   UNL     1       2.708   3.479  17.632  0.00  0.00    +0.000 C 
ATOM      4  C   UNL     1       3.992   3.663  18.437  0.00  0.00    +0.000 C 
BRANCH   4   5
ATOM      5  N   UNL     1       4.449   2.381  18.965  0.00  0.00    +0.000 NA
ATOM      6  H   UNL     1       4.440   1.684  18.218  0.00  0.00    +0.000 HD
ATOM      7  H   UNL     1       3.776   2.047  19.653  0.00  0.00    +0.000 HD
ENDBRANCH   4   5
ENDBRANCH   1   4
BRANCH   2   8
ATOM      8  P   UNL     1       6.565   4.782  15.277  0.00  0.00    +0.000 P 
ATOM      9  O   UNL     1       7.711   4.364  16.218  0.00  0.00    +0.000 OA
BRANCH   8  10
ATOM     10  O   UNL     1       6.515   3.565  14.184  0.00  0.00    +0.000 OA
ATOM     11  H   UNL     1       6.522   3.945  13.284  0.00  0.00    +0.000 HD
ENDBRANCH   8  10
BRANCH   8  12
ATOM     12  O   UNL     1       7.800   5.534  14.325  0.00  0.00    +0.000 OA
ATOM     13  H   UNL     1       8.628   5.178  14.707  0.00  0.00    +0.000 HD
ENDBRANCH   8  12
ENDBRANCH   2   8
TORSDOF 5
ENDMDL
MODEL 5
REMARK VINA RESULT:      -4.4      3.868      4.535
REMARK  Name = 
REMARK  6 active torsions:
REMARK  status: ('A' for Active; 'I' for Inactive)
REMARK    1  A    between atoms: C_1  and  C_2
REMARK    2  A    between atoms: C_2  and  N_3
REMARK    3  A    between atoms: C_2  and  C_4
REMARK    4  A    between atoms: C_5  and  P_6
REMARK    5  A    between atoms: P_6  and  O_8
REMARK    6  A    between atoms: P_6  and  O_9
REMARK                            x       y       z     vdW  Elec       q    Type
REMARK                         _______ _______ _______ _____ _____    ______ ____
ROOT
ATOM      1  C   UNL     1       4.108   4.412  16.864  0.00  0.00    +0.000 C 
ATOM      2  C   UNL     1       5.441   4.293  17.019  0.00  0.00    +0.000 C 
ENDROOT
BRANCH   1   4
ATOM      3  C   UNL     1       2.293   5.082  18.446  0.00  0.00    +0.000 C 
ATOM      4  C   UNL     1       3.092   3.925  17.853  0.00  0.00    +0.000 C 
BRANCH   4   5
ATOM      5  N   UNL     1       2.202   2.985  17.177  0.00  0.00    +0.000 NA
ATOM      6  H   UNL     1       1.829   3.421  16.332  0.00  0.00    +0.000 HD
ATOM      7  H   UNL     1       1.393   2.811  17.769  0.00  0.00    +0.000 HD
ENDBRANCH   4   5
ENDBRANCH   1   4
BRANCH   2   8
ATOM      8  P   UNL     1       6.643   4.834  15.749  0.00  0.00    +0.000 P 
ATOM      9  O   UNL     1       7.877   4.431  16.577  0.00  0.00    +0.000 OA
BRANCH   8  10
ATOM     10  O   UNL     1       6.344   3.501  14.846  0.00  0.00    +0.000 OA
ATOM     11  H   UNL     1       7.195   3.107  14.571  0.00  0.00    +0.000 HD
ENDBRANCH   8  10
BRANCH   8  12
ATOM     12  O   UNL     1       7.779   5.345  14.549  0.00  0.00    +0.000 OA
ATOM     13  H   UNL     1       8.549   5.640  15.077  0.00  0.00    +0.000 HD
ENDBRANCH   8  12
ENDBRANCH   2   8
TORSDOF 5
ENDMDL
MODEL 6
REMARK VINA RESULT:      -4.4      3.976      4.606
REMARK  Name = 
REMARK  6 active torsions:
REMARK  status: ('A' for Active; 'I' for Inactive)
REMARK    1  A    between atoms: C_1  and  C_2
REMARK    2  A    between atoms: C_2  and  N_3
REMARK    3  A    between atoms: C_2  and  C_4
REMARK    4  A    between atoms: C_5  and  P_6
REMARK    5  A    between atoms: P_6  and  O_8
REMARK    6  A    between atoms: P_6  and  O_9
REMARK                            x       y       z     vdW  Elec       q    Type
REMARK                         _______ _______ _______ _____ _____    ______ ____
ROOT
ATOM      1  C   UNL     1       4.136   3.533  17.074  0.00  0.00    +0.000 C 
ATOM      2  C   UNL     1       4.816   4.696  17.052  0.00  0.00    +0.000 C 
ENDROOT
BRANCH   1   4
ATOM      3  C   UNL     1       1.805   4.178  17.707  0.00  0.00    +0.000 C 
ATOM      4  C   UNL     1       2.980   3.243  17.983  0.00  0.00    +0.000 C 
BRANCH   4   5
ATOM      5  N   UNL     1       2.579   1.852  17.791  0.00  0.00    +0.000 NA
ATOM      6  H   UNL     1       1.758   1.817  17.184  0.00  0.00    +0.000 HD
ATOM      7  H   UNL     1       2.271   1.470  18.683  0.00  0.00    +0.000 HD
ENDBRANCH   4   5
ENDBRANCH   1   4
BRANCH   2   8
ATOM      8  P   UNL     1       6.270   4.980  15.979  0.00  0.00    +0.000 P 
ATOM      9  O   UNL     1       6.395   6.471  16.341  0.00  0.00    +0.000 OA
BRANCH   8  10
ATOM     10  O   UNL     1       7.258   4.247  17.060  0.00  0.00    +0.000 OA
ATOM     11  H   UNL     1       7.387   3.316  16.792  0.00  0.00    +0.000 HD
ENDBRANCH   8  10
BRANCH   8  12
ATOM     12  O   UNL     1       7.645   5.248  14.963  0.00  0.00    +0.000 OA
ATOM     13  H   UNL     1       8.402   5.034  15.546  0.00  0.00    +0.000 HD
ENDBRANCH   8  12
ENDBRANCH   2   8
TORSDOF 5
ENDMDL
MODEL 7
REMARK VINA RESULT:      -4.4      3.950      4.916
REMARK  Name = 
REMARK  6 active torsions:
REMARK  status: ('A' for Active; 'I' for Inactive)
REMARK    1  A    between atoms: C_1  and  C_2
REMARK    2  A    between atoms: C_2  and  N_3
REMARK    3  A    between atoms: C_2  and  C_4
REMARK    4  A    between atoms: C_5  and  P_6
REMARK    5  A    between atoms: P_6  and  O_8
REMARK    6  A    between atoms: P_6  and  O_9
REMARK                            x       y       z     vdW  Elec       q    Type
REMARK                         _______ _______ _______ _____ _____    ______ ____
ROOT
ATOM      1  C   UNL     1       5.539   4.330  18.052  0.00  0.00    +0.000 C 
ATOM      2  C   UNL     1       5.365   4.222  16.720  0.00  0.00    +0.000 C 
ENDROOT
BRANCH   1   4
ATOM      3  C   UNL     1       3.143   3.764  18.479  0.00  0.00    +0.000 C 
ATOM      4  C   UNL     1       4.542   3.883  19.077  0.00  0.00    +0.000 C 
BRANCH   4   5
ATOM      5  N   UNL     1       4.976   2.596  19.615  0.00  0.00    +0.000 NA
ATOM      6  H   UNL     1       5.602   2.144  18.947  0.00  0.00    +0.000 HD
ATOM      7  H   UNL     1       4.170   1.979  19.689  0.00  0.00    +0.000 HD
ENDBRANCH   4   5
ENDBRANCH   1   4
BRANCH   2   8
ATOM      8  P   UNL     1       6.577   4.851  15.503  0.00  0.00    +0.000 P 
ATOM      9  O   UNL     1       5.754   6.105  15.155  0.00  0.00    +0.000 OA
BRANCH   8  10
ATOM     10  O   UNL     1       7.565   5.371  16.701  0.00  0.00    +0.000 OA
ATOM     11  H   UNL     1       8.493   5.272  16.413  0.00  0.00    +0.000 HD
ENDBRANCH   8  10
BRANCH   8  12
ATOM     12  O   UNL     1       7.723   5.447  14.352  0.00  0.00    +0.000 OA
ATOM     13  H   UNL     1       7.302   6.264  14.015  0.00  0.00    +0.000 HD
ENDBRANCH   8  12
ENDBRANCH   2   8
TORSDOF 5
ENDMDL
MODEL 8
REMARK VINA RESULT:      -4.3      4.896      5.154
REMARK  Name = 
REMARK  6 active torsions:
REMARK  status: ('A' for Active; 'I' for Inactive)
REMARK    1  A    between atoms: C_1  and  C_2
REMARK    2  A    between atoms: C_2  and  N_3
REMARK    3  A    between atoms: C_2  and  C_4
REMARK    4  A    between atoms: C_5  and  P_6
REMARK    5  A    between atoms: P_6  and  O_8
REMARK    6  A    between atoms: P_6  and  O_9
REMARK                            x       y       z     vdW  Elec       q    Type
REMARK                         _______ _______ _______ _____ _____    ______ ____
ROOT
ATOM      1  C   UNL     1       4.327   3.738  18.298  0.00  0.00    +0.000 C 
ATOM      2  C   UNL     1       5.348   4.099  19.100  0.00  0.00    +0.000 C 
ENDROOT
BRANCH   1   4
ATOM      3  C   UNL     1       2.028   2.868  17.848  0.00  0.00    +0.000 C 
ATOM      4  C   UNL     1       3.327   2.672  18.626  0.00  0.00    +0.000 C 
BRANCH   4   5
ATOM      5  N   UNL     1       3.915   1.373  18.312  0.00  0.00    +0.000 NA
ATOM      6  H   UNL     1       4.836   1.304  18.748  0.00  0.00    +0.000 HD
ATOM      7  H   UNL     1       4.087   1.320  17.310  0.00  0.00    +0.000 HD
ENDBRANCH   4   5
ENDBRANCH   1   4
BRANCH   2   8
ATOM      8  P   UNL     1       6.591   5.354  18.625  0.00  0.00    +0.000 P 
ATOM      9  O   UNL     1       7.209   5.447  20.032  0.00  0.00    +0.000 OA
BRANCH   8  10
ATOM     10  O   UNL     1       7.510   4.218  17.885  0.00  0.00    +0.000 OA
ATOM     11  H   UNL     1       6.992   3.811  17.164  0.00  0.00    +0.000 HD
ENDBRANCH   8  10
BRANCH   8  12
ATOM     12  O   UNL     1       7.768   6.541  18.176  0.00  0.00    +0.000 OA
ATOM     13  H   UNL     1       7.238   7.359  18.076  0.00  0.00    +0.000 HD
ENDBRANCH   8  12
ENDBRANCH   2   8
TORSDOF 5
ENDMDL
MODEL 9
REMARK VINA RESULT:      -4.3      4.453      4.941
REMARK  Name = 
REMARK  6 active torsions:
REMARK  status: ('A' for Active; 'I' for Inactive)
REMARK    1  A    between atoms: C_1  and  C_2
REMARK    2  A    between atoms: C_2  and  N_3
REMARK    3  A    between atoms: C_2  and  C_4
REMARK    4  A    between atoms: C_5  and  P_6
REMARK    5  A    between atoms: P_6  and  O_8
REMARK    6  A    between atoms: P_6  and  O_9
REMARK                            x       y       z     vdW  Elec       q    Type
REMARK                         _______ _______ _______ _____ _____    ______ ____
ROOT
ATOM      1  C   UNL     1       5.128   4.051  18.786  0.00  0.00    +0.000 C 
ATOM      2  C   UNL     1       5.597   4.151  17.526  0.00  0.00    +0.000 C 
ENDROOT
BRANCH   1   4
ATOM      3  C   UNL     1       3.441   2.341  18.097  0.00  0.00    +0.000 C 
ATOM      4  C   UNL     1       4.192   2.982  19.261  0.00  0.00    +0.000 C 
BRANCH   4   5
ATOM      5  N   UNL     1       4.967   1.975  19.982  0.00  0.00    +0.000 NA
ATOM      6  H   UNL     1       5.350   2.388  20.833  0.00  0.00    +0.000 HD
ATOM      7  H   UNL     1       5.776   1.715  19.422  0.00  0.00    +0.000 HD
ENDBRANCH   4   5
ENDBRANCH   1   4
BRANCH   2   8
ATOM      8  P   UNL     1       6.678   5.518  16.972  0.00  0.00    +0.000 P 
ATOM      9  O   UNL     1       7.841   4.592  16.570  0.00  0.00    +0.000 OA
BRANCH   8  10
ATOM     10  O   UNL     1       5.827   5.676  15.581  0.00  0.00    +0.000 OA
ATOM     11  H   UNL     1       6.441   5.616  14.824  0.00  0.00    +0.000 HD
ENDBRANCH   8  10
BRANCH   8  12
ATOM     12  O   UNL     1       7.701   6.811  16.446  0.00  0.00    +0.000 OA
ATOM     13  H   UNL     1       7.553   6.839  15.479  0.00  0.00    +0.000 HD
ENDBRANCH   8  12
ENDBRANCH   2   8
TORSDOF 5
ENDMDL
