MODEL 1
REMARK VINA RESULT:      -8.0      0.000      0.000
REMARK  Name = 
REMARK  6 active torsions:
REMARK  status: ('A' for Active; 'I' for Inactive)
REMARK    1  A    between atoms: C_1  and  N_2
REMARK    2  A    between atoms: N_2  and  C_3
REMARK    3  A    between atoms: N_2  and  C_4
REMARK    4  A    between atoms: N_2  and  C_5
REMARK    5  A    between atoms: C_8  and  C_9
REMARK    6  A    between atoms: C_10  and  C_11
REMARK                            x       y       z     vdW  Elec       q    Type
REMARK                         _______ _______ _______ _____ _____    ______ ____
ROOT
ATOM      1  C   UNL     1       2.743   6.663  18.863  0.00  0.00    +0.000 C 
ATOM      2  C   UNL     1       2.420   5.544  18.127  0.00  0.00    +0.000 C 
ENDROOT
BRANCH   2   3
ATOM      3  C   UNL     1       3.393   4.391  17.595  0.00  0.00    +0.000 A 
ATOM      4  C   UNL     1       3.469   3.455  18.615  0.00  0.00    +0.000 A 
ATOM      5  C   UNL     1       4.652   3.394  19.328  0.00  0.00    +0.000 A 
ATOM      6  N   UNL     1       5.788   4.047  18.981  0.00  0.00    +0.000 NA
ATOM      7  C   UNL     1       5.850   4.506  17.746  0.00  0.00    +0.000 A 
ATOM      8  C   UNL     1       7.140   4.638  17.227  0.00  0.00    +0.000 A 
ATOM      9  C   UNL     1       7.376   4.580  15.864  0.00  0.00    +0.000 A 
ATOM     10  C   UNL     1       6.290   4.436  15.018  0.00  0.00    +0.000 A 
ATOM     11  C   UNL     1       4.969   4.493  15.542  0.00  0.00    +0.000 A 
ATOM     12  C   UNL     1       4.685   4.597  16.943  0.00  0.00    +0.000 A 
ENDBRANCH   2   3
BRANCH   1  16
ATOM     13  C   UNL     1       0.516  10.540  19.747  0.00  0.00    +0.000 A 
ATOM     14  C   UNL     1       0.730   9.544  20.716  0.00  0.00    +0.000 A 
ATOM     15  C   UNL     1       1.452   8.313  20.458  0.00  0.00    +0.000 A 
ATOM     16  C   UNL     1       1.992   7.980  19.207  0.00  0.00    +0.000 A 
ATOM     17  C   UNL     1       1.716   8.969  18.219  0.00  0.00    +0.000 A 
ATOM     18  C   UNL     1       1.003  10.207  18.471  0.00  0.00    +0.000 A 
BRANCH  13  20
ATOM     19  C   UNL     1       0.438  13.074  19.359  0.00  0.00    +0.000 C 
ATOM     20  N   UNL     1      -0.241  11.888  20.055  0.00  0.00    +0.000 NA
ATOM     21  C   UNL     1      -1.694  11.889  19.558  0.00  0.00    +0.000 C 
ATOM     22  C   UNL     1      -0.267  12.160  21.558  0.00  0.00    +0.000 C 
ENDBRANCH  13  20
ENDBRANCH   1  16
TORSDOF 3
ENDMDL
MODEL 2
REMARK VINA RESULT:      -7.9      0.305      1.048
REMARK  Name = 
REMARK  6 active torsions:
REMARK  status: ('A' for Active; 'I' for Inactive)
REMARK    1  A    between atoms: C_1  and  N_2
REMARK    2  A    between atoms: N_2  and  C_3
REMARK    3  A    between atoms: N_2  and  C_4
REMARK    4  A    between atoms: N_2  and  C_5
REMARK    5  A    between atoms: C_8  and  C_9
REMARK    6  A    between atoms: C_10  and  C_11
REMARK                            x       y       z     vdW  Elec       q    Type
REMARK                         _______ _______ _______ _____ _____    ______ ____
ROOT
ATOM      1  C   UNL     1       2.750   6.806  18.676  0.00  0.00    +0.000 C 
ATOM      2  C   UNL     1       2.419   5.564  18.180  0.00  0.00    +0.000 C 
ENDROOT
BRANCH   2   3
ATOM      3  C   UNL     1       3.395   4.424  17.626  0.00  0.00    +0.000 A 
ATOM      4  C   UNL     1       3.450   3.456  18.617  0.00  0.00    +0.000 A 
ATOM      5  C   UNL     1       4.622   3.366  19.346  0.00  0.00    +0.000 A 
ATOM      6  N   UNL     1       5.767   4.023  19.037  0.00  0.00    +0.000 NA
ATOM      7  C   UNL     1       5.850   4.521  17.819  0.00  0.00    +0.000 A 
ATOM      8  C   UNL     1       7.148   4.663  17.325  0.00  0.00    +0.000 A 
ATOM      9  C   UNL     1       7.405   4.647  15.964  0.00  0.00    +0.000 A 
ATOM     10  C   UNL     1       6.332   4.537  15.098  0.00  0.00    +0.000 A 
ATOM     11  C   UNL     1       5.004   4.584  15.602  0.00  0.00    +0.000 A 
ATOM     12  C   UNL     1       4.698   4.644  17.002  0.00  0.00    +0.000 A 
ENDBRANCH   2   3
BRANCH   1  16
ATOM     13  C   UNL     1       0.394  10.573  19.693  0.00  0.00    +0.000 A 
ATOM     14  C   UNL     1       0.929  10.328  18.416  0.00  0.00    +0.000 A 
ATOM     15  C   UNL     1       1.666   9.129  18.069  0.00  0.00    +0.000 A 
ATOM     16  C   UNL     1       1.938   8.097  18.980  0.00  0.00    +0.000 A 
ATOM     17  C   UNL     1       1.443   8.384  20.285  0.00  0.00    +0.000 A 
ATOM     18  C   UNL     1       0.698   9.577  20.638  0.00  0.00    +0.000 A 
BRANCH  13  20
ATOM     19  C   UNL     1       0.461  13.114  20.034  0.00  0.00    +0.000 C 
ATOM     20  N   UNL     1      -0.434  11.868  20.042  0.00  0.00    +0.000 NA
ATOM     21  C   UNL     1      -1.556  12.154  19.033  0.00  0.00    +0.000 C 
ATOM     22  C   UNL     1      -1.075  11.742  21.423  0.00  0.00    +0.000 C 
ENDBRANCH  13  20
ENDBRANCH   1  16
TORSDOF 3
ENDMDL
MODEL 3
REMARK VINA RESULT:      -7.7      1.703      2.984
REMARK  Name = 
REMARK  6 active torsions:
REMARK  status: ('A' for Active; 'I' for Inactive)
REMARK    1  A    between atoms: C_1  and  N_2
REMARK    2  A    between atoms: N_2  and  C_3
REMARK    3  A    between atoms: N_2  and  C_4
REMARK    4  A    between atoms: N_2  and  C_5
REMARK    5  A    between atoms: C_8  and  C_9
REMARK    6  A    between atoms: C_10  and  C_11
REMARK                            x       y       z     vdW  Elec       q    Type
REMARK                         _______ _______ _______ _____ _____    ______ ____
ROOT
ATOM      1  C   UNL     1       3.766   5.738  17.781  0.00  0.00    +0.000 C 
ATOM      2  C   UNL     1       3.935   5.262  16.499  0.00  0.00    +0.000 C 
ENDROOT
BRANCH   2   3
ATOM      3  C   UNL     1       5.088   4.304  15.940  0.00  0.00    +0.000 A 
ATOM      4  C   UNL     1       6.056   4.257  16.932  0.00  0.00    +0.000 A 
ATOM      5  C   UNL     1       7.236   4.937  16.692  0.00  0.00    +0.000 A 
ATOM      6  N   UNL     1       7.577   5.480  15.498  0.00  0.00    +0.000 NA
ATOM      7  C   UNL     1       6.892   5.071  14.448  0.00  0.00    +0.000 A 
ATOM      8  C   UNL     1       7.569   5.156  13.230  0.00  0.00    +0.000 A 
ATOM      9  C   UNL     1       7.251   4.322  12.171  0.00  0.00    +0.000 A 
ATOM     10  C   UNL     1       6.205   3.431  12.332  0.00  0.00    +0.000 A 
ATOM     11  C   UNL     1       5.402   3.483  13.504  0.00  0.00    +0.000 A 
ATOM     12  C   UNL     1       5.674   4.362  14.603  0.00  0.00    +0.000 A 
ENDBRANCH   2   3
BRANCH   1  16
ATOM     13  C   UNL     1       1.243   8.995  19.731  0.00  0.00    +0.000 A 
ATOM     14  C   UNL     1       1.746   9.099  18.423  0.00  0.00    +0.000 A 
ATOM     15  C   UNL     1       2.534   8.066  17.779  0.00  0.00    +0.000 A 
ATOM     16  C   UNL     1       2.895   6.864  18.406  0.00  0.00    +0.000 A 
ATOM     17  C   UNL     1       2.430   6.796  19.752  0.00  0.00    +0.000 A 
ATOM     18  C   UNL     1       1.634   7.820  20.400  0.00  0.00    +0.000 A 
BRANCH  13  20
ATOM     19  C   UNL     1      -0.146   9.666  21.780  0.00  0.00    +0.000 C 
ATOM     20  N   UNL     1       0.358  10.113  20.402  0.00  0.00    +0.000 NA
ATOM     21  C   UNL     1       1.124  11.422  20.643  0.00  0.00    +0.000 C 
ATOM     22  C   UNL     1      -0.852  10.440  19.528  0.00  0.00    +0.000 C 
ENDBRANCH  13  20
ENDBRANCH   1  16
TORSDOF 3
ENDMDL
MODEL 4
REMARK VINA RESULT:      -7.7      1.616      2.455
REMARK  Name = 
REMARK  6 active torsions:
REMARK  status: ('A' for Active; 'I' for Inactive)
REMARK    1  A    between atoms: C_1  and  N_2
REMARK    2  A    between atoms: N_2  and  C_3
REMARK    3  A    between atoms: N_2  and  C_4
REMARK    4  A    between atoms: N_2  and  C_5
REMARK    5  A    between atoms: C_8  and  C_9
REMARK    6  A    between atoms: C_10  and  C_11
REMARK                            x       y       z     vdW  Elec       q    Type
REMARK                         _______ _______ _______ _____ _____    ______ ____
ROOT
ATOM      1  C   UNL     1       3.886   5.874  17.971  0.00  0.00    +0.000 C 
ATOM      2  C   UNL     1       3.931   5.209  16.766  0.00  0.00    +0.000 C 
ENDROOT
BRANCH   2   3
ATOM      3  C   UNL     1       5.102   4.285  16.186  0.00  0.00    +0.000 A 
ATOM      4  C   UNL     1       6.077   4.244  17.171  0.00  0.00    +0.000 A 
ATOM      5  C   UNL     1       7.240   4.954  16.936  0.00  0.00    +0.000 A 
ATOM      6  N   UNL     1       7.562   5.524  15.749  0.00  0.00    +0.000 NA
ATOM      7  C   UNL     1       6.880   5.116  14.696  0.00  0.00    +0.000 A 
ATOM      8  C   UNL     1       7.548   5.236  13.476  0.00  0.00    +0.000 A 
ATOM      9  C   UNL     1       7.242   4.412  12.405  0.00  0.00    +0.000 A 
ATOM     10  C   UNL     1       6.217   3.495  12.558  0.00  0.00    +0.000 A 
ATOM     11  C   UNL     1       5.420   3.510  13.735  0.00  0.00    +0.000 A 
ATOM     12  C   UNL     1       5.679   4.378  14.847  0.00  0.00    +0.000 A 
ENDBRANCH   2   3
BRANCH   1  16
ATOM     13  C   UNL     1       1.209   9.214  19.539  0.00  0.00    +0.000 A 
ATOM     14  C   UNL     1       1.528   8.072  20.295  0.00  0.00    +0.000 A 
ATOM     15  C   UNL     1       2.392   7.009  19.820  0.00  0.00    +0.000 A 
ATOM     16  C   UNL     1       2.981   7.001  18.547  0.00  0.00    +0.000 A 
ATOM     17  C   UNL     1       2.602   8.133  17.769  0.00  0.00    +0.000 A 
ATOM     18  C   UNL     1       1.746   9.205  18.239  0.00  0.00    +0.000 A 
BRANCH  13  20
ATOM     19  C   UNL     1       1.085  11.686  20.210  0.00  0.00    +0.000 C 
ATOM     20  N   UNL     1       0.296  10.377  20.085  0.00  0.00    +0.000 NA
ATOM     21  C   UNL     1      -0.891  10.692  19.164  0.00  0.00    +0.000 C 
ATOM     22  C   UNL     1      -0.268  10.019  21.460  0.00  0.00    +0.000 C 
ENDBRANCH  13  20
ENDBRANCH   1  16
TORSDOF 3
ENDMDL
MODEL 5
REMARK VINA RESULT:      -7.7      5.952      7.332
REMARK  Name = 
REMARK  6 active torsions:
REMARK  status: ('A' for Active; 'I' for Inactive)
REMARK    1  A    between atoms: C_1  and  N_2
REMARK    2  A    between atoms: N_2  and  C_3
REMARK    3  A    between atoms: N_2  and  C_4
REMARK    4  A    between atoms: N_2  and  C_5
REMARK    5  A    between atoms: C_8  and  C_9
REMARK    6  A    between atoms: C_10  and  C_11
REMARK                            x       y       z     vdW  Elec       q    Type
REMARK                         _______ _______ _______ _____ _____    ______ ____
ROOT
ATOM      1  C   UNL     1       7.870   8.454  17.840  0.00  0.00    +0.000 C 
ATOM      2  C   UNL     1       7.938   7.147  18.272  0.00  0.00    +0.000 C 
ENDROOT
BRANCH   2   3
ATOM      3  C   UNL     1       6.943   5.939  17.939  0.00  0.00    +0.000 A 
ATOM      4  C   UNL     1       7.083   5.695  16.581  0.00  0.00    +0.000 A 
ATOM      5  C   UNL     1       6.039   6.083  15.761  0.00  0.00    +0.000 A 
ATOM      6  N   UNL     1       4.832   6.508  16.208  0.00  0.00    +0.000 NA
ATOM      7  C   UNL     1       4.543   6.241  17.467  0.00  0.00    +0.000 A 
ATOM      8  C   UNL     1       3.181   6.143  17.755  0.00  0.00    +0.000 A 
ATOM      9  C   UNL     1       2.723   5.380  18.816  0.00  0.00    +0.000 A 
ATOM     10  C   UNL     1       3.658   4.754  19.622  0.00  0.00    +0.000 A 
ATOM     11  C   UNL     1       5.043   5.013  19.436  0.00  0.00    +0.000 A 
ATOM     12  C   UNL     1       5.553   5.832  18.375  0.00  0.00    +0.000 A 
ENDBRANCH   2   3
BRANCH   1  16
ATOM     13  C   UNL     1       9.827  12.384  19.063  0.00  0.00    +0.000 A 
ATOM     14  C   UNL     1       9.996  11.190  19.785  0.00  0.00    +0.000 A 
ATOM     15  C   UNL     1       9.397   9.926  19.401  0.00  0.00    +0.000 A 
ATOM     16  C   UNL     1       8.567   9.772  18.280  0.00  0.00    +0.000 A 
ATOM     17  C   UNL     1       8.356  11.001  17.592  0.00  0.00    +0.000 A 
ATOM     18  C   UNL     1       8.958  12.267  17.964  0.00  0.00    +0.000 A 
BRANCH  13  20
ATOM     19  C   UNL     1      10.220  14.086  20.941  0.00  0.00    +0.000 C 
ATOM     20  N   UNL     1      10.515  13.741  19.476  0.00  0.00    +0.000 NA
ATOM     21  C   UNL     1      12.046  13.699  19.358  0.00  0.00    +0.000 C 
ATOM     22  C   UNL     1      10.015  14.888  18.599  0.00  0.00    +0.000 C 
ENDBRANCH  13  20
ENDBRANCH   1  16
TORSDOF 3
ENDMDL
MODEL 6
REMARK VINA RESULT:      -7.7      6.299      8.890
REMARK  Name = 
REMARK  6 active torsions:
REMARK  status: ('A' for Active; 'I' for Inactive)
REMARK    1  A    between atoms: C_1  and  N_2
REMARK    2  A    between atoms: N_2  and  C_3
REMARK    3  A    between atoms: N_2  and  C_4
REMARK    4  A    between atoms: N_2  and  C_5
REMARK    5  A    between atoms: C_8  and  C_9
REMARK    6  A    between atoms: C_10  and  C_11
REMARK                            x       y       z     vdW  Elec       q    Type
REMARK                         _______ _______ _______ _____ _____    ______ ____
ROOT
ATOM      1  C   UNL     1       8.575   8.444  18.211  0.00  0.00    +0.000 C 
ATOM      2  C   UNL     1       8.556   9.809  18.401  0.00  0.00    +0.000 C 
ENDROOT
BRANCH   2   3
ATOM      3  C   UNL     1       9.768  10.771  18.807  0.00  0.00    +0.000 A 
ATOM      4  C   UNL     1       9.660  10.961  20.176  0.00  0.00    +0.000 A 
ATOM      5  C   UNL     1       9.226  12.202  20.607  0.00  0.00    +0.000 A 
ATOM      6  N   UNL     1       9.081  13.283  19.803  0.00  0.00    +0.000 NA
ATOM      7  C   UNL     1       9.676  13.227  18.627  0.00  0.00    +0.000 A 
ATOM      8  C   UNL     1      10.016  14.464  18.076  0.00  0.00    +0.000 A 
ATOM      9  C   UNL     1      11.064  14.587  17.178  0.00  0.00    +0.000 A 
ATOM     10  C   UNL     1      11.737  13.439  16.799  0.00  0.00    +0.000 A 
ATOM     11  C   UNL     1      11.263  12.166  17.217  0.00  0.00    +0.000 A 
ATOM     12  C   UNL     1      10.155  11.997  18.111  0.00  0.00    +0.000 A 
ENDBRANCH   2   3
BRANCH   1  16
ATOM     13  C   UNL     1       5.367   5.213  17.994  0.00  0.00    +0.000 A 
ATOM     14  C   UNL     1       5.328   6.382  17.213  0.00  0.00    +0.000 A 
ATOM     15  C   UNL     1       6.348   7.412  17.256  0.00  0.00    +0.000 A 
ATOM     16  C   UNL     1       7.469   7.357  18.097  0.00  0.00    +0.000 A 
ATOM     17  C   UNL     1       7.466   6.197  18.925  0.00  0.00    +0.000 A 
ATOM     18  C   UNL     1       6.455   5.159  18.884  0.00  0.00    +0.000 A 
BRANCH  13  20
ATOM     19  C   UNL     1       2.858   4.694  17.889  0.00  0.00    +0.000 C 
ATOM     20  N   UNL     1       4.267   4.088  17.909  0.00  0.00    +0.000 NA
ATOM     21  C   UNL     1       4.373   3.239  16.634  0.00  0.00    +0.000 C 
ATOM     22  C   UNL     1       4.370   3.142  19.104  0.00  0.00    +0.000 C 
ENDBRANCH  13  20
ENDBRANCH   1  16
TORSDOF 3
ENDMDL
MODEL 7
REMARK VINA RESULT:      -7.6      5.991      7.441
REMARK  Name = 
REMARK  6 active torsions:
REMARK  status: ('A' for Active; 'I' for Inactive)
REMARK    1  A    between atoms: C_1  and  N_2
REMARK    2  A    between atoms: N_2  and  C_3
REMARK    3  A    between atoms: N_2  and  C_4
REMARK    4  A    between atoms: N_2  and  C_5
REMARK    5  A    between atoms: C_8  and  C_9
REMARK    6  A    between atoms: C_10  and  C_11
REMARK                            x       y       z     vdW  Elec       q    Type
REMARK                         _______ _______ _______ _____ _____    ______ ____
ROOT
ATOM      1  C   UNL     1       7.761   8.547  17.848  0.00  0.00    +0.000 C 
ATOM      2  C   UNL     1       7.975   7.220  18.150  0.00  0.00    +0.000 C 
ENDROOT
BRANCH   2   3
ATOM      3  C   UNL     1       6.991   5.979  17.923  0.00  0.00    +0.000 A 
ATOM      4  C   UNL     1       7.163   5.594  16.602  0.00  0.00    +0.000 A 
ATOM      5  C   UNL     1       6.138   5.889  15.721  0.00  0.00    +0.000 A 
ATOM      6  N   UNL     1       4.920   6.353  16.093  0.00  0.00    +0.000 NA
ATOM      7  C   UNL     1       4.603   6.219  17.366  0.00  0.00    +0.000 A 
ATOM      8  C   UNL     1       3.234   6.145  17.631  0.00  0.00    +0.000 A 
ATOM      9  C   UNL     1       2.753   5.495  18.756  0.00  0.00    +0.000 A 
ATOM     10  C   UNL     1       3.670   4.962  19.644  0.00  0.00    +0.000 A 
ATOM     11  C   UNL     1       5.059   5.207  19.465  0.00  0.00    +0.000 A 
ATOM     12  C   UNL     1       5.591   5.912  18.335  0.00  0.00    +0.000 A 
ENDBRANCH   2   3
BRANCH   1  16
ATOM     13  C   UNL     1       9.924  12.362  19.089  0.00  0.00    +0.000 A 
ATOM     14  C   UNL     1       9.119  12.280  17.940  0.00  0.00    +0.000 A 
ATOM     15  C   UNL     1       8.409  11.081  17.539  0.00  0.00    +0.000 A 
ATOM     16  C   UNL     1       8.470   9.872  18.247  0.00  0.00    +0.000 A 
ATOM     17  C   UNL     1       9.336   9.951  19.376  0.00  0.00    +0.000 A 
ATOM     18  C   UNL     1      10.043  11.148  19.789  0.00  0.00    +0.000 A 
BRANCH  13  20
ATOM     19  C   UNL     1      10.371  14.016  20.998  0.00  0.00    +0.000 C 
ATOM     20  N   UNL     1      10.661  13.685  19.529  0.00  0.00    +0.000 NA
ATOM     21  C   UNL     1      12.189  13.587  19.417  0.00  0.00    +0.000 C 
ATOM     22  C   UNL     1      10.208  14.864  18.669  0.00  0.00    +0.000 C 
ENDBRANCH  13  20
ENDBRANCH   1  16
TORSDOF 3
ENDMDL
MODEL 8
REMARK VINA RESULT:      -7.6      6.351      8.951
REMARK  Name = 
REMARK  6 active torsions:
REMARK  status: ('A' for Active; 'I' for Inactive)
REMARK    1  A    between atoms: C_1  and  N_2
REMARK    2  A    between atoms: N_2  and  C_3
REMARK    3  A    between atoms: N_2  and  C_4
REMARK    4  A    between atoms: N_2  and  C_5
REMARK    5  A    between atoms: C_8  and  C_9
REMARK    6  A    between atoms: C_10  and  C_11
REMARK                            x       y       z     vdW  Elec       q    Type
REMARK                         _______ _______ _______ _____ _____    ______ ____
ROOT
ATOM      1  C   UNL     1       8.689   8.538  18.310  0.00  0.00    +0.000 C 
ATOM      2  C   UNL     1       8.637   9.913  18.383  0.00  0.00    +0.000 C 
ENDROOT
BRANCH   2   3
ATOM      3  C   UNL     1       9.804  10.930  18.788  0.00  0.00    +0.000 A 
ATOM      4  C   UNL     1       9.746  11.045  20.168  0.00  0.00    +0.000 A 
ATOM      5  C   UNL     1       9.256  12.232  20.682  0.00  0.00    +0.000 A 
ATOM      6  N   UNL     1       9.008  13.340  19.942  0.00  0.00    +0.000 NA
ATOM      7  C   UNL     1       9.551  13.381  18.741  0.00  0.00    +0.000 A 
ATOM      8  C   UNL     1       9.789  14.663  18.242  0.00  0.00    +0.000 A 
ATOM      9  C   UNL     1      10.785  14.897  17.309  0.00  0.00    +0.000 A 
ATOM     10  C   UNL     1      11.511  13.816  16.842  0.00  0.00    +0.000 A 
ATOM     11  C   UNL     1      11.136  12.496  17.212  0.00  0.00    +0.000 A 
ATOM     12  C   UNL     1      10.083  12.211  18.142  0.00  0.00    +0.000 A 
ENDBRANCH   2   3
BRANCH   1  16
ATOM     13  C   UNL     1       5.491   5.315  17.912  0.00  0.00    +0.000 A 
ATOM     14  C   UNL     1       6.618   5.175  18.741  0.00  0.00    +0.000 A 
ATOM     15  C   UNL     1       7.636   6.196  18.894  0.00  0.00    +0.000 A 
ATOM     16  C   UNL     1       7.611   7.422  18.213  0.00  0.00    +0.000 A 
ATOM     17  C   UNL     1       6.496   7.528  17.332  0.00  0.00    +0.000 A 
ATOM     18  C   UNL     1       5.469   6.515  17.179  0.00  0.00    +0.000 A 
BRANCH  13  20
ATOM     19  C   UNL     1       4.550   3.395  16.497  0.00  0.00    +0.000 C 
ATOM     20  N   UNL     1       4.376   4.208  17.786  0.00  0.00    +0.000 NA
ATOM     21  C   UNL     1       4.410   3.187  18.932  0.00  0.00    +0.000 C 
ATOM     22  C   UNL     1       2.986   4.842  17.773  0.00  0.00    +0.000 C 
ENDBRANCH  13  20
ENDBRANCH   1  16
TORSDOF 3
ENDMDL
MODEL 9
REMARK VINA RESULT:      -7.6      1.518      2.461
REMARK  Name = 
REMARK  6 active torsions:
REMARK  status: ('A' for Active; 'I' for Inactive)
REMARK    1  A    between atoms: C_1  and  N_2
REMARK    2  A    between atoms: N_2  and  C_3
REMARK    3  A    between atoms: N_2  and  C_4
REMARK    4  A    between atoms: N_2  and  C_5
REMARK    5  A    between atoms: C_8  and  C_9
REMARK    6  A    between atoms: C_10  and  C_11
REMARK                            x       y       z     vdW  Elec       q    Type
REMARK                         _______ _______ _______ _____ _____    ______ ____
ROOT
ATOM      1  C   UNL     1       3.902   6.046  17.942  0.00  0.00    +0.000 C 
ATOM      2  C   UNL     1       3.815   5.083  16.961  0.00  0.00    +0.000 C 
ENDROOT
BRANCH   2   3
ATOM      3  C   UNL     1       4.986   4.179  16.351  0.00  0.00    +0.000 A 
ATOM      4  C   UNL     1       5.920   4.033  17.365  0.00  0.00    +0.000 A 
ATOM      5  C   UNL     1       7.108   4.728  17.232  0.00  0.00    +0.000 A 
ATOM      6  N   UNL     1       7.489   5.383  16.108  0.00  0.00    +0.000 NA
ATOM      7  C   UNL     1       6.840   5.079  15.001  0.00  0.00    +0.000 A 
ATOM      8  C   UNL     1       7.557   5.279  13.820  0.00  0.00    +0.000 A 
ATOM      9  C   UNL     1       7.274   4.553  12.675  0.00  0.00    +0.000 A 
ATOM     10  C   UNL     1       6.223   3.653  12.715  0.00  0.00    +0.000 A 
ATOM     11  C   UNL     1       5.381   3.595  13.859  0.00  0.00    +0.000 A 
ATOM     12  C   UNL     1       5.617   4.364  15.046  0.00  0.00    +0.000 A 
ENDBRANCH   2   3
BRANCH   1  16
ATOM     13  C   UNL     1       1.138   9.317  19.503  0.00  0.00    +0.000 A 
ATOM     14  C   UNL     1       1.716   9.352  18.221  0.00  0.00    +0.000 A 
ATOM     15  C   UNL     1       2.583   8.313  17.701  0.00  0.00    +0.000 A 
ATOM     16  C   UNL     1       2.951   7.174  18.433  0.00  0.00    +0.000 A 
ATOM     17  C   UNL     1       2.408   7.180  19.750  0.00  0.00    +0.000 A 
ATOM     18  C   UNL     1       1.533   8.211  20.275  0.00  0.00    +0.000 A 
BRANCH  13  20
ATOM     19  C   UNL     1       0.851  11.814  20.012  0.00  0.00    +0.000 C 
ATOM     20  N   UNL     1       0.170  10.440  20.038  0.00  0.00    +0.000 NA
ATOM     21  C   UNL     1      -1.103  10.589  19.192  0.00  0.00    +0.000 C 
ATOM     22  C   UNL     1      -0.261  10.141  21.473  0.00  0.00    +0.000 C 
ENDBRANCH  13  20
ENDBRANCH   1  16
TORSDOF 3
ENDMDL
