MODEL 1
REMARK VINA RESULT:      -7.2      0.000      0.000
REMARK  Name = 
REMARK  11 active torsions:
REMARK  status: ('A' for Active; 'I' for Inactive)
REMARK    1  A    between atoms: C_1  and  C_2
REMARK    2  A    between atoms: C_2  and  C_3
REMARK    3  A    between atoms: C_2  and  S_4
REMARK    4  A    between atoms: S_4  and  C_5
REMARK    5  A    between atoms: C_8  and  C_9
REMARK    6  A    between atoms: C_10  and  C_11
REMARK    7  A    between atoms: C_11  and  N_12
REMARK    8  A    between atoms: N_12  and  C_13
REMARK    9  A    between atoms: C_13  and  C_14
REMARK   10  A    between atoms: N_23  and  C_24
REMARK   11  A    between atoms: N_25  and  C_26
REMARK                            x       y       z     vdW  Elec       q    Type
REMARK                         _______ _______ _______ _____ _____    ______ ____
ROOT
ATOM      1  C   UNL     1       2.293   6.545  18.898  0.00  0.00    +0.000 A 
ATOM      2  C   UNL     1       1.996   6.372  20.264  0.00  0.00    +0.000 A 
ATOM      3  C   UNL     1       1.609   7.651  20.791  0.00  0.00    +0.000 A 
ATOM      4  C   UNL     1       1.289   8.117  22.087  0.00  0.00    +0.000 A 
ATOM      5  C   UNL     1       0.867   9.436  22.274  0.00  0.00    +0.000 A 
ATOM      6  C   UNL     1       0.694  10.275  21.184  0.00  0.00    +0.000 A 
ATOM      7  C   UNL     1       1.003   9.839  19.892  0.00  0.00    +0.000 A 
ATOM      8  C   UNL     1       1.517   8.538  19.727  0.00  0.00    +0.000 A 
ATOM      9  N   UNL     1       2.068   7.901  18.623  0.00  0.00    +0.000 N 
ATOM     10  C   UNL     1       2.453   8.662  17.451  0.00  0.00    +0.000 C 
ENDROOT
BRANCH   1  14
ATOM     11  C   UNL     1       4.003   4.119  16.764  0.00  0.00    +0.000 A 
ATOM     12  N   UNL     1       2.742   3.784  16.631  0.00  0.00    +0.000 NA
ATOM     13  N   UNL     1       1.992   4.674  17.366  0.00  0.00    +0.000 NA
ATOM     14  C   UNL     1       2.800   5.540  17.962  0.00  0.00    +0.000 A 
ATOM     15  N   UNL     1       4.112   5.260  17.555  0.00  0.00    +0.000 N 
BRANCH  15  16
ATOM     16  C   UNL     1       5.296   5.975  17.919  0.00  0.00    +0.000 A 
ATOM     17  C   UNL     1       5.724   7.076  17.159  0.00  0.00    +0.000 A 
ATOM     18  C   UNL     1       6.990   7.610  17.351  0.00  0.00    +0.000 A 
ATOM     19  C   UNL     1       7.868   7.031  18.267  0.00  0.00    +0.000 A 
ATOM     20  C   UNL     1       7.447   5.950  19.040  0.00  0.00    +0.000 A 
ATOM     21  C   UNL     1       6.145   5.460  18.913  0.00  0.00    +0.000 A 
ENDBRANCH  15  16
BRANCH  11  22
ATOM     22  S   UNL     1       5.348   3.288  16.023  0.00  0.00    +0.000 S 
BRANCH  22  24
ATOM     23  C   UNL     1       7.346   4.831  14.888  0.00  0.00    +0.000 C 
ATOM     24  C   UNL     1       5.916   4.354  14.668  0.00  0.00    +0.000 C 
ATOM     25  C   UNL     1       5.849   3.548  13.363  0.00  0.00    +0.000 C 
ENDBRANCH  22  24
ENDBRANCH  11  22
ENDBRANCH   1  14
BRANCH   2  26
ATOM     26  C   UNL     1       2.061   5.129  21.123  0.00  0.00    +0.000 C 
BRANCH  26  27
ATOM     27  N   UNL     1       1.220   4.096  20.497  0.00  0.00    +0.000 NA
ATOM     28  H   UNL     1       1.066   4.347  19.524  0.00  0.00    +0.000 HD
BRANCH  27  29
ATOM     29  C   UNL     1       1.829   2.776  20.570  0.00  0.00    +0.000 C 
BRANCH  29  30
ATOM     30  C   UNL     1       3.286   2.890  20.208  0.00  0.00    +0.000 C 
ATOM     31  C   UNL     1       4.334   1.978  20.791  0.00  0.00    +0.000 C 
ATOM     32  C   UNL     1       3.924   1.824  19.344  0.00  0.00    +0.000 C 
ENDBRANCH  29  30
ENDBRANCH  27  29
ENDBRANCH  26  27
ENDBRANCH   2  26
TORSDOF 8
ENDMDL
MODEL 2
REMARK VINA RESULT:      -6.3      7.167     10.138
REMARK  Name = 
REMARK  11 active torsions:
REMARK  status: ('A' for Active; 'I' for Inactive)
REMARK    1  A    between atoms: C_1  and  C_2
REMARK    2  A    between atoms: C_2  and  C_3
REMARK    3  A    between atoms: C_2  and  S_4
REMARK    4  A    between atoms: S_4  and  C_5
REMARK    5  A    between atoms: C_8  and  C_9
REMARK    6  A    between atoms: C_10  and  C_11
REMARK    7  A    between atoms: C_11  and  N_12
REMARK    8  A    between atoms: N_12  and  C_13
REMARK    9  A    between atoms: C_13  and  C_14
REMARK   10  A    between atoms: N_23  and  C_24
REMARK   11  A    between atoms: N_25  and  C_26
REMARK                            x       y       z     vdW  Elec       q    Type
REMARK                         _______ _______ _______ _____ _____    ______ ____
ROOT
ATOM      1  C   UNL     1      -3.508  13.494  21.252  0.00  0.00    +0.000 A 
ATOM      2  C   UNL     1      -4.292  12.640  20.452  0.00  0.00    +0.000 A 
ATOM      3  C   UNL     1      -5.573  12.502  21.088  0.00  0.00    +0.000 A 
ATOM      4  C   UNL     1      -6.721  11.723  20.813  0.00  0.00    +0.000 A 
ATOM      5  C   UNL     1      -7.871  11.868  21.594  0.00  0.00    +0.000 A 
ATOM      6  C   UNL     1      -7.916  12.821  22.600  0.00  0.00    +0.000 A 
ATOM      7  C   UNL     1      -6.795  13.603  22.892  0.00  0.00    +0.000 A 
ATOM      8  C   UNL     1      -5.613  13.384  22.159  0.00  0.00    +0.000 A 
ATOM      9  N   UNL     1      -4.321  13.864  22.333  0.00  0.00    +0.000 N 
ATOM     10  C   UNL     1      -3.941  14.519  23.568  0.00  0.00    +0.000 C 
ENDROOT
BRANCH   1  14
ATOM     11  C   UNL     1       0.072  13.952  20.677  0.00  0.00    +0.000 A 
ATOM     12  N   UNL     1      -0.405  15.161  20.505  0.00  0.00    +0.000 NA
ATOM     13  N   UNL     1      -1.760  15.115  20.748  0.00  0.00    +0.000 NA
ATOM     14  C   UNL     1      -2.108  13.871  21.048  0.00  0.00    +0.000 A 
ATOM     15  N   UNL     1      -0.946  13.089  21.075  0.00  0.00    +0.000 N 
BRANCH  15  16
ATOM     16  C   UNL     1      -0.852  11.699  21.400  0.00  0.00    +0.000 A 
ATOM     17  C   UNL     1      -0.821  11.283  22.741  0.00  0.00    +0.000 A 
ATOM     18  C   UNL     1      -0.478   9.977  23.061  0.00  0.00    +0.000 A 
ATOM     19  C   UNL     1      -0.116   9.077  22.059  0.00  0.00    +0.000 A 
ATOM     20  C   UNL     1      -0.161   9.474  20.724  0.00  0.00    +0.000 A 
ATOM     21  C   UNL     1      -0.586  10.762  20.388  0.00  0.00    +0.000 A 
ENDBRANCH  15  16
BRANCH  11  22
ATOM     22  S   UNL     1       1.747  13.494  20.483  0.00  0.00    +0.000 S 
BRANCH  22  24
ATOM     23  C   UNL     1       3.305  14.327  18.352  0.00  0.00    +0.000 C 
ATOM     24  C   UNL     1       2.069  13.504  18.697  0.00  0.00    +0.000 C 
ATOM     25  C   UNL     1       2.286  12.055  18.239  0.00  0.00    +0.000 C 
ENDBRANCH  22  24
ENDBRANCH  11  22
ENDBRANCH   1  14
BRANCH   2  26
ATOM     26  C   UNL     1      -3.947  11.929  19.163  0.00  0.00    +0.000 C 
BRANCH  26  27
ATOM     27  N   UNL     1      -4.809  12.467  18.099  0.00  0.00    +0.000 NA
ATOM     28  H   UNL     1      -4.500  13.408  17.873  0.00  0.00    +0.000 HD
BRANCH  27  29
ATOM     29  C   UNL     1      -4.778  11.642  16.899  0.00  0.00    +0.000 C 
BRANCH  29  30
ATOM     30  C   UNL     1      -3.365  11.183  16.660  0.00  0.00    +0.000 C 
ATOM     31  C   UNL     1      -3.019   9.736  16.415  0.00  0.00    +0.000 C 
ATOM     32  C   UNL     1      -2.954  10.729  15.276  0.00  0.00    +0.000 C 
ENDBRANCH  29  30
ENDBRANCH  27  29
ENDBRANCH  26  27
ENDBRANCH   2  26
TORSDOF 8
ENDMDL
MODEL 3
REMARK VINA RESULT:      -6.2      7.480     10.108
REMARK  Name = 
REMARK  11 active torsions:
REMARK  status: ('A' for Active; 'I' for Inactive)
REMARK    1  A    between atoms: C_1  and  C_2
REMARK    2  A    between atoms: C_2  and  C_3
REMARK    3  A    between atoms: C_2  and  S_4
REMARK    4  A    between atoms: S_4  and  C_5
REMARK    5  A    between atoms: C_8  and  C_9
REMARK    6  A    between atoms: C_10  and  C_11
REMARK    7  A    between atoms: C_11  and  N_12
REMARK    8  A    between atoms: N_12  and  C_13
REMARK    9  A    between atoms: C_13  and  C_14
REMARK   10  A    between atoms: N_23  and  C_24
REMARK   11  A    between atoms: N_25  and  C_26
REMARK                            x       y       z     vdW  Elec       q    Type
REMARK                         _______ _______ _______ _____ _____    ______ ____
ROOT
ATOM      1  C   UNL     1      -3.407  13.329  20.830  0.00  0.00    +0.000 A 
ATOM      2  C   UNL     1      -4.001  12.410  19.942  0.00  0.00    +0.000 A 
ATOM      3  C   UNL     1      -5.298  12.078  20.462  0.00  0.00    +0.000 A 
ATOM      4  C   UNL     1      -6.304  11.166  20.068  0.00  0.00    +0.000 A 
ATOM      5  C   UNL     1      -7.522  11.126  20.753  0.00  0.00    +0.000 A 
ATOM      6  C   UNL     1      -7.778  12.025  21.776  0.00  0.00    +0.000 A 
ATOM      7  C   UNL     1      -6.800  12.938  22.184  0.00  0.00    +0.000 A 
ATOM      8  C   UNL     1      -5.544  12.906  21.550  0.00  0.00    +0.000 A 
ATOM      9  N   UNL     1      -4.348  13.545  21.846  0.00  0.00    +0.000 N 
ATOM     10  C   UNL     1      -4.161  14.197  23.128  0.00  0.00    +0.000 C 
ENDROOT
BRANCH   1  14
ATOM     11  C   UNL     1       0.118  14.276  20.635  0.00  0.00    +0.000 A 
ATOM     12  N   UNL     1      -0.498  15.384  20.302  0.00  0.00    +0.000 NA
ATOM     13  N   UNL     1      -1.853  15.153  20.389  0.00  0.00    +0.000 NA
ATOM     14  C   UNL     1      -2.059  13.896  20.756  0.00  0.00    +0.000 A 
ATOM     15  N   UNL     1      -0.812  13.300  20.987  0.00  0.00    +0.000 N 
BRANCH  15  16
ATOM     16  C   UNL     1      -0.566  11.967  21.442  0.00  0.00    +0.000 A 
ATOM     17  C   UNL     1      -0.244  10.952  20.527  0.00  0.00    +0.000 A 
ATOM     18  C   UNL     1      -0.254   9.622  20.924  0.00  0.00    +0.000 A 
ATOM     19  C   UNL     1      -0.629   9.277  22.221  0.00  0.00    +0.000 A 
ATOM     20  C   UNL     1      -0.933  10.277  23.143  0.00  0.00    +0.000 A 
ATOM     21  C   UNL     1      -0.843  11.622  22.776  0.00  0.00    +0.000 A 
ENDBRANCH  15  16
BRANCH  11  22
ATOM     22  S   UNL     1       1.851  14.062  20.676  0.00  0.00    +0.000 S 
BRANCH  22  24
ATOM     23  C   UNL     1       3.871  14.557  18.851  0.00  0.00    +0.000 C 
ATOM     24  C   UNL     1       2.411  14.134  18.952  0.00  0.00    +0.000 C 
ATOM     25  C   UNL     1       2.248  12.737  18.335  0.00  0.00    +0.000 C 
ENDBRANCH  22  24
ENDBRANCH  11  22
ENDBRANCH   1  14
BRANCH   2  26
ATOM     26  C   UNL     1      -3.460  11.802  18.668  0.00  0.00    +0.000 C 
BRANCH  26  27
ATOM     27  N   UNL     1      -4.273  12.293  17.545  0.00  0.00    +0.000 NA
ATOM     28  H   UNL     1      -3.779  13.059  17.095  0.00  0.00    +0.000 HD
BRANCH  27  29
ATOM     29  C   UNL     1      -4.544  11.249  16.567  0.00  0.00    +0.000 C 
BRANCH  29  30
ATOM     30  C   UNL     1      -3.298  11.000  15.760  0.00  0.00    +0.000 C 
ATOM     31  C   UNL     1      -2.614   9.657  15.729  0.00  0.00    +0.000 C 
ATOM     32  C   UNL     1      -3.376  10.142  14.516  0.00  0.00    +0.000 C 
ENDBRANCH  29  30
ENDBRANCH  27  29
ENDBRANCH  26  27
ENDBRANCH   2  26
TORSDOF 8
ENDMDL
MODEL 4
REMARK VINA RESULT:      -6.1      0.609      1.050
REMARK  Name = 
REMARK  11 active torsions:
REMARK  status: ('A' for Active; 'I' for Inactive)
REMARK    1  A    between atoms: C_1  and  C_2
REMARK    2  A    between atoms: C_2  and  C_3
REMARK    3  A    between atoms: C_2  and  S_4
REMARK    4  A    between atoms: S_4  and  C_5
REMARK    5  A    between atoms: C_8  and  C_9
REMARK    6  A    between atoms: C_10  and  C_11
REMARK    7  A    between atoms: C_11  and  N_12
REMARK    8  A    between atoms: N_12  and  C_13
REMARK    9  A    between atoms: C_13  and  C_14
REMARK   10  A    between atoms: N_23  and  C_24
REMARK   11  A    between atoms: N_25  and  C_26
REMARK                            x       y       z     vdW  Elec       q    Type
REMARK                         _______ _______ _______ _____ _____    ______ ____
ROOT
ATOM      1  C   UNL     1       2.373   6.591  18.827  0.00  0.00    +0.000 A 
ATOM      2  C   UNL     1       1.993   6.411  20.171  0.00  0.00    +0.000 A 
ATOM      3  C   UNL     1       1.611   7.694  20.692  0.00  0.00    +0.000 A 
ATOM      4  C   UNL     1       1.230   8.154  21.973  0.00  0.00    +0.000 A 
ATOM      5  C   UNL     1       0.834   9.483  22.153  0.00  0.00    +0.000 A 
ATOM      6  C   UNL     1       0.749  10.339  21.066  0.00  0.00    +0.000 A 
ATOM      7  C   UNL     1       1.120   9.909  19.789  0.00  0.00    +0.000 A 
ATOM      8  C   UNL     1       1.606   8.596  19.636  0.00  0.00    +0.000 A 
ATOM      9  N   UNL     1       2.203   7.956  18.558  0.00  0.00    +0.000 N 
ATOM     10  C   UNL     1       2.676   8.720  17.420  0.00  0.00    +0.000 C 
ENDROOT
BRANCH   1  14
ATOM     11  C   UNL     1       4.141   4.160  16.747  0.00  0.00    +0.000 A 
ATOM     12  N   UNL     1       2.884   3.821  16.584  0.00  0.00    +0.000 NA
ATOM     13  N   UNL     1       2.114   4.713  17.296  0.00  0.00    +0.000 NA
ATOM     14  C   UNL     1       2.905   5.584  17.908  0.00  0.00    +0.000 A 
ATOM     15  N   UNL     1       4.228   5.305  17.536  0.00  0.00    +0.000 N 
BRANCH  15  16
ATOM     16  C   UNL     1       5.401   6.024  17.926  0.00  0.00    +0.000 A 
ATOM     17  C   UNL     1       5.844   7.123  17.173  0.00  0.00    +0.000 A 
ATOM     18  C   UNL     1       7.104   7.661  17.394  0.00  0.00    +0.000 A 
ATOM     19  C   UNL     1       7.961   7.087  18.332  0.00  0.00    +0.000 A 
ATOM     20  C   UNL     1       7.525   6.007  19.098  0.00  0.00    +0.000 A 
ATOM     21  C   UNL     1       6.227   5.513  18.941  0.00  0.00    +0.000 A 
ENDBRANCH  15  16
BRANCH  11  22
ATOM     22  S   UNL     1       5.506   3.328  16.043  0.00  0.00    +0.000 S 
BRANCH  22  24
ATOM     23  C   UNL     1       7.465   4.894  14.875  0.00  0.00    +0.000 C 
ATOM     24  C   UNL     1       6.058   4.353  14.651  0.00  0.00    +0.000 C 
ATOM     25  C   UNL     1       6.048   3.487  13.383  0.00  0.00    +0.000 C 
ENDBRANCH  22  24
ENDBRANCH  11  22
ENDBRANCH   1  14
BRANCH   2  26
ATOM     26  C   UNL     1       1.972   5.156  21.015  0.00  0.00    +0.000 C 
BRANCH  26  27
ATOM     27  N   UNL     1       3.269   4.479  20.861  0.00  0.00    +0.000 NA
ATOM     28  H   UNL     1       3.763   4.515  21.748  0.00  0.00    +0.000 HD
BRANCH  27  29
ATOM     29  C   UNL     1       3.117   3.093  20.444  0.00  0.00    +0.000 C 
BRANCH  29  30
ATOM     30  C   UNL     1       1.661   2.718  20.517  0.00  0.00    +0.000 C 
ATOM     31  C   UNL     1       0.662   3.161  19.479  0.00  0.00    +0.000 C 
ATOM     32  C   UNL     1       1.100   1.714  19.533  0.00  0.00    +0.000 C 
ENDBRANCH  29  30
ENDBRANCH  27  29
ENDBRANCH  26  27
ENDBRANCH   2  26
TORSDOF 8
ENDMDL
MODEL 5
REMARK VINA RESULT:      -6.1      7.435     11.719
REMARK  Name = 
REMARK  11 active torsions:
REMARK  status: ('A' for Active; 'I' for Inactive)
REMARK    1  A    between atoms: C_1  and  C_2
REMARK    2  A    between atoms: C_2  and  C_3
REMARK    3  A    between atoms: C_2  and  S_4
REMARK    4  A    between atoms: S_4  and  C_5
REMARK    5  A    between atoms: C_8  and  C_9
REMARK    6  A    between atoms: C_10  and  C_11
REMARK    7  A    between atoms: C_11  and  N_12
REMARK    8  A    between atoms: N_12  and  C_13
REMARK    9  A    between atoms: C_13  and  C_14
REMARK   10  A    between atoms: N_23  and  C_24
REMARK   11  A    between atoms: N_25  and  C_26
REMARK                            x       y       z     vdW  Elec       q    Type
REMARK                         _______ _______ _______ _____ _____    ______ ____
ROOT
ATOM      1  C   UNL     1      -2.633  12.705  21.059  0.00  0.00    +0.000 A 
ATOM      2  C   UNL     1      -1.617  12.232  20.206  0.00  0.00    +0.000 A 
ATOM      3  C   UNL     1      -0.772  11.361  20.975  0.00  0.00    +0.000 A 
ATOM      4  C   UNL     1       0.432  10.673  20.699  0.00  0.00    +0.000 A 
ATOM      5  C   UNL     1       0.988   9.820  21.657  0.00  0.00    +0.000 A 
ATOM      6  C   UNL     1       0.329   9.591  22.855  0.00  0.00    +0.000 A 
ATOM      7  C   UNL     1      -0.862  10.259  23.152  0.00  0.00    +0.000 A 
ATOM      8  C   UNL     1      -1.364  11.187  22.220  0.00  0.00    +0.000 A 
ATOM      9  N   UNL     1      -2.398  12.109  22.306  0.00  0.00    +0.000 N 
ATOM     10  C   UNL     1      -2.984  12.438  23.590  0.00  0.00    +0.000 C 
ENDROOT
BRANCH   1  14
ATOM     11  C   UNL     1      -5.574  14.750  20.329  0.00  0.00    +0.000 A 
ATOM     12  N   UNL     1      -4.652  15.648  20.581  0.00  0.00    +0.000 NA
ATOM     13  N   UNL     1      -3.472  14.981  20.826  0.00  0.00    +0.000 NA
ATOM     14  C   UNL     1      -3.683  13.674  20.742  0.00  0.00    +0.000 A 
ATOM     15  N   UNL     1      -5.017  13.473  20.362  0.00  0.00    +0.000 N 
BRANCH  15  16
ATOM     16  C   UNL     1      -5.661  12.221  20.111  0.00  0.00    +0.000 A 
ATOM     17  C   UNL     1      -5.427  11.529  18.912  0.00  0.00    +0.000 A 
ATOM     18  C   UNL     1      -6.230  10.456  18.554  0.00  0.00    +0.000 A 
ATOM     19  C   UNL     1      -7.306  10.082  19.358  0.00  0.00    +0.000 A 
ATOM     20  C   UNL     1      -7.537  10.750  20.560  0.00  0.00    +0.000 A 
ATOM     21  C   UNL     1      -6.682  11.777  20.968  0.00  0.00    +0.000 A 
ENDBRANCH  15  16
BRANCH  11  22
ATOM     22  S   UNL     1      -7.244  15.100  19.959  0.00  0.00    +0.000 S 
BRANCH  22  24
ATOM     23  C   UNL     1      -6.359  16.858  18.014  0.00  0.00    +0.000 C 
ATOM     24  C   UNL     1      -7.273  15.659  18.233  0.00  0.00    +0.000 C 
ATOM     25  C   UNL     1      -6.803  14.499  17.344  0.00  0.00    +0.000 C 
ENDBRANCH  22  24
ENDBRANCH  11  22
ENDBRANCH   1  14
BRANCH   2  26
ATOM     26  C   UNL     1      -1.353  12.534  18.748  0.00  0.00    +0.000 C 
BRANCH  26  27
ATOM     27  N   UNL     1      -0.961  11.281  18.084  0.00  0.00    +0.000 NA
ATOM     28  H   UNL     1      -0.394  10.736  18.728  0.00  0.00    +0.000 HD
BRANCH  27  29
ATOM     29  C   UNL     1      -2.115  10.497  17.668  0.00  0.00    +0.000 C 
BRANCH  29  30
ATOM     30  C   UNL     1      -2.387  10.765  16.212  0.00  0.00    +0.000 C 
ATOM     31  C   UNL     1      -3.069   9.758  15.322  0.00  0.00    +0.000 C 
ATOM     32  C   UNL     1      -3.809  11.004  15.753  0.00  0.00    +0.000 C 
ENDBRANCH  29  30
ENDBRANCH  27  29
ENDBRANCH  26  27
ENDBRANCH   2  26
TORSDOF 8
ENDMDL
MODEL 6
REMARK VINA RESULT:      -6.0      6.968     11.805
REMARK  Name = 
REMARK  11 active torsions:
REMARK  status: ('A' for Active; 'I' for Inactive)
REMARK    1  A    between atoms: C_1  and  C_2
REMARK    2  A    between atoms: C_2  and  C_3
REMARK    3  A    between atoms: C_2  and  S_4
REMARK    4  A    between atoms: S_4  and  C_5
REMARK    5  A    between atoms: C_8  and  C_9
REMARK    6  A    between atoms: C_10  and  C_11
REMARK    7  A    between atoms: C_11  and  N_12
REMARK    8  A    between atoms: N_12  and  C_13
REMARK    9  A    between atoms: C_13  and  C_14
REMARK   10  A    between atoms: N_23  and  C_24
REMARK   11  A    between atoms: N_25  and  C_26
REMARK                            x       y       z     vdW  Elec       q    Type
REMARK                         _______ _______ _______ _____ _____    ______ ____
ROOT
ATOM      1  C   UNL     1      -1.867  12.550  20.804  0.00  0.00    +0.000 A 
ATOM      2  C   UNL     1      -1.005  12.077  19.795  0.00  0.00    +0.000 A 
ATOM      3  C   UNL     1      -0.280  10.958  20.330  0.00  0.00    +0.000 A 
ATOM      4  C   UNL     1       0.764  10.143  19.835  0.00  0.00    +0.000 A 
ATOM      5  C   UNL     1       1.220   9.055  20.584  0.00  0.00    +0.000 A 
ATOM      6  C   UNL     1       0.608   8.727  21.783  0.00  0.00    +0.000 A 
ATOM      7  C   UNL     1      -0.427   9.515  22.295  0.00  0.00    +0.000 A 
ATOM      8  C   UNL     1      -0.815  10.663  21.578  0.00  0.00    +0.000 A 
ATOM      9  N   UNL     1      -1.663  11.712  21.909  0.00  0.00    +0.000 N 
ATOM     10  C   UNL     1      -2.101  11.897  23.278  0.00  0.00    +0.000 C 
ENDROOT
BRANCH   1  14
ATOM     11  C   UNL     1      -4.440  15.144  20.720  0.00  0.00    +0.000 A 
ATOM     12  N   UNL     1      -3.348  15.828  20.963  0.00  0.00    +0.000 NA
ATOM     13  N   UNL     1      -2.292  14.943  20.969  0.00  0.00    +0.000 NA
ATOM     14  C   UNL     1      -2.748  13.718  20.749  0.00  0.00    +0.000 A 
ATOM     15  N   UNL     1      -4.128  13.802  20.521  0.00  0.00    +0.000 N 
BRANCH  15  16
ATOM     16  C   UNL     1      -5.014  12.726  20.200  0.00  0.00    +0.000 A 
ATOM     17  C   UNL     1      -5.133  12.275  18.875  0.00  0.00    +0.000 A 
ATOM     18  C   UNL     1      -6.163  11.416  18.518  0.00  0.00    +0.000 A 
ATOM     19  C   UNL     1      -7.116  11.028  19.458  0.00  0.00    +0.000 A 
ATOM     20  C   UNL     1      -6.997  11.455  20.780  0.00  0.00    +0.000 A 
ATOM     21  C   UNL     1      -5.916  12.251  21.167  0.00  0.00    +0.000 A 
ENDBRANCH  15  16
BRANCH  11  22
ATOM     22  S   UNL     1      -6.047  15.821  20.615  0.00  0.00    +0.000 S 
BRANCH  22  24
ATOM     23  C   UNL     1      -5.952  15.241  23.319  0.00  0.00    +0.000 C 
ATOM     24  C   UNL     1      -6.537  16.227  22.315  0.00  0.00    +0.000 C 
ATOM     25  C   UNL     1      -6.026  17.638  22.638  0.00  0.00    +0.000 C 
ENDBRANCH  22  24
ENDBRANCH  11  22
ENDBRANCH   1  14
BRANCH   2  26
ATOM     26  C   UNL     1      -0.784  12.587  18.389  0.00  0.00    +0.000 C 
BRANCH  26  27
ATOM     27  N   UNL     1      -1.872  12.077  17.541  0.00  0.00    +0.000 NA
ATOM     28  H   UNL     1      -1.857  12.577  16.656  0.00  0.00    +0.000 HD
BRANCH  27  29
ATOM     29  C   UNL     1      -1.749  10.647  17.293  0.00  0.00    +0.000 C 
BRANCH  29  30
ATOM     30  C   UNL     1      -3.009  10.157  16.632  0.00  0.00    +0.000 C 
ATOM     31  C   UNL     1      -3.768  10.987  15.629  0.00  0.00    +0.000 C 
ATOM     32  C   UNL     1      -2.982   9.780  15.167  0.00  0.00    +0.000 C 
ENDBRANCH  29  30
ENDBRANCH  27  29
ENDBRANCH  26  27
ENDBRANCH   2  26
TORSDOF 8
ENDMDL
MODEL 7
REMARK VINA RESULT:      -5.8      5.412     10.219
REMARK  Name = 
REMARK  11 active torsions:
REMARK  status: ('A' for Active; 'I' for Inactive)
REMARK    1  A    between atoms: C_1  and  C_2
REMARK    2  A    between atoms: C_2  and  C_3
REMARK    3  A    between atoms: C_2  and  S_4
REMARK    4  A    between atoms: S_4  and  C_5
REMARK    5  A    between atoms: C_8  and  C_9
REMARK    6  A    between atoms: C_10  and  C_11
REMARK    7  A    between atoms: C_11  and  N_12
REMARK    8  A    between atoms: N_12  and  C_13
REMARK    9  A    between atoms: C_13  and  C_14
REMARK   10  A    between atoms: N_23  and  C_24
REMARK   11  A    between atoms: N_25  and  C_26
REMARK                            x       y       z     vdW  Elec       q    Type
REMARK                         _______ _______ _______ _____ _____    ______ ____
ROOT
ATOM      1  C   UNL     1      -0.212  10.691  21.037  0.00  0.00    +0.000 A 
ATOM      2  C   UNL     1      -0.253  10.725  19.629  0.00  0.00    +0.000 A 
ATOM      3  C   UNL     1       0.675   9.743  19.143  0.00  0.00    +0.000 A 
ATOM      4  C   UNL     1       1.128   9.381  17.853  0.00  0.00    +0.000 A 
ATOM      5  C   UNL     1       2.004   8.304  17.693  0.00  0.00    +0.000 A 
ATOM      6  C   UNL     1       2.382   7.543  18.789  0.00  0.00    +0.000 A 
ATOM      7  C   UNL     1       1.948   7.879  20.074  0.00  0.00    +0.000 A 
ATOM      8  C   UNL     1       1.141   9.022  20.235  0.00  0.00    +0.000 A 
ATOM      9  N   UNL     1       0.714   9.694  21.372  0.00  0.00    +0.000 N 
ATOM     10  C   UNL     1       1.319   9.417  22.660  0.00  0.00    +0.000 C 
ENDROOT
BRANCH   1  14
ATOM     11  C   UNL     1      -1.911  13.227  23.049  0.00  0.00    +0.000 A 
ATOM     12  N   UNL     1      -2.368  12.105  23.551  0.00  0.00    +0.000 NA
ATOM     13  N   UNL     1      -1.749  11.067  22.890  0.00  0.00    +0.000 NA
ATOM     14  C   UNL     1      -0.930  11.560  21.971  0.00  0.00    +0.000 A 
ATOM     15  N   UNL     1      -0.953  12.958  22.074  0.00  0.00    +0.000 N 
BRANCH  15  16
ATOM     16  C   UNL     1      -0.186  13.889  21.306  0.00  0.00    +0.000 A 
ATOM     17  C   UNL     1       1.151  14.156  21.643  0.00  0.00    +0.000 A 
ATOM     18  C   UNL     1       1.816  15.231  21.070  0.00  0.00    +0.000 A 
ATOM     19  C   UNL     1       1.151  16.084  20.191  0.00  0.00    +0.000 A 
ATOM     20  C   UNL     1      -0.170  15.818  19.835  0.00  0.00    +0.000 A 
ATOM     21  C   UNL     1      -0.820  14.690  20.342  0.00  0.00    +0.000 A 
ENDBRANCH  15  16
BRANCH  11  22
ATOM     22  S   UNL     1      -2.395  14.826  23.555  0.00  0.00    +0.000 S 
BRANCH  22  24
ATOM     23  C   UNL     1      -0.383  16.690  23.922  0.00  0.00    +0.000 C 
ATOM     24  C   UNL     1      -1.032  15.471  24.565  0.00  0.00    +0.000 C 
ATOM     25  C   UNL     1      -1.596  15.866  25.938  0.00  0.00    +0.000 C 
ENDBRANCH  22  24
ENDBRANCH  11  22
ENDBRANCH   1  14
BRANCH   2  26
ATOM     26  C   UNL     1      -1.064  11.602  18.702  0.00  0.00    +0.000 C 
BRANCH  26  27
ATOM     27  N   UNL     1      -2.443  11.093  18.679  0.00  0.00    +0.000 NA
ATOM     28  H   UNL     1      -2.913  11.388  19.531  0.00  0.00    +0.000 HD
BRANCH  27  29
ATOM     29  C   UNL     1      -3.185  11.573  17.522  0.00  0.00    +0.000 C 
BRANCH  29  30
ATOM     30  C   UNL     1      -2.548  11.027  16.273  0.00  0.00    +0.000 C 
ATOM     31  C   UNL     1      -2.631   9.570  15.896  0.00  0.00    +0.000 C 
ATOM     32  C   UNL     1      -3.424  10.595  15.118  0.00  0.00    +0.000 C 
ENDBRANCH  29  30
ENDBRANCH  27  29
ENDBRANCH  26  27
ENDBRANCH   2  26
TORSDOF 8
ENDMDL
MODEL 8
REMARK VINA RESULT:      -5.8      7.185     10.124
REMARK  Name = 
REMARK  11 active torsions:
REMARK  status: ('A' for Active; 'I' for Inactive)
REMARK    1  A    between atoms: C_1  and  C_2
REMARK    2  A    between atoms: C_2  and  C_3
REMARK    3  A    between atoms: C_2  and  S_4
REMARK    4  A    between atoms: S_4  and  C_5
REMARK    5  A    between atoms: C_8  and  C_9
REMARK    6  A    between atoms: C_10  and  C_11
REMARK    7  A    between atoms: C_11  and  N_12
REMARK    8  A    between atoms: N_12  and  C_13
REMARK    9  A    between atoms: C_13  and  C_14
REMARK   10  A    between atoms: N_23  and  C_24
REMARK   11  A    between atoms: N_25  and  C_26
REMARK                            x       y       z     vdW  Elec       q    Type
REMARK                         _______ _______ _______ _____ _____    ______ ____
ROOT
ATOM      1  C   UNL     1      -2.797  12.671  19.762  0.00  0.00    +0.000 A 
ATOM      2  C   UNL     1      -3.891  12.843  20.633  0.00  0.00    +0.000 A 
ATOM      3  C   UNL     1      -5.020  12.171  20.052  0.00  0.00    +0.000 A 
ATOM      4  C   UNL     1      -6.385  12.067  20.407  0.00  0.00    +0.000 A 
ATOM      5  C   UNL     1      -7.245  11.256  19.662  0.00  0.00    +0.000 A 
ATOM      6  C   UNL     1      -6.752  10.496  18.612  0.00  0.00    +0.000 A 
ATOM      7  C   UNL     1      -5.407  10.579  18.241  0.00  0.00    +0.000 A 
ATOM      8  C   UNL     1      -4.571  11.471  18.939  0.00  0.00    +0.000 A 
ATOM      9  N   UNL     1      -3.272  11.896  18.695  0.00  0.00    +0.000 N 
ATOM     10  C   UNL     1      -2.642  11.637  17.416  0.00  0.00    +0.000 C 
ENDROOT
BRANCH   1  14
ATOM     11  C   UNL     1       0.704  13.624  20.203  0.00  0.00    +0.000 A 
ATOM     12  N   UNL     1       0.205  14.648  19.553  0.00  0.00    +0.000 NA
ATOM     13  N   UNL     1      -1.140  14.414  19.372  0.00  0.00    +0.000 NA
ATOM     14  C   UNL     1      -1.454  13.237  19.896  0.00  0.00    +0.000 A 
ATOM     15  N   UNL     1      -0.304  12.711  20.501  0.00  0.00    +0.000 N 
BRANCH  15  16
ATOM     16  C   UNL     1      -0.199  11.481  21.225  0.00  0.00    +0.000 A 
ATOM     17  C   UNL     1       0.186  10.301  20.568  0.00  0.00    +0.000 A 
ATOM     18  C   UNL     1       0.046   9.072  21.197  0.00  0.00    +0.000 A 
ATOM     19  C   UNL     1      -0.520   8.992  22.468  0.00  0.00    +0.000 A 
ATOM     20  C   UNL     1      -0.888  10.158  23.137  0.00  0.00    +0.000 A 
ATOM     21  C   UNL     1      -0.673  11.405  22.545  0.00  0.00    +0.000 A 
ENDBRANCH  15  16
BRANCH  11  22
ATOM     22  S   UNL     1       2.378  13.448  20.669  0.00  0.00    +0.000 S 
BRANCH  22  24
ATOM     23  C   UNL     1       4.650  14.995  20.347  0.00  0.00    +0.000 C 
ATOM     24  C   UNL     1       3.302  14.681  19.710  0.00  0.00    +0.000 C 
ATOM     25  C   UNL     1       3.531  14.118  18.300  0.00  0.00    +0.000 C 
ENDBRANCH  22  24
ENDBRANCH  11  22
ENDBRANCH   1  14
BRANCH   2  26
ATOM     26  C   UNL     1      -3.983  13.594  21.943  0.00  0.00    +0.000 C 
BRANCH  26  27
ATOM     27  N   UNL     1      -4.161  12.610  23.022  0.00  0.00    +0.000 NA
ATOM     28  H   UNL     1      -3.763  11.724  22.724  0.00  0.00    +0.000 HD
BRANCH  27  29
ATOM     29  C   UNL     1      -3.527  13.037  24.261  0.00  0.00    +0.000 C 
BRANCH  29  30
ATOM     30  C   UNL     1      -3.023  14.444  24.093  0.00  0.00    +0.000 C 
ATOM     31  C   UNL     1      -2.890  15.397  25.253  0.00  0.00    +0.000 C 
ATOM     32  C   UNL     1      -1.651  14.811  24.615  0.00  0.00    +0.000 C 
ENDBRANCH  29  30
ENDBRANCH  27  29
ENDBRANCH  26  27
ENDBRANCH   2  26
TORSDOF 8
ENDMDL
MODEL 9
REMARK VINA RESULT:      -5.7      7.524     10.235
REMARK  Name = 
REMARK  11 active torsions:
REMARK  status: ('A' for Active; 'I' for Inactive)
REMARK    1  A    between atoms: C_1  and  C_2
REMARK    2  A    between atoms: C_2  and  C_3
REMARK    3  A    between atoms: C_2  and  S_4
REMARK    4  A    between atoms: S_4  and  C_5
REMARK    5  A    between atoms: C_8  and  C_9
REMARK    6  A    between atoms: C_10  and  C_11
REMARK    7  A    between atoms: C_11  and  N_12
REMARK    8  A    between atoms: N_12  and  C_13
REMARK    9  A    between atoms: C_13  and  C_14
REMARK   10  A    between atoms: N_23  and  C_24
REMARK   11  A    between atoms: N_25  and  C_26
REMARK                            x       y       z     vdW  Elec       q    Type
REMARK                         _______ _______ _______ _____ _____    ______ ____
ROOT
ATOM      1  C   UNL     1      -3.550  13.640  21.608  0.00  0.00    +0.000 A 
ATOM      2  C   UNL     1      -4.479  13.102  20.696  0.00  0.00    +0.000 A 
ATOM      3  C   UNL     1      -5.604  12.623  21.452  0.00  0.00    +0.000 A 
ATOM      4  C   UNL     1      -6.783  11.922  21.111  0.00  0.00    +0.000 A 
ATOM      5  C   UNL     1      -7.749  11.657  22.085  0.00  0.00    +0.000 A 
ATOM      6  C   UNL     1      -7.590  12.139  23.375  0.00  0.00    +0.000 A 
ATOM      7  C   UNL     1      -6.434  12.836  23.738  0.00  0.00    +0.000 A 
ATOM      8  C   UNL     1      -5.425  13.015  22.772  0.00  0.00    +0.000 A 
ATOM      9  N   UNL     1      -4.126  13.494  22.877  0.00  0.00    +0.000 N 
ATOM     10  C   UNL     1      -3.502  13.648  24.176  0.00  0.00    +0.000 C 
ENDROOT
BRANCH   1  14
ATOM     11  C   UNL     1      -0.097  14.517  20.788  0.00  0.00    +0.000 A 
ATOM     12  N   UNL     1      -0.722  15.664  20.675  0.00  0.00    +0.000 NA
ATOM     13  N   UNL     1      -2.041  15.458  21.012  0.00  0.00    +0.000 NA
ATOM     14  C   UNL     1      -2.221  14.179  21.312  0.00  0.00    +0.000 A 
ATOM     15  N   UNL     1      -0.978  13.537  21.241  0.00  0.00    +0.000 N 
BRANCH  15  16
ATOM     16  C   UNL     1      -0.701  12.164  21.530  0.00  0.00    +0.000 A 
ATOM     17  C   UNL     1      -0.502  11.244  20.488  0.00  0.00    +0.000 A 
ATOM     18  C   UNL     1      -0.486   9.881  20.749  0.00  0.00    +0.000 A 
ATOM     19  C   UNL     1      -0.713   9.409  22.042  0.00  0.00    +0.000 A 
ATOM     20  C   UNL     1      -0.892  10.314  23.087  0.00  0.00    +0.000 A 
ATOM     21  C   UNL     1      -0.826  11.689  22.846  0.00  0.00    +0.000 A 
ENDBRANCH  15  16
BRANCH  11  22
ATOM     22  S   UNL     1       1.600  14.260  20.466  0.00  0.00    +0.000 S 
BRANCH  22  24
ATOM     23  C   UNL     1       2.769  15.123  18.111  0.00  0.00    +0.000 C 
ATOM     24  C   UNL     1       1.757  14.126  18.663  0.00  0.00    +0.000 C 
ATOM     25  C   UNL     1       2.218  12.701  18.325  0.00  0.00    +0.000 C 
ENDBRANCH  22  24
ENDBRANCH  11  22
ENDBRANCH   1  14
BRANCH   2  26
ATOM     26  C   UNL     1      -4.404  12.976  19.191  0.00  0.00    +0.000 C 
BRANCH  26  27
ATOM     27  N   UNL     1      -3.784  11.682  18.870  0.00  0.00    +0.000 NA
ATOM     28  H   UNL     1      -4.117  10.988  19.533  0.00  0.00    +0.000 HD
BRANCH  27  29
ATOM     29  C   UNL     1      -4.092  11.248  17.515  0.00  0.00    +0.000 C 
BRANCH  29  30
ATOM     30  C   UNL     1      -2.804  11.038  16.764  0.00  0.00    +0.000 C 
ATOM     31  C   UNL     1      -1.846   9.926  17.105  0.00  0.00    +0.000 C 
ATOM     32  C   UNL     1      -2.668   9.850  15.838  0.00  0.00    +0.000 C 
ENDBRANCH  29  30
ENDBRANCH  27  29
ENDBRANCH  26  27
ENDBRANCH   2  26
TORSDOF 8
ENDMDL
