MODEL 1
REMARK VINA RESULT:      -8.7      0.000      0.000
REMARK  Name = 
REMARK  4 active torsions:
REMARK  status: ('A' for Active; 'I' for Inactive)
REMARK    1  A    between atoms: C_2  and  O_3
REMARK    2  A    between atoms: C_2  and  C_4
REMARK    3  A    between atoms: C_12  and  S_13
REMARK    4  A    between atoms: S_13  and  N_16
REMARK                            x       y       z     vdW  Elec       q    Type
REMARK                         _______ _______ _______ _____ _____    ______ ____
ROOT
ATOM      1  C   UNL     1      -0.208  11.991  19.514  0.00  0.00    +0.000 A 
ATOM      2  C   UNL     1      -0.732  11.543  20.736  0.00  0.00    +0.000 A 
ATOM      3  C   UNL     1      -0.376  10.279  21.239  0.00  0.00    +0.000 A 
ATOM      4  C   UNL     1       0.476   9.443  20.510  0.00  0.00    +0.000 A 
ATOM      5  O   UNL     1       0.773   8.209  21.047  0.00  0.00    +0.000 OA
ATOM      6  C   UNL     1       1.584   7.360  20.325  0.00  0.00    +0.000 A 
ATOM      7  C   UNL     1       1.913   6.131  20.906  0.00  0.00    +0.000 A 
ATOM      8  C   UNL     1       2.761   5.235  20.232  0.00  0.00    +0.000 A 
ATOM      9  C   UNL     1       3.269   5.565  18.966  0.00  0.00    +0.000 A 
ATOM     10  C   UNL     1       2.935   6.781  18.375  0.00  0.00    +0.000 A 
ATOM     11  C   UNL     1       2.103   7.669  19.068  0.00  0.00    +0.000 A 
ATOM     12  C   UNL     1       1.801   8.984  18.492  0.00  0.00    +0.000 A 
ATOM     13  O   UNL     1       2.242   9.309  17.394  0.00  0.00    +0.000 OA
ATOM     14  C   UNL     1       0.965   9.885  19.285  0.00  0.00    +0.000 A 
ATOM     15  C   UNL     1       0.644  11.154  18.789  0.00  0.00    +0.000 A 
ENDROOT
BRANCH   9  16
ATOM     16  S   UNL     1       4.521   4.554  18.195  0.00  0.00    +0.000 S 
ATOM     17  O   UNL     1       5.275   3.944  19.273  0.00  0.00    +0.000 OA
ATOM     18  O   UNL     1       3.864   3.731  17.205  0.00  0.00    +0.000 OA
BRANCH  16  19
ATOM     19  N   UNL     1       5.560   5.643  17.390  0.00  0.00    +0.000 NA
ATOM     20  C   UNL     1       5.684   5.529  15.906  0.00  0.00    +0.000 C 
ATOM     21  C   UNL     1       6.571   4.344  15.505  0.00  0.00    +0.000 C 
ATOM     22  O   UNL     1       7.879   4.454  16.084  0.00  0.00    +0.000 OA
ATOM     23  C   UNL     1       7.827   4.557  17.516  0.00  0.00    +0.000 C 
ATOM     24  C   UNL     1       6.945   5.726  17.977  0.00  0.00    +0.000 C 
ENDBRANCH  16  19
ENDBRANCH   9  16
BRANCH   1  26
ATOM     25  O   UNL     1      -0.545  14.347  19.521  0.00  0.00    +0.000 OA
ATOM     26  C   UNL     1      -0.574  13.297  18.901  0.00  0.00    +0.000 C 
BRANCH  26  27
ATOM     27  O   UNL     1      -0.973  13.214  17.615  0.00  0.00    +0.000 OA
ATOM     28  H   UNL     1      -0.461  12.610  17.051  0.00  0.00    +0.000 HD
ENDBRANCH  26  27
ENDBRANCH   1  26
TORSDOF 4
ENDMDL
MODEL 2
REMARK VINA RESULT:      -8.1      2.338      3.800
REMARK  Name = 
REMARK  4 active torsions:
REMARK  status: ('A' for Active; 'I' for Inactive)
REMARK    1  A    between atoms: C_2  and  O_3
REMARK    2  A    between atoms: C_2  and  C_4
REMARK    3  A    between atoms: C_12  and  S_13
REMARK    4  A    between atoms: S_13  and  N_16
REMARK                            x       y       z     vdW  Elec       q    Type
REMARK                         _______ _______ _______ _____ _____    ______ ____
ROOT
ATOM      1  C   UNL     1      -1.898  12.387  21.684  0.00  0.00    +0.000 A 
ATOM      2  C   UNL     1      -1.711  13.049  20.460  0.00  0.00    +0.000 A 
ATOM      3  C   UNL     1      -0.905  12.476  19.461  0.00  0.00    +0.000 A 
ATOM      4  C   UNL     1      -0.255  11.259  19.688  0.00  0.00    +0.000 A 
ATOM      5  O   UNL     1       0.535  10.758  18.676  0.00  0.00    +0.000 OA
ATOM      6  C   UNL     1       1.208   9.574  18.898  0.00  0.00    +0.000 A 
ATOM      7  C   UNL     1       1.968   9.057  17.844  0.00  0.00    +0.000 A 
ATOM      8  C   UNL     1       2.653   7.839  17.999  0.00  0.00    +0.000 A 
ATOM      9  C   UNL     1       2.587   7.145  19.217  0.00  0.00    +0.000 A 
ATOM     10  C   UNL     1       1.844   7.662  20.275  0.00  0.00    +0.000 A 
ATOM     11  C   UNL     1       1.154   8.868  20.098  0.00  0.00    +0.000 A 
ATOM     12  C   UNL     1       0.308   9.387  21.178  0.00  0.00    +0.000 A 
ATOM     13  O   UNL     1       0.217   8.797  22.250  0.00  0.00    +0.000 OA
ATOM     14  C   UNL     1      -0.424  10.626  20.916  0.00  0.00    +0.000 A 
ATOM     15  C   UNL     1      -1.249  11.170  21.907  0.00  0.00    +0.000 A 
ENDROOT
BRANCH   9  16
ATOM     16  S   UNL     1       3.254   5.496  19.364  0.00  0.00    +0.000 S 
ATOM     17  O   UNL     1       4.695   5.644  19.441  0.00  0.00    +0.000 OA
ATOM     18  O   UNL     1       2.530   4.830  20.422  0.00  0.00    +0.000 OA
BRANCH  16  19
ATOM     19  N   UNL     1       2.892   4.721  17.888  0.00  0.00    +0.000 NA
ATOM     20  C   UNL     1       1.506   4.196  17.691  0.00  0.00    +0.000 C 
ATOM     21  C   UNL     1       1.285   2.890  18.464  0.00  0.00    +0.000 C 
ATOM     22  O   UNL     1       2.233   1.887  18.073  0.00  0.00    +0.000 OA
ATOM     23  C   UNL     1       3.588   2.328  18.248  0.00  0.00    +0.000 C 
ATOM     24  C   UNL     1       3.867   3.640  17.499  0.00  0.00    +0.000 C 
ENDBRANCH  16  19
ENDBRANCH   9  16
BRANCH   1  26
ATOM     25  O   UNL     1      -2.731  14.147  23.053  0.00  0.00    +0.000 OA
ATOM     26  C   UNL     1      -2.702  12.954  22.801  0.00  0.00    +0.000 C 
BRANCH  26  27
ATOM     27  O   UNL     1      -3.365  12.033  23.531  0.00  0.00    +0.000 OA
ATOM     28  H   UNL     1      -4.319  11.963  23.357  0.00  0.00    +0.000 HD
ENDBRANCH  26  27
ENDBRANCH   1  26
TORSDOF 4
ENDMDL
MODEL 3
REMARK VINA RESULT:      -8.0      2.704      4.225
REMARK  Name = 
REMARK  4 active torsions:
REMARK  status: ('A' for Active; 'I' for Inactive)
REMARK    1  A    between atoms: C_2  and  O_3
REMARK    2  A    between atoms: C_2  and  C_4
REMARK    3  A    between atoms: C_12  and  S_13
REMARK    4  A    between atoms: S_13  and  N_16
REMARK                            x       y       z     vdW  Elec       q    Type
REMARK                         _______ _______ _______ _____ _____    ______ ____
ROOT
ATOM      1  C   UNL     1      -1.853  12.236  22.207  0.00  0.00    +0.000 A 
ATOM      2  C   UNL     1      -1.686  13.077  21.095  0.00  0.00    +0.000 A 
ATOM      3  C   UNL     1      -0.911  12.658  19.999  0.00  0.00    +0.000 A 
ATOM      4  C   UNL     1      -0.271  11.414  20.021  0.00  0.00    +0.000 A 
ATOM      5  O   UNL     1       0.489  11.068  18.925  0.00  0.00    +0.000 OA
ATOM      6  C   UNL     1       1.153   9.859  18.945  0.00  0.00    +0.000 A 
ATOM      7  C   UNL     1       1.882   9.503  17.806  0.00  0.00    +0.000 A 
ATOM      8  C   UNL     1       2.555   8.270  17.755  0.00  0.00    +0.000 A 
ATOM      9  C   UNL     1       2.510   7.398  18.853  0.00  0.00    +0.000 A 
ATOM     10  C   UNL     1       1.798   7.752  19.997  0.00  0.00    +0.000 A 
ATOM     11  C   UNL     1       1.119   8.977  20.024  0.00  0.00    +0.000 A 
ATOM     12  C   UNL     1       0.304   9.331  21.192  0.00  0.00    +0.000 A 
ATOM     13  O   UNL     1       0.231   8.584  22.162  0.00  0.00    +0.000 OA
ATOM     14  C   UNL     1      -0.419  10.602  21.141  0.00  0.00    +0.000 A 
ATOM     15  C   UNL     1      -1.214  10.994  22.224  0.00  0.00    +0.000 A 
ENDROOT
BRANCH   9  16
ATOM     16  S   UNL     1       3.160   5.741  18.729  0.00  0.00    +0.000 S 
ATOM     17  O   UNL     1       3.777   5.641  17.420  0.00  0.00    +0.000 OA
ATOM     18  O   UNL     1       3.934   5.489  19.923  0.00  0.00    +0.000 OA
BRANCH  16  19
ATOM     19  N   UNL     1       1.799   4.712  18.739  0.00  0.00    +0.000 NA
ATOM     20  C   UNL     1       1.450   4.021  20.017  0.00  0.00    +0.000 C 
ATOM     21  C   UNL     1       2.383   2.835  20.288  0.00  0.00    +0.000 C 
ATOM     22  O   UNL     1       2.349   1.888  19.211  0.00  0.00    +0.000 OA
ATOM     23  C   UNL     1       2.686   2.491  17.953  0.00  0.00    +0.000 C 
ATOM     24  C   UNL     1       1.785   3.692  17.629  0.00  0.00    +0.000 C 
ENDBRANCH  16  19
ENDBRANCH   9  16
BRANCH   1  26
ATOM     25  O   UNL     1      -3.492  11.929  23.905  0.00  0.00    +0.000 OA
ATOM     26  C   UNL     1      -2.623  12.632  23.418  0.00  0.00    +0.000 C 
BRANCH  26  27
ATOM     27  O   UNL     1      -2.300  13.847  23.908  0.00  0.00    +0.000 OA
ATOM     28  H   UNL     1      -1.393  14.148  23.728  0.00  0.00    +0.000 HD
ENDBRANCH  26  27
ENDBRANCH   1  26
TORSDOF 4
ENDMDL
MODEL 4
REMARK VINA RESULT:      -7.9      0.986      1.311
REMARK  Name = 
REMARK  4 active torsions:
REMARK  status: ('A' for Active; 'I' for Inactive)
REMARK    1  A    between atoms: C_2  and  O_3
REMARK    2  A    between atoms: C_2  and  C_4
REMARK    3  A    between atoms: C_12  and  S_13
REMARK    4  A    between atoms: S_13  and  N_16
REMARK                            x       y       z     vdW  Elec       q    Type
REMARK                         _______ _______ _______ _____ _____    ______ ____
ROOT
ATOM      1  C   UNL     1      -0.046  11.581  19.959  0.00  0.00    +0.000 A 
ATOM      2  C   UNL     1      -0.348  11.048  21.222  0.00  0.00    +0.000 A 
ATOM      3  C   UNL     1       0.109   9.767  21.578  0.00  0.00    +0.000 A 
ATOM      4  C   UNL     1       0.838   8.997  20.665  0.00  0.00    +0.000 A 
ATOM      5  O   UNL     1       1.242   7.742  21.067  0.00  0.00    +0.000 OA
ATOM      6  C   UNL     1       1.933   6.959  20.167  0.00  0.00    +0.000 A 
ATOM      7  C   UNL     1       2.375   5.707  20.606  0.00  0.00    +0.000 A 
ATOM      8  C   UNL     1       3.110   4.875  19.744  0.00  0.00    +0.000 A 
ATOM      9  C   UNL     1       3.392   5.292  18.434  0.00  0.00    +0.000 A 
ATOM     10  C   UNL     1       2.942   6.531  17.985  0.00  0.00    +0.000 A 
ATOM     11  C   UNL     1       2.225   7.355  18.862  0.00  0.00    +0.000 A 
ATOM     12  C   UNL     1       1.809   8.693  18.428  0.00  0.00    +0.000 A 
ATOM     13  O   UNL     1       2.052   9.094  17.294  0.00  0.00    +0.000 OA
ATOM     14  C   UNL     1       1.105   9.524  19.405  0.00  0.00    +0.000 A 
ATOM     15  C   UNL     1       0.683  10.810  19.050  0.00  0.00    +0.000 A 
ENDROOT
BRANCH   9  16
ATOM     16  S   UNL     1       4.511   4.362  17.401  0.00  0.00    +0.000 S 
ATOM     17  O   UNL     1       4.240   2.961  17.664  0.00  0.00    +0.000 OA
ATOM     18  O   UNL     1       4.400   4.889  16.060  0.00  0.00    +0.000 OA
BRANCH  16  19
ATOM     19  N   UNL     1       6.074   4.706  17.992  0.00  0.00    +0.000 NA
ATOM     20  C   UNL     1       6.350   6.089  18.485  0.00  0.00    +0.000 C 
ATOM     21  C   UNL     1       6.542   7.072  17.324  0.00  0.00    +0.000 C 
ATOM     22  O   UNL     1       7.607   6.654  16.459  0.00  0.00    +0.000 OA
ATOM     23  C   UNL     1       7.395   5.331  15.943  0.00  0.00    +0.000 C 
ATOM     24  C   UNL     1       7.190   4.302  17.064  0.00  0.00    +0.000 C 
ENDBRANCH  16  19
ENDBRANCH   9  16
BRANCH   1  26
ATOM     25  O   UNL     1      -0.135  13.959  19.979  0.00  0.00    +0.000 OA
ATOM     26  C   UNL     1      -0.532  12.910  19.499  0.00  0.00    +0.000 C 
BRANCH  26  27
ATOM     27  O   UNL     1      -1.473  12.854  18.534  0.00  0.00    +0.000 OA
ATOM     28  H   UNL     1      -1.800  11.965  18.313  0.00  0.00    +0.000 HD
ENDBRANCH  26  27
ENDBRANCH   1  26
TORSDOF 4
ENDMDL
MODEL 5
REMARK VINA RESULT:      -7.9      1.876      2.657
REMARK  Name = 
REMARK  4 active torsions:
REMARK  status: ('A' for Active; 'I' for Inactive)
REMARK    1  A    between atoms: C_2  and  O_3
REMARK    2  A    between atoms: C_2  and  C_4
REMARK    3  A    between atoms: C_12  and  S_13
REMARK    4  A    between atoms: S_13  and  N_16
REMARK                            x       y       z     vdW  Elec       q    Type
REMARK                         _______ _______ _______ _____ _____    ______ ____
ROOT
ATOM      1  C   UNL     1      -0.171  11.827  19.388  0.00  0.00    +0.000 A 
ATOM      2  C   UNL     1      -0.661  11.430  20.642  0.00  0.00    +0.000 A 
ATOM      3  C   UNL     1      -0.277  10.195  21.194  0.00  0.00    +0.000 A 
ATOM      4  C   UNL     1       0.569   9.336  20.485  0.00  0.00    +0.000 A 
ATOM      5  O   UNL     1       0.894   8.132  21.072  0.00  0.00    +0.000 OA
ATOM      6  C   UNL     1       1.700   7.261  20.370  0.00  0.00    +0.000 A 
ATOM      7  C   UNL     1       2.058   6.064  20.999  0.00  0.00    +0.000 A 
ATOM      8  C   UNL     1       2.902   5.148  20.348  0.00  0.00    +0.000 A 
ATOM      9  C   UNL     1       3.377   5.425  19.057  0.00  0.00    +0.000 A 
ATOM     10  C   UNL     1       3.013   6.608  18.418  0.00  0.00    +0.000 A 
ATOM     11  C   UNL     1       2.185   7.517  19.089  0.00  0.00    +0.000 A 
ATOM     12  C   UNL     1       1.853   8.800  18.459  0.00  0.00    +0.000 A 
ATOM     13  O   UNL     1       2.264   9.080  17.338  0.00  0.00    +0.000 OA
ATOM     14  C   UNL     1       1.024   9.727  19.229  0.00  0.00    +0.000 A 
ATOM     15  C   UNL     1       0.674  10.967  18.683  0.00  0.00    +0.000 A 
ENDROOT
BRANCH   9  16
ATOM     16  S   UNL     1       4.624   4.394  18.303  0.00  0.00    +0.000 S 
ATOM     17  O   UNL     1       5.299   5.222  17.322  0.00  0.00    +0.000 OA
ATOM     18  O   UNL     1       5.372   3.770  19.370  0.00  0.00    +0.000 OA
BRANCH  16  19
ATOM     19  N   UNL     1       3.770   3.183  17.458  0.00  0.00    +0.000 NA
ATOM     20  C   UNL     1       2.394   3.505  16.971  0.00  0.00    +0.000 C 
ATOM     21  C   UNL     1       1.370   3.470  18.112  0.00  0.00    +0.000 C 
ATOM     22  O   UNL     1       1.358   2.191  18.762  0.00  0.00    +0.000 OA
ATOM     23  C   UNL     1       2.653   1.829  19.263  0.00  0.00    +0.000 C 
ATOM     24  C   UNL     1       3.724   1.852  18.162  0.00  0.00    +0.000 C 
ENDBRANCH  16  19
ENDBRANCH   9  16
BRANCH   1  26
ATOM     25  O   UNL     1      -0.581  14.170  19.307  0.00  0.00    +0.000 OA
ATOM     26  C   UNL     1      -0.569  13.099  18.725  0.00  0.00    +0.000 C 
BRANCH  26  27
ATOM     27  O   UNL     1      -0.946  12.958  17.437  0.00  0.00    +0.000 OA
ATOM     28  H   UNL     1      -1.863  13.212  17.235  0.00  0.00    +0.000 HD
ENDBRANCH  26  27
ENDBRANCH   1  26
TORSDOF 4
ENDMDL
MODEL 6
REMARK VINA RESULT:      -7.8      2.735      4.149
REMARK  Name = 
REMARK  4 active torsions:
REMARK  status: ('A' for Active; 'I' for Inactive)
REMARK    1  A    between atoms: C_2  and  O_3
REMARK    2  A    between atoms: C_2  and  C_4
REMARK    3  A    between atoms: C_12  and  S_13
REMARK    4  A    between atoms: S_13  and  N_16
REMARK                            x       y       z     vdW  Elec       q    Type
REMARK                         _______ _______ _______ _____ _____    ______ ____
ROOT
ATOM      1  C   UNL     1      -1.601  12.086  21.990  0.00  0.00    +0.000 A 
ATOM      2  C   UNL     1      -1.560  12.781  20.772  0.00  0.00    +0.000 A 
ATOM      3  C   UNL     1      -0.851  12.254  19.678  0.00  0.00    +0.000 A 
ATOM      4  C   UNL     1      -0.152  11.048  19.804  0.00  0.00    +0.000 A 
ATOM      5  O   UNL     1       0.539  10.593  18.702  0.00  0.00    +0.000 OA
ATOM      6  C   UNL     1       1.260   9.423  18.820  0.00  0.00    +0.000 A 
ATOM      7  C   UNL     1       1.916   8.951  17.680  0.00  0.00    +0.000 A 
ATOM      8  C   UNL     1       2.643   7.748  17.729  0.00  0.00    +0.000 A 
ATOM      9  C   UNL     1       2.723   7.024  18.928  0.00  0.00    +0.000 A 
ATOM     10  C   UNL     1       2.084   7.496  20.073  0.00  0.00    +0.000 A 
ATOM     11  C   UNL     1       1.351   8.687  20.001  0.00  0.00    +0.000 A 
ATOM     12  C   UNL     1       0.611   9.158  21.177  0.00  0.00    +0.000 A 
ATOM     13  O   UNL     1       0.648   8.541  22.237  0.00  0.00    +0.000 OA
ATOM     14  C   UNL     1      -0.174  10.383  21.026  0.00  0.00    +0.000 A 
ATOM     15  C   UNL     1      -0.903  10.882  22.112  0.00  0.00    +0.000 A 
ENDROOT
BRANCH   9  16
ATOM     16  S   UNL     1       3.442   5.391  18.961  0.00  0.00    +0.000 S 
ATOM     17  O   UNL     1       3.231   4.826  17.642  0.00  0.00    +0.000 OA
ATOM     18  O   UNL     1       4.777   5.517  19.498  0.00  0.00    +0.000 OA
BRANCH  16  19
ATOM     19  N   UNL     1       2.496   4.496  20.064  0.00  0.00    +0.000 NA
ATOM     20  C   UNL     1       3.104   3.280  20.684  0.00  0.00    +0.000 C 
ATOM     21  C   UNL     1       3.127   2.101  19.705  0.00  0.00    +0.000 C 
ATOM     22  O   UNL     1       1.808   1.787  19.236  0.00  0.00    +0.000 OA
ATOM     23  C   UNL     1       1.173   2.917  18.618  0.00  0.00    +0.000 C 
ATOM     24  C   UNL     1       1.126   4.133  19.554  0.00  0.00    +0.000 C 
ENDBRANCH  16  19
ENDBRANCH   9  16
BRANCH   1  26
ATOM     25  O   UNL     1      -1.964  13.638  23.757  0.00  0.00    +0.000 OA
ATOM     26  C   UNL     1      -2.295  12.605  23.201  0.00  0.00    +0.000 C 
BRANCH  26  27
ATOM     27  O   UNL     1      -3.295  11.817  23.647  0.00  0.00    +0.000 OA
ATOM     28  H   UNL     1      -4.131  11.875  23.155  0.00  0.00    +0.000 HD
ENDBRANCH  26  27
ENDBRANCH   1  26
TORSDOF 4
ENDMDL
MODEL 7
REMARK VINA RESULT:      -7.8      3.209      8.981
REMARK  Name = 
REMARK  4 active torsions:
REMARK  status: ('A' for Active; 'I' for Inactive)
REMARK    1  A    between atoms: C_2  and  O_3
REMARK    2  A    between atoms: C_2  and  C_4
REMARK    3  A    between atoms: C_12  and  S_13
REMARK    4  A    between atoms: S_13  and  N_16
REMARK                            x       y       z     vdW  Elec       q    Type
REMARK                         _______ _______ _______ _____ _____    ______ ____
ROOT
ATOM      1  C   UNL     1       4.169   3.414  18.910  0.00  0.00    +0.000 A 
ATOM      2  C   UNL     1       4.604   3.838  17.644  0.00  0.00    +0.000 A 
ATOM      3  C   UNL     1       4.300   5.132  17.188  0.00  0.00    +0.000 A 
ATOM      4  C   UNL     1       3.534   5.998  17.975  0.00  0.00    +0.000 A 
ATOM      5  O   UNL     1       3.255   7.248  17.464  0.00  0.00    +0.000 OA
ATOM      6  C   UNL     1       2.474   8.101  18.215  0.00  0.00    +0.000 A 
ATOM      7  C   UNL     1       2.239   9.381  17.703  0.00  0.00    +0.000 A 
ATOM      8  C   UNL     1       1.475  10.306  18.435  0.00  0.00    +0.000 A 
ATOM      9  C   UNL     1       0.933   9.943  19.677  0.00  0.00    +0.000 A 
ATOM     10  C   UNL     1       1.150   8.665  20.187  0.00  0.00    +0.000 A 
ATOM     11  C   UNL     1       1.928   7.762  19.452  0.00  0.00    +0.000 A 
ATOM     12  C   UNL     1       2.227   6.438  20.009  0.00  0.00    +0.000 A 
ATOM     13  O   UNL     1       1.781   6.095  21.099  0.00  0.00    +0.000 OA
ATOM     14  C   UNL     1       3.084   5.557  19.216  0.00  0.00    +0.000 A 
ATOM     15  C   UNL     1       3.406   4.282  19.695  0.00  0.00    +0.000 A 
ENDROOT
BRANCH   9  16
ATOM     16  S   UNL     1       0.158  11.162  20.725  0.00  0.00    +0.000 S 
ATOM     17  O   UNL     1      -0.675  10.428  21.658  0.00  0.00    +0.000 OA
ATOM     18  O   UNL     1       1.198  12.041  21.208  0.00  0.00    +0.000 OA
BRANCH  16  19
ATOM     19  N   UNL     1      -0.876  12.056  19.703  0.00  0.00    +0.000 NA
ATOM     20  C   UNL     1      -0.355  13.327  19.116  0.00  0.00    +0.000 C 
ATOM     21  C   UNL     1      -0.348  14.462  20.147  0.00  0.00    +0.000 C 
ATOM     22  O   UNL     1      -1.660  14.687  20.681  0.00  0.00    +0.000 OA
ATOM     23  C   UNL     1      -2.213  13.501  21.271  0.00  0.00    +0.000 C 
ATOM     24  C   UNL     1      -2.240  12.325  20.283  0.00  0.00    +0.000 C 
ENDBRANCH  16  19
ENDBRANCH   9  16
BRANCH   1  26
ATOM     25  O   UNL     1       4.932   1.842  20.526  0.00  0.00    +0.000 OA
ATOM     26  C   UNL     1       4.416   2.045  19.439  0.00  0.00    +0.000 C 
BRANCH  26  27
ATOM     27  O   UNL     1       4.054   1.053  18.601  0.00  0.00    +0.000 OA
ATOM     28  H   UNL     1       3.324   1.259  17.991  0.00  0.00    +0.000 HD
ENDBRANCH  26  27
ENDBRANCH   1  26
TORSDOF 4
ENDMDL
MODEL 8
REMARK VINA RESULT:      -7.8      2.468      8.191
REMARK  Name = 
REMARK  4 active torsions:
REMARK  status: ('A' for Active; 'I' for Inactive)
REMARK    1  A    between atoms: C_2  and  O_3
REMARK    2  A    between atoms: C_2  and  C_4
REMARK    3  A    between atoms: C_12  and  S_13
REMARK    4  A    between atoms: S_13  and  N_16
REMARK                            x       y       z     vdW  Elec       q    Type
REMARK                         _______ _______ _______ _____ _____    ______ ____
ROOT
ATOM      1  C   UNL     1       5.816   4.572  15.343  0.00  0.00    +0.000 A 
ATOM      2  C   UNL     1       5.565   3.329  15.945  0.00  0.00    +0.000 A 
ATOM      3  C   UNL     1       4.712   3.240  17.059  0.00  0.00    +0.000 A 
ATOM      4  C   UNL     1       4.134   4.393  17.600  0.00  0.00    +0.000 A 
ATOM      5  O   UNL     1       3.322   4.243  18.704  0.00  0.00    +0.000 OA
ATOM      6  C   UNL     1       2.771   5.374  19.268  0.00  0.00    +0.000 A 
ATOM      7  C   UNL     1       1.913   5.200  20.358  0.00  0.00    +0.000 A 
ATOM      8  C   UNL     1       1.297   6.312  20.958  0.00  0.00    +0.000 A 
ATOM      9  C   UNL     1       1.551   7.603  20.473  0.00  0.00    +0.000 A 
ATOM     10  C   UNL     1       2.416   7.787  19.396  0.00  0.00    +0.000 A 
ATOM     11  C   UNL     1       3.008   6.666  18.800  0.00  0.00    +0.000 A 
ATOM     12  C   UNL     1       3.863   6.836  17.620  0.00  0.00    +0.000 A 
ATOM     13  O   UNL     1       4.093   7.950  17.161  0.00  0.00    +0.000 OA
ATOM     14  C   UNL     1       4.414   5.624  17.014  0.00  0.00    +0.000 A 
ATOM     15  C   UNL     1       5.235   5.721  15.884  0.00  0.00    +0.000 A 
ENDROOT
BRANCH   9  16
ATOM     16  S   UNL     1       0.612   9.001  21.063  0.00  0.00    +0.000 S 
ATOM     17  O   UNL     1      -0.675   8.480  21.481  0.00  0.00    +0.000 OA
ATOM     18  O   UNL     1       1.448   9.721  21.997  0.00  0.00    +0.000 OA
BRANCH  16  19
ATOM     19  N   UNL     1       0.351   9.989  19.697  0.00  0.00    +0.000 NA
ATOM     20  C   UNL     1       1.300  11.118  19.455  0.00  0.00    +0.000 C 
ATOM     21  C   UNL     1       1.023  12.297  20.395  0.00  0.00    +0.000 C 
ATOM     22  O   UNL     1      -0.324  12.770  20.254  0.00  0.00    +0.000 OA
ATOM     23  C   UNL     1      -1.287  11.731  20.485  0.00  0.00    +0.000 C 
ATOM     24  C   UNL     1      -1.055  10.517  19.573  0.00  0.00    +0.000 C 
ENDBRANCH  16  19
ENDBRANCH   9  16
BRANCH   1  26
ATOM     25  O   UNL     1       7.695   5.503  14.218  0.00  0.00    +0.000 OA
ATOM     26  C   UNL     1       6.740   4.746  14.189  0.00  0.00    +0.000 C 
BRANCH  26  27
ATOM     27  O   UNL     1       6.409   4.021  13.100  0.00  0.00    +0.000 OA
ATOM     28  H   UNL     1       5.652   3.420  13.205  0.00  0.00    +0.000 HD
ENDBRANCH  26  27
ENDBRANCH   1  26
TORSDOF 4
ENDMDL
MODEL 9
REMARK VINA RESULT:      -7.6      2.577      3.636
REMARK  Name = 
REMARK  4 active torsions:
REMARK  status: ('A' for Active; 'I' for Inactive)
REMARK    1  A    between atoms: C_2  and  O_3
REMARK    2  A    between atoms: C_2  and  C_4
REMARK    3  A    between atoms: C_12  and  S_13
REMARK    4  A    between atoms: S_13  and  N_16
REMARK                            x       y       z     vdW  Elec       q    Type
REMARK                         _______ _______ _______ _____ _____    ______ ____
ROOT
ATOM      1  C   UNL     1      -0.714  12.974  21.912  0.00  0.00    +0.000 A 
ATOM      2  C   UNL     1      -0.313  13.517  20.682  0.00  0.00    +0.000 A 
ATOM      3  C   UNL     1       0.311  12.705  19.718  0.00  0.00    +0.000 A 
ATOM      4  C   UNL     1       0.568  11.357  19.990  0.00  0.00    +0.000 A 
ATOM      5  O   UNL     1       1.198  10.617  19.012  0.00  0.00    +0.000 OA
ATOM      6  C   UNL     1       1.488   9.296  19.278  0.00  0.00    +0.000 A 
ATOM      7  C   UNL     1       2.085   8.548  18.258  0.00  0.00    +0.000 A 
ATOM      8  C   UNL     1       2.378   7.188  18.458  0.00  0.00    +0.000 A 
ATOM      9  C   UNL     1       2.084   6.578  19.687  0.00  0.00    +0.000 A 
ATOM     10  C   UNL     1       1.502   7.320  20.712  0.00  0.00    +0.000 A 
ATOM     11  C   UNL     1       1.202   8.670  20.490  0.00  0.00    +0.000 A 
ATOM     12  C   UNL     1       0.522   9.445  21.534  0.00  0.00    +0.000 A 
ATOM     13  O   UNL     1       0.237   8.939  22.614  0.00  0.00    +0.000 OA
ATOM     14  C   UNL     1       0.193  10.837  21.225  0.00  0.00    +0.000 A 
ATOM     15  C   UNL     1      -0.457  11.627  22.180  0.00  0.00    +0.000 A 
ENDROOT
BRANCH   9  16
ATOM     16  S   UNL     1       2.232   4.811  19.887  0.00  0.00    +0.000 S 
ATOM     17  O   UNL     1       2.761   4.595  21.221  0.00  0.00    +0.000 OA
ATOM     18  O   UNL     1       0.970   4.224  19.497  0.00  0.00    +0.000 OA
BRANCH  16  19
ATOM     19  N   UNL     1       3.426   4.321  18.771  0.00  0.00    +0.000 NA
ATOM     20  C   UNL     1       2.979   3.646  17.516  0.00  0.00    +0.000 C 
ATOM     21  C   UNL     1       2.581   2.187  17.772  0.00  0.00    +0.000 C 
ATOM     22  O   UNL     1       3.664   1.446  18.351  0.00  0.00    +0.000 OA
ATOM     23  C   UNL     1       4.134   2.041  19.571  0.00  0.00    +0.000 C 
ATOM     24  C   UNL     1       4.543   3.509  19.375  0.00  0.00    +0.000 C 
ENDBRANCH  16  19
ENDBRANCH   9  16
BRANCH   1  26
ATOM     25  O   UNL     1      -2.529  13.725  23.257  0.00  0.00    +0.000 OA
ATOM     26  C   UNL     1      -1.340  13.784  22.993  0.00  0.00    +0.000 C 
BRANCH  26  27
ATOM     27  O   UNL     1      -0.486  14.610  23.632  0.00  0.00    +0.000 OA
ATOM     28  H   UNL     1      -0.391  15.499  23.248  0.00  0.00    +0.000 HD
ENDBRANCH  26  27
ENDBRANCH   1  26
TORSDOF 4
ENDMDL
