MODEL 1
REMARK VINA RESULT:      -8.5      0.000      0.000
REMARK  Name = 
REMARK  6 active torsions:
REMARK  status: ('A' for Active; 'I' for Inactive)
REMARK    1  A    between atoms: C_1  and  C_2
REMARK    2  A    between atoms: C_2  and  S_3
REMARK    3  A    between atoms: C_2  and  C_10
REMARK    4  A    between atoms: S_3  and  C_4
REMARK    5  A    between atoms: N_8  and  C_9
REMARK    6  A    between atoms: C_14  and  N_15
REMARK                            x       y       z     vdW  Elec       q    Type
REMARK                         _______ _______ _______ _____ _____    ______ ____
ROOT
ATOM      1  C   UNL     1       4.334   4.693  16.774  0.00  0.00    +0.000 A 
ATOM      2  C   UNL     1       3.515   3.559  16.832  0.00  0.00    +0.000 A 
ATOM      3  C   UNL     1       2.329   3.571  17.591  0.00  0.00    +0.000 A 
ATOM      4  C   UNL     1       1.946   4.709  18.321  0.00  0.00    +0.000 A 
ATOM      5  C   UNL     1       2.734   5.852  18.247  0.00  0.00    +0.000 A 
ATOM      6  C   UNL     1       3.903   5.816  17.483  0.00  0.00    +0.000 A 
ENDROOT
BRANCH   5   7
ATOM      7  N   UNL     1       2.379   7.095  18.805  0.00  0.00    +0.000 N 
ATOM      8  C   UNL     1       2.384   8.261  17.934  0.00  0.00    +0.000 C 
ATOM      9  C   UNL     1       1.380   9.122  18.589  0.00  0.00    +0.000 A 
ATOM     10  C   UNL     1       0.514  10.040  18.037  0.00  0.00    +0.000 A 
ATOM     11  C   UNL     1      -0.317  10.735  18.912  0.00  0.00    +0.000 A 
ATOM     12 CL   UNL     1      -1.580  11.710  18.268  0.00  0.00    +0.000 Cl
ATOM     13  C   UNL     1      -0.192  10.581  20.305  0.00  0.00    +0.000 A 
ATOM     14  C   UNL     1       0.617   9.570  20.837  0.00  0.00    +0.000 A 
ATOM     15  C   UNL     1       1.309   8.781  19.938  0.00  0.00    +0.000 A 
ATOM     16  C   UNL     1       1.839   7.394  20.054  0.00  0.00    +0.000 C 
ATOM     17  O   UNL     1       1.695   6.694  21.043  0.00  0.00    +0.000 OA
ENDBRANCH   5   7
BRANCH   1  19
ATOM     18  C   UNL     1       5.779   3.792  14.810  0.00  0.00    +0.000 C 
ATOM     19  C   UNL     1       5.665   4.733  16.028  0.00  0.00    +0.000 C 
BRANCH  19  20
ATOM     20  S   UNL     1       7.113   4.492  17.119  0.00  0.00    +0.000 S 
BRANCH  20  21
ATOM     21  C   UNL     1       7.554   6.127  17.496  0.00  0.00    +0.000 A 
ATOM     22  N   UNL     1       7.530   7.158  16.687  0.00  0.00    +0.000 NA
ATOM     23  N   UNL     1       7.981   8.255  17.388  0.00  0.00    +0.000 NA
ATOM     24  C   UNL     1       8.233   7.854  18.620  0.00  0.00    +0.000 A 
ATOM     25  N   UNL     1       7.983   6.524  18.719  0.00  0.00    +0.000 N 
ATOM     26  C   UNL     1       8.161   5.705  19.889  0.00  0.00    +0.000 C 
ENDBRANCH  20  21
ENDBRANCH  19  20
ENDBRANCH   1  19
TORSDOF 4
ENDMDL
MODEL 2
REMARK VINA RESULT:      -8.2      2.112      3.038
REMARK  Name = 
REMARK  6 active torsions:
REMARK  status: ('A' for Active; 'I' for Inactive)
REMARK    1  A    between atoms: C_1  and  C_2
REMARK    2  A    between atoms: C_2  and  S_3
REMARK    3  A    between atoms: C_2  and  C_10
REMARK    4  A    between atoms: S_3  and  C_4
REMARK    5  A    between atoms: N_8  and  C_9
REMARK    6  A    between atoms: C_14  and  N_15
REMARK                            x       y       z     vdW  Elec       q    Type
REMARK                         _______ _______ _______ _____ _____    ______ ____
ROOT
ATOM      1  C   UNL     1       4.136   5.751  17.548  0.00  0.00    +0.000 A 
ATOM      2  C   UNL     1       3.734   4.547  18.137  0.00  0.00    +0.000 A 
ATOM      3  C   UNL     1       2.749   4.537  19.143  0.00  0.00    +0.000 A 
ATOM      4  C   UNL     1       2.159   5.729  19.593  0.00  0.00    +0.000 A 
ATOM      5  C   UNL     1       2.527   6.929  18.996  0.00  0.00    +0.000 A 
ATOM      6  C   UNL     1       3.502   6.912  17.996  0.00  0.00    +0.000 A 
ENDROOT
BRANCH   5   7
ATOM      7  N   UNL     1       1.901   8.165  19.250  0.00  0.00    +0.000 N 
ATOM      8  C   UNL     1       1.607   9.028  18.116  0.00  0.00    +0.000 C 
ATOM      9  C   UNL     1       0.444   9.786  18.616  0.00  0.00    +0.000 A 
ATOM     10  C   UNL     1      -0.629  10.308  17.927  0.00  0.00    +0.000 A 
ATOM     11  C   UNL     1      -1.579  11.007  18.667  0.00  0.00    +0.000 A 
ATOM     12 CL   UNL     1      -3.053  11.470  17.909  0.00  0.00    +0.000 Cl
ATOM     13  C   UNL     1      -1.386  11.261  20.037  0.00  0.00    +0.000 A 
ATOM     14  C   UNL     1      -0.347  10.634  20.736  0.00  0.00    +0.000 A 
ATOM     15  C   UNL     1       0.489   9.810  20.008  0.00  0.00    +0.000 A 
ATOM     16  C   UNL     1       1.337   8.657  20.425  0.00  0.00    +0.000 C 
ATOM     17  O   UNL     1       1.388   8.231  21.567  0.00  0.00    +0.000 OA
ENDBRANCH   5   7
BRANCH   1  19
ATOM     18  C   UNL     1       5.008   6.874  15.372  0.00  0.00    +0.000 C 
ATOM     19  C   UNL     1       5.243   5.849  16.502  0.00  0.00    +0.000 C 
BRANCH  19  20
ATOM     20  S   UNL     1       5.694   4.234  15.771  0.00  0.00    +0.000 S 
BRANCH  20  21
ATOM     21  C   UNL     1       6.768   4.705  14.494  0.00  0.00    +0.000 A 
ATOM     22  N   UNL     1       7.807   5.499  14.588  0.00  0.00    +0.000 NA
ATOM     23  N   UNL     1       8.360   5.620  13.332  0.00  0.00    +0.000 NA
ATOM     24  C   UNL     1       7.650   4.862  12.517  0.00  0.00    +0.000 A 
ATOM     25  N   UNL     1       6.640   4.280  13.213  0.00  0.00    +0.000 N 
ATOM     26  C   UNL     1       5.629   3.404  12.681  0.00  0.00    +0.000 C 
ENDBRANCH  20  21
ENDBRANCH  19  20
ENDBRANCH   1  19
TORSDOF 4
ENDMDL
MODEL 3
REMARK VINA RESULT:      -8.0      0.943      1.421
REMARK  Name = 
REMARK  6 active torsions:
REMARK  status: ('A' for Active; 'I' for Inactive)
REMARK    1  A    between atoms: C_1  and  C_2
REMARK    2  A    between atoms: C_2  and  S_3
REMARK    3  A    between atoms: C_2  and  C_10
REMARK    4  A    between atoms: S_3  and  C_4
REMARK    5  A    between atoms: N_8  and  C_9
REMARK    6  A    between atoms: C_14  and  N_15
REMARK                            x       y       z     vdW  Elec       q    Type
REMARK                         _______ _______ _______ _____ _____    ______ ____
ROOT
ATOM      1  C   UNL     1       4.655   4.814  16.408  0.00  0.00    +0.000 A 
ATOM      2  C   UNL     1       4.201   3.536  16.754  0.00  0.00    +0.000 A 
ATOM      3  C   UNL     1       3.293   3.363  17.816  0.00  0.00    +0.000 A 
ATOM      4  C   UNL     1       2.835   4.458  18.565  0.00  0.00    +0.000 A 
ATOM      5  C   UNL     1       3.255   5.736  18.214  0.00  0.00    +0.000 A 
ATOM      6  C   UNL     1       4.151   5.883  17.153  0.00  0.00    +0.000 A 
ENDROOT
BRANCH   5   7
ATOM      7  N   UNL     1       2.751   6.920  18.787  0.00  0.00    +0.000 N 
ATOM      8  C   UNL     1       2.757   8.128  17.975  0.00  0.00    +0.000 C 
ATOM      9  C   UNL     1       1.628   8.880  18.556  0.00  0.00    +0.000 A 
ATOM     10  C   UNL     1       0.757   9.762  17.957  0.00  0.00    +0.000 A 
ATOM     11  C   UNL     1      -0.211  10.349  18.768  0.00  0.00    +0.000 A 
ATOM     12 CL   UNL     1      -1.471  11.265  18.038  0.00  0.00    +0.000 Cl
ATOM     13  C   UNL     1      -0.219  10.131  20.158  0.00  0.00    +0.000 A 
ATOM     14  C   UNL     1       0.606   9.153  20.728  0.00  0.00    +0.000 A 
ATOM     15  C   UNL     1       1.444   8.464  19.873  0.00  0.00    +0.000 A 
ATOM     16  C   UNL     1       2.064   7.114  19.983  0.00  0.00    +0.000 C 
ATOM     17  O   UNL     1       1.872   6.354  20.918  0.00  0.00    +0.000 OA
ENDBRANCH   5   7
BRANCH   1  19
ATOM     18  C   UNL     1       5.433   4.362  13.969  0.00  0.00    +0.000 C 
ATOM     19  C   UNL     1       5.688   5.074  15.315  0.00  0.00    +0.000 C 
BRANCH  19  20
ATOM     20  S   UNL     1       7.407   4.756  15.853  0.00  0.00    +0.000 S 
BRANCH  20  21
ATOM     21  C   UNL     1       7.337   5.162  17.538  0.00  0.00    +0.000 A 
ATOM     22  N   UNL     1       7.162   4.337  18.542  0.00  0.00    +0.000 NA
ATOM     23  N   UNL     1       7.148   5.082  19.701  0.00  0.00    +0.000 NA
ATOM     24  C   UNL     1       7.351   6.341  19.360  0.00  0.00    +0.000 A 
ATOM     25  N   UNL     1       7.466   6.426  18.010  0.00  0.00    +0.000 N 
ATOM     26  C   UNL     1       7.665   7.627  17.243  0.00  0.00    +0.000 C 
ENDBRANCH  20  21
ENDBRANCH  19  20
ENDBRANCH   1  19
TORSDOF 4
ENDMDL
MODEL 4
REMARK VINA RESULT:      -7.7      2.143      3.190
REMARK  Name = 
REMARK  6 active torsions:
REMARK  status: ('A' for Active; 'I' for Inactive)
REMARK    1  A    between atoms: C_1  and  C_2
REMARK    2  A    between atoms: C_2  and  S_3
REMARK    3  A    between atoms: C_2  and  C_10
REMARK    4  A    between atoms: S_3  and  C_4
REMARK    5  A    between atoms: N_8  and  C_9
REMARK    6  A    between atoms: C_14  and  N_15
REMARK                            x       y       z     vdW  Elec       q    Type
REMARK                         _______ _______ _______ _____ _____    ______ ____
ROOT
ATOM      1  C   UNL     1       4.544   4.464  17.064  0.00  0.00    +0.000 A 
ATOM      2  C   UNL     1       3.631   3.416  16.904  0.00  0.00    +0.000 A 
ATOM      3  C   UNL     1       2.329   3.515  17.430  0.00  0.00    +0.000 A 
ATOM      4  C   UNL     1       1.918   4.654  18.142  0.00  0.00    +0.000 A 
ATOM      5  C   UNL     1       2.805   5.715  18.282  0.00  0.00    +0.000 A 
ATOM      6  C   UNL     1       4.090   5.595  17.746  0.00  0.00    +0.000 A 
ENDROOT
BRANCH   5   7
ATOM      7  N   UNL     1       2.464   6.964  18.837  0.00  0.00    +0.000 N 
ATOM      8  C   UNL     1       2.568   8.141  17.986  0.00  0.00    +0.000 C 
ATOM      9  C   UNL     1       1.559   9.031  18.591  0.00  0.00    +0.000 A 
ATOM     10  C   UNL     1       0.765   9.990  18.001  0.00  0.00    +0.000 A 
ATOM     11  C   UNL     1      -0.092  10.705  18.834  0.00  0.00    +0.000 A 
ATOM     12 CL   UNL     1      -1.273  11.738  18.129  0.00  0.00    +0.000 Cl
ATOM     13  C   UNL     1      -0.060  10.528  20.229  0.00  0.00    +0.000 A 
ATOM     14  C   UNL     1       0.676   9.479  20.795  0.00  0.00    +0.000 A 
ATOM     15  C   UNL     1       1.391   8.676  19.928  0.00  0.00    +0.000 A 
ATOM     16  C   UNL     1       1.859   7.267  20.054  0.00  0.00    +0.000 C 
ATOM     17  O   UNL     1       1.627   6.560  21.021  0.00  0.00    +0.000 OA
ENDBRANCH   5   7
BRANCH   1  19
ATOM     18  C   UNL     1       7.069   4.464  17.685  0.00  0.00    +0.000 C 
ATOM     19  C   UNL     1       5.991   4.402  16.581  0.00  0.00    +0.000 C 
BRANCH  19  20
ATOM     20  S   UNL     1       6.376   5.637  15.287  0.00  0.00    +0.000 S 
BRANCH  20  21
ATOM     21  C   UNL     1       6.398   4.660  13.855  0.00  0.00    +0.000 A 
ATOM     22  N   UNL     1       5.557   3.705  13.537  0.00  0.00    +0.000 NA
ATOM     23  N   UNL     1       5.956   3.177  12.328  0.00  0.00    +0.000 NA
ATOM     24  C   UNL     1       7.016   3.858  11.935  0.00  0.00    +0.000 A 
ATOM     25  N   UNL     1       7.324   4.790  12.873  0.00  0.00    +0.000 N 
ATOM     26  C   UNL     1       8.426   5.714  12.832  0.00  0.00    +0.000 C 
ENDBRANCH  20  21
ENDBRANCH  19  20
ENDBRANCH   1  19
TORSDOF 4
ENDMDL
MODEL 5
REMARK VINA RESULT:      -7.7      1.232      1.757
REMARK  Name = 
REMARK  6 active torsions:
REMARK  status: ('A' for Active; 'I' for Inactive)
REMARK    1  A    between atoms: C_1  and  C_2
REMARK    2  A    between atoms: C_2  and  S_3
REMARK    3  A    between atoms: C_2  and  C_10
REMARK    4  A    between atoms: S_3  and  C_4
REMARK    5  A    between atoms: N_8  and  C_9
REMARK    6  A    between atoms: C_14  and  N_15
REMARK                            x       y       z     vdW  Elec       q    Type
REMARK                         _______ _______ _______ _____ _____    ______ ____
ROOT
ATOM      1  C   UNL     1       3.352   5.124  18.603  0.00  0.00    +0.000 A 
ATOM      2  C   UNL     1       2.931   4.159  19.525  0.00  0.00    +0.000 A 
ATOM      3  C   UNL     1       2.130   4.522  20.625  0.00  0.00    +0.000 A 
ATOM      4  C   UNL     1       1.748   5.857  20.835  0.00  0.00    +0.000 A 
ATOM      5  C   UNL     1       2.135   6.820  19.911  0.00  0.00    +0.000 A 
ATOM      6  C   UNL     1       2.924   6.434  18.826  0.00  0.00    +0.000 A 
ENDROOT
BRANCH   5   7
ATOM      7  N   UNL     1       1.690   8.157  19.928  0.00  0.00    +0.000 N 
ATOM      8  C   UNL     1       1.475   8.822  18.651  0.00  0.00    +0.000 C 
ATOM      9  C   UNL     1       0.443   9.815  19.006  0.00  0.00    +0.000 A 
ATOM     10  C   UNL     1      -0.572  10.341  18.239  0.00  0.00    +0.000 A 
ATOM     11  C   UNL     1      -1.393  11.293  18.838  0.00  0.00    +0.000 A 
ATOM     12 CL   UNL     1      -2.817  11.804  18.018  0.00  0.00    +0.000 Cl
ATOM     13  C   UNL     1      -1.120  11.772  20.132  0.00  0.00    +0.000 A 
ATOM     14  C   UNL     1      -0.150  11.151  20.930  0.00  0.00    +0.000 A 
ATOM     15  C   UNL     1       0.541  10.095  20.367  0.00  0.00    +0.000 A 
ATOM     16  C   UNL     1       1.239   8.936  20.991  0.00  0.00    +0.000 C 
ATOM     17  O   UNL     1       1.272   8.732  22.193  0.00  0.00    +0.000 OA
ENDBRANCH   5   7
BRANCH   1  19
ATOM     18  C   UNL     1       3.776   3.734  16.447  0.00  0.00    +0.000 C 
ATOM     19  C   UNL     1       4.275   4.818  17.427  0.00  0.00    +0.000 C 
BRANCH  19  20
ATOM     20  S   UNL     1       5.991   4.435  17.933  0.00  0.00    +0.000 S 
BRANCH  20  21
ATOM     21  C   UNL     1       6.769   5.975  17.758  0.00  0.00    +0.000 A 
ATOM     22  N   UNL     1       6.562   6.862  16.815  0.00  0.00    +0.000 NA
ATOM     23  N   UNL     1       7.406   7.927  17.045  0.00  0.00    +0.000 NA
ATOM     24  C   UNL     1       8.078   7.661  18.150  0.00  0.00    +0.000 A 
ATOM     25  N   UNL     1       7.708   6.442  18.618  0.00  0.00    +0.000 N 
ATOM     26  C   UNL     1       8.229   5.779  19.784  0.00  0.00    +0.000 C 
ENDBRANCH  20  21
ENDBRANCH  19  20
ENDBRANCH   1  19
TORSDOF 4
ENDMDL
MODEL 6
REMARK VINA RESULT:      -7.6      1.399      2.143
REMARK  Name = 
REMARK  6 active torsions:
REMARK  status: ('A' for Active; 'I' for Inactive)
REMARK    1  A    between atoms: C_1  and  C_2
REMARK    2  A    between atoms: C_2  and  S_3
REMARK    3  A    between atoms: C_2  and  C_10
REMARK    4  A    between atoms: S_3  and  C_4
REMARK    5  A    between atoms: N_8  and  C_9
REMARK    6  A    between atoms: C_14  and  N_15
REMARK                            x       y       z     vdW  Elec       q    Type
REMARK                         _______ _______ _______ _____ _____    ______ ____
ROOT
ATOM      1  C   UNL     1       3.198   5.037  18.378  0.00  0.00    +0.000 A 
ATOM      2  C   UNL     1       2.896   4.083  19.356  0.00  0.00    +0.000 A 
ATOM      3  C   UNL     1       2.241   4.458  20.544  0.00  0.00    +0.000 A 
ATOM      4  C   UNL     1       1.889   5.796  20.788  0.00  0.00    +0.000 A 
ATOM      5  C   UNL     1       2.156   6.749  19.812  0.00  0.00    +0.000 A 
ATOM      6  C   UNL     1       2.802   6.351  18.640  0.00  0.00    +0.000 A 
ENDROOT
BRANCH   5   7
ATOM      7  N   UNL     1       1.717   8.087  19.871  0.00  0.00    +0.000 N 
ATOM      8  C   UNL     1       1.514   8.795  18.616  0.00  0.00    +0.000 C 
ATOM      9  C   UNL     1       0.484   9.781  18.998  0.00  0.00    +0.000 A 
ATOM     10  C   UNL     1      -0.525  10.337  18.243  0.00  0.00    +0.000 A 
ATOM     11  C   UNL     1      -1.345  11.272  18.869  0.00  0.00    +0.000 A 
ATOM     12 CL   UNL     1      -2.761  11.817  18.058  0.00  0.00    +0.000 Cl
ATOM     13  C   UNL     1      -1.078  11.706  20.180  0.00  0.00    +0.000 A 
ATOM     14  C   UNL     1      -0.116  11.054  20.962  0.00  0.00    +0.000 A 
ATOM     15  C   UNL     1       0.574  10.014  20.369  0.00  0.00    +0.000 A 
ATOM     16  C   UNL     1       1.263   8.832  20.957  0.00  0.00    +0.000 C 
ATOM     17  O   UNL     1       1.287   8.587  22.152  0.00  0.00    +0.000 OA
ENDBRANCH   5   7
BRANCH   1  19
ATOM     18  C   UNL     1       4.585   3.307  17.022  0.00  0.00    +0.000 C 
ATOM     19  C   UNL     1       3.964   4.719  17.098  0.00  0.00    +0.000 C 
BRANCH  19  20
ATOM     20  S   UNL     1       5.240   5.965  16.687  0.00  0.00    +0.000 S 
BRANCH  20  21
ATOM     21  C   UNL     1       6.335   5.810  18.023  0.00  0.00    +0.000 A 
ATOM     22  N   UNL     1       6.303   4.903  18.969  0.00  0.00    +0.000 NA
ATOM     23  N   UNL     1       7.340   5.164  19.838  0.00  0.00    +0.000 NA
ATOM     24  C   UNL     1       7.993   6.210  19.365  0.00  0.00    +0.000 A 
ATOM     25  N   UNL     1       7.384   6.643  18.232  0.00  0.00    +0.000 N 
ATOM     26  C   UNL     1       7.771   7.775  17.432  0.00  0.00    +0.000 C 
ENDBRANCH  20  21
ENDBRANCH  19  20
ENDBRANCH   1  19
TORSDOF 4
ENDMDL
MODEL 7
REMARK VINA RESULT:      -7.6      4.417      8.714
REMARK  Name = 
REMARK  6 active torsions:
REMARK  status: ('A' for Active; 'I' for Inactive)
REMARK    1  A    between atoms: C_1  and  C_2
REMARK    2  A    between atoms: C_2  and  S_3
REMARK    3  A    between atoms: C_2  and  C_10
REMARK    4  A    between atoms: S_3  and  C_4
REMARK    5  A    between atoms: N_8  and  C_9
REMARK    6  A    between atoms: C_14  and  N_15
REMARK                            x       y       z     vdW  Elec       q    Type
REMARK                         _______ _______ _______ _____ _____    ______ ____
ROOT
ATOM      1  C   UNL     1      -0.202  10.819  19.909  0.00  0.00    +0.000 A 
ATOM      2  C   UNL     1      -0.504  10.929  21.271  0.00  0.00    +0.000 A 
ATOM      3  C   UNL     1      -0.039   9.967  22.187  0.00  0.00    +0.000 A 
ATOM      4  C   UNL     1       0.722   8.866  21.760  0.00  0.00    +0.000 A 
ATOM      5  C   UNL     1       1.055   8.761  20.415  0.00  0.00    +0.000 A 
ATOM      6  C   UNL     1       0.587   9.731  19.527  0.00  0.00    +0.000 A 
ENDROOT
BRANCH   5   7
ATOM      7  N   UNL     1       1.936   7.794  19.891  0.00  0.00    +0.000 N 
ATOM      8  C   UNL     1       2.051   6.524  20.592  0.00  0.00    +0.000 C 
ATOM      9  C   UNL     1       2.436   5.615  19.494  0.00  0.00    +0.000 A 
ATOM     10  C   UNL     1       2.161   4.277  19.323  0.00  0.00    +0.000 A 
ATOM     11  C   UNL     1       2.680   3.663  18.186  0.00  0.00    +0.000 A 
ATOM     12 CL   UNL     1       2.172   2.067  17.793  0.00  0.00    +0.000 Cl
ATOM     13  C   UNL     1       3.542   4.358  17.317  0.00  0.00    +0.000 A 
ATOM     14  C   UNL     1       3.723   5.740  17.453  0.00  0.00    +0.000 A 
ATOM     15  C   UNL     1       3.061   6.359  18.496  0.00  0.00    +0.000 A 
ATOM     16  C   UNL     1       2.618   7.770  18.677  0.00  0.00    +0.000 C 
ATOM     17  O   UNL     1       2.770   8.641  17.837  0.00  0.00    +0.000 OA
ENDBRANCH   5   7
BRANCH   1  19
ATOM     18  C   UNL     1      -0.153  13.217  18.906  0.00  0.00    +0.000 C 
ATOM     19  C   UNL     1      -0.725  11.784  18.849  0.00  0.00    +0.000 C 
BRANCH  19  20
ATOM     20  S   UNL     1      -2.551  11.862  18.779  0.00  0.00    +0.000 S 
BRANCH  20  21
ATOM     21  C   UNL     1      -2.882  11.151  17.231  0.00  0.00    +0.000 A 
ATOM     22  N   UNL     1      -2.067  10.423  16.507  0.00  0.00    +0.000 NA
ATOM     23  N   UNL     1      -2.724  10.085  15.344  0.00  0.00    +0.000 NA
ATOM     24  C   UNL     1      -3.939  10.597  15.419  0.00  0.00    +0.000 A 
ATOM     25  N   UNL     1      -4.067  11.278  16.587  0.00  0.00    +0.000 N 
ATOM     26  C   UNL     1      -5.228  12.003  17.031  0.00  0.00    +0.000 C 
ENDBRANCH  20  21
ENDBRANCH  19  20
ENDBRANCH   1  19
TORSDOF 4
ENDMDL
MODEL 8
REMARK VINA RESULT:      -7.5      5.377      9.733
REMARK  Name = 
REMARK  6 active torsions:
REMARK  status: ('A' for Active; 'I' for Inactive)
REMARK    1  A    between atoms: C_1  and  C_2
REMARK    2  A    between atoms: C_2  and  S_3
REMARK    3  A    between atoms: C_2  and  C_10
REMARK    4  A    between atoms: S_3  and  C_4
REMARK    5  A    between atoms: N_8  and  C_9
REMARK    6  A    between atoms: C_14  and  N_15
REMARK                            x       y       z     vdW  Elec       q    Type
REMARK                         _______ _______ _______ _____ _____    ______ ____
ROOT
ATOM      1  C   UNL     1      -0.758  11.390  20.760  0.00  0.00    +0.000 A 
ATOM      2  C   UNL     1      -1.523  11.693  19.627  0.00  0.00    +0.000 A 
ATOM      3  C   UNL     1      -1.273  11.047  18.402  0.00  0.00    +0.000 A 
ATOM      4  C   UNL     1      -0.244  10.099  18.278  0.00  0.00    +0.000 A 
ATOM      5  C   UNL     1       0.503   9.767  19.401  0.00  0.00    +0.000 A 
ATOM      6  C   UNL     1       0.233  10.418  20.607  0.00  0.00    +0.000 A 
ENDROOT
BRANCH   5   7
ATOM      7  N   UNL     1       1.454   8.728  19.441  0.00  0.00    +0.000 N 
ATOM      8  C   UNL     1       1.546   7.933  20.657  0.00  0.00    +0.000 C 
ATOM      9  C   UNL     1       2.051   6.649  20.131  0.00  0.00    +0.000 A 
ATOM     10  C   UNL     1       1.831   5.367  20.582  0.00  0.00    +0.000 A 
ATOM     11  C   UNL     1       2.465   4.335  19.895  0.00  0.00    +0.000 A 
ATOM     12 CL   UNL     1       2.040   2.707  20.255  0.00  0.00    +0.000 Cl
ATOM     13  C   UNL     1       3.377   4.608  18.859  0.00  0.00    +0.000 A 
ATOM     14  C   UNL     1       3.505   5.907  18.351  0.00  0.00    +0.000 A 
ATOM     15  C   UNL     1       2.738   6.891  18.943  0.00  0.00    +0.000 A 
ATOM     16  C   UNL     1       2.239   8.194  18.422  0.00  0.00    +0.000 C 
ATOM     17  O   UNL     1       2.438   8.589  17.285  0.00  0.00    +0.000 OA
ENDBRANCH   5   7
BRANCH   1  19
ATOM     18  C   UNL     1      -1.513  11.237  23.242  0.00  0.00    +0.000 C 
ATOM     19  C   UNL     1      -0.925  12.096  22.102  0.00  0.00    +0.000 C 
BRANCH  19  20
ATOM     20  S   UNL     1      -1.855  13.667  21.984  0.00  0.00    +0.000 S 
BRANCH  20  21
ATOM     21  C   UNL     1      -3.413  13.208  22.594  0.00  0.00    +0.000 A 
ATOM     22  N   UNL     1      -4.294  12.435  22.006  0.00  0.00    +0.000 NA
ATOM     23  N   UNL     1      -5.398  12.355  22.827  0.00  0.00    +0.000 NA
ATOM     24  C   UNL     1      -5.132  13.061  23.910  0.00  0.00    +0.000 A 
ATOM     25  N   UNL     1      -3.898  13.616  23.792  0.00  0.00    +0.000 N 
ATOM     26  C   UNL     1      -3.253  14.479  24.746  0.00  0.00    +0.000 C 
ENDBRANCH  20  21
ENDBRANCH  19  20
ENDBRANCH   1  19
TORSDOF 4
ENDMDL
MODEL 9
REMARK VINA RESULT:      -7.4      4.660      8.341
REMARK  Name = 
REMARK  6 active torsions:
REMARK  status: ('A' for Active; 'I' for Inactive)
REMARK    1  A    between atoms: C_1  and  C_2
REMARK    2  A    between atoms: C_2  and  S_3
REMARK    3  A    between atoms: C_2  and  C_10
REMARK    4  A    between atoms: S_3  and  C_4
REMARK    5  A    between atoms: N_8  and  C_9
REMARK    6  A    between atoms: C_14  and  N_15
REMARK                            x       y       z     vdW  Elec       q    Type
REMARK                         _______ _______ _______ _____ _____    ______ ____
ROOT
ATOM      1  C   UNL     1      -0.664  11.574  20.864  0.00  0.00    +0.000 A 
ATOM      2  C   UNL     1      -1.512  11.859  19.788  0.00  0.00    +0.000 A 
ATOM      3  C   UNL     1      -1.365  11.181  18.562  0.00  0.00    +0.000 A 
ATOM      4  C   UNL     1      -0.358  10.220  18.381  0.00  0.00    +0.000 A 
ATOM      5  C   UNL     1       0.473   9.906  19.450  0.00  0.00    +0.000 A 
ATOM      6  C   UNL     1       0.303  10.588  20.657  0.00  0.00    +0.000 A 
ENDROOT
BRANCH   5   7
ATOM      7  N   UNL     1       1.414   8.858  19.441  0.00  0.00    +0.000 N 
ATOM      8  C   UNL     1       1.540   8.042  20.639  0.00  0.00    +0.000 C 
ATOM      9  C   UNL     1       2.015   6.763  20.076  0.00  0.00    +0.000 A 
ATOM     10  C   UNL     1       1.798   5.475  20.513  0.00  0.00    +0.000 A 
ATOM     11  C   UNL     1       2.398   4.449  19.787  0.00  0.00    +0.000 A 
ATOM     12 CL   UNL     1       1.971   2.819  20.134  0.00  0.00    +0.000 Cl
ATOM     13  C   UNL     1       3.277   4.732  18.726  0.00  0.00    +0.000 A 
ATOM     14  C   UNL     1       3.400   6.038  18.234  0.00  0.00    +0.000 A 
ATOM     15  C   UNL     1       2.663   7.018  18.869  0.00  0.00    +0.000 A 
ATOM     16  C   UNL     1       2.159   8.335  18.387  0.00  0.00    +0.000 C 
ATOM     17  O   UNL     1       2.323   8.748  17.251  0.00  0.00    +0.000 OA
ENDBRANCH   5   7
BRANCH   1  19
ATOM     18  C   UNL     1      -1.966  12.038  23.065  0.00  0.00    +0.000 C 
ATOM     19  C   UNL     1      -0.718  12.313  22.198  0.00  0.00    +0.000 C 
BRANCH  19  20
ATOM     20  S   UNL     1      -0.478  14.119  22.037  0.00  0.00    +0.000 S 
BRANCH  20  21
ATOM     21  C   UNL     1       1.019  14.205  21.165  0.00  0.00    +0.000 A 
ATOM     22  N   UNL     1       2.208  13.867  21.601  0.00  0.00    +0.000 NA
ATOM     23  N   UNL     1       3.114  14.118  20.594  0.00  0.00    +0.000 NA
ATOM     24  C   UNL     1       2.432  14.572  19.559  0.00  0.00    +0.000 A 
ATOM     25  N   UNL     1       1.116  14.646  19.886  0.00  0.00    +0.000 N 
ATOM     26  C   UNL     1       0.050  15.119  19.043  0.00  0.00    +0.000 C 
ENDBRANCH  20  21
ENDBRANCH  19  20
ENDBRANCH   1  19
TORSDOF 4
ENDMDL
