MODEL 1
REMARK VINA RESULT:      -8.8      0.000      0.000
REMARK  Name = 
REMARK  5 active torsions:
REMARK  status: ('A' for Active; 'I' for Inactive)
REMARK    1  A    between atoms: C_2  and  C_3
REMARK    2  A    between atoms: C_3  and  O_4
REMARK    3  A    between atoms: O_4  and  C_5
REMARK    4  A    between atoms: N_11  and  C_12
REMARK    5  A    between atoms: C_16  and  C_17
REMARK                            x       y       z     vdW  Elec       q    Type
REMARK                         _______ _______ _______ _____ _____    ______ ____
ROOT
ATOM      1  C   UNL     1       6.826   6.226  16.327  0.00  0.00    +0.000 A 
ATOM      2  C   UNL     1       7.268   5.494  15.230  0.00  0.00    +0.000 A 
ATOM      3  C   UNL     1       6.685   4.252  14.931  0.00  0.00    +0.000 A 
ATOM      4  C   UNL     1       5.661   3.722  15.730  0.00  0.00    +0.000 A 
ATOM      5  C   UNL     1       5.206   4.448  16.832  0.00  0.00    +0.000 A 
ATOM      6  C   UNL     1       5.797   5.698  17.102  0.00  0.00    +0.000 A 
ENDROOT
BRANCH   5   7
ATOM      7  C   UNL     1       4.172   4.016  17.768  0.00  0.00    +0.000 A 
ATOM      8  N   UNL     1       4.353   3.846  19.063  0.00  0.00    +0.000 NA
ATOM      9  C   UNL     1       3.142   3.435  19.523  0.00  0.00    +0.000 A 
ATOM     10  C   UNL     1       2.759   3.097  20.821  0.00  0.00    +0.000 A 
ATOM     11  C   UNL     1       1.439   2.693  21.016  0.00  0.00    +0.000 A 
ATOM     12 CL   UNL     1       0.938   2.254  22.605  0.00  0.00    +0.000 Cl
ATOM     13  C   UNL     1       0.530   2.638  19.952  0.00  0.00    +0.000 A 
ATOM     14  C   UNL     1       0.909   2.979  18.639  0.00  0.00    +0.000 A 
ATOM     15  C   UNL     1       2.235   3.368  18.477  0.00  0.00    +0.000 A 
ATOM     16  O   UNL     1       2.896   3.744  17.329  0.00  0.00    +0.000 OA
ENDBRANCH   5   7
BRANCH   1  19
ATOM     17  O   UNL     1       8.230   6.940  18.842  0.00  0.00    +0.000 OA
ATOM     18  C   UNL     1       7.985   7.747  17.950  0.00  0.00    +0.000 C 
ATOM     19  N   UNL     1       7.359   7.465  16.746  0.00  0.00    +0.000 N 
ATOM     20  H   UNL     1       7.196   8.248  16.122  0.00  0.00    +0.000 HD
BRANCH  18  21
ATOM     21  C   UNL     1       8.288   9.240  18.120  0.00  0.00    +0.000 C 
BRANCH  21  22
ATOM     22  O   UNL     1       9.074   9.493  19.278  0.00  0.00    +0.000 OA
BRANCH  22  23
ATOM     23  C   UNL     1       9.709  10.709  19.273  0.00  0.00    +0.000 A 
ATOM     24  C   UNL     1       9.895  11.301  18.023  0.00  0.00    +0.000 A 
ATOM     25  C   UNL     1      10.540  12.540  17.917  0.00  0.00    +0.000 A 
ATOM     26  C   UNL     1      10.985  13.196  19.064  0.00  0.00    +0.000 A 
ATOM     27  C   UNL     1      10.777  12.620  20.315  0.00  0.00    +0.000 A 
ATOM     28  C   UNL     1      10.138  11.385  20.420  0.00  0.00    +0.000 A 
ENDBRANCH  22  23
ENDBRANCH  21  22
ENDBRANCH  18  21
ENDBRANCH   1  19
TORSDOF 5
ENDMDL
MODEL 2
REMARK VINA RESULT:      -8.7      5.030      7.469
REMARK  Name = 
REMARK  5 active torsions:
REMARK  status: ('A' for Active; 'I' for Inactive)
REMARK    1  A    between atoms: C_2  and  C_3
REMARK    2  A    between atoms: C_3  and  O_4
REMARK    3  A    between atoms: O_4  and  C_5
REMARK    4  A    between atoms: N_11  and  C_12
REMARK    5  A    between atoms: C_16  and  C_17
REMARK                            x       y       z     vdW  Elec       q    Type
REMARK                         _______ _______ _______ _____ _____    ______ ____
ROOT
ATOM      1  C   UNL     1       4.128   4.643  18.785  0.00  0.00    +0.000 A 
ATOM      2  C   UNL     1       3.722   3.613  19.626  0.00  0.00    +0.000 A 
ATOM      3  C   UNL     1       2.687   3.824  20.551  0.00  0.00    +0.000 A 
ATOM      4  C   UNL     1       2.052   5.071  20.655  0.00  0.00    +0.000 A 
ATOM      5  C   UNL     1       2.447   6.113  19.814  0.00  0.00    +0.000 A 
ATOM      6  C   UNL     1       3.478   5.871  18.883  0.00  0.00    +0.000 A 
ENDROOT
BRANCH   5   7
ATOM      7  C   UNL     1       1.902   7.468  19.822  0.00  0.00    +0.000 A 
ATOM      8  N   UNL     1       1.941   8.301  18.800  0.00  0.00    +0.000 NA
ATOM      9  C   UNL     1       1.337   9.427  19.260  0.00  0.00    +0.000 A 
ATOM     10  C   UNL     1       1.111  10.638  18.604  0.00  0.00    +0.000 A 
ATOM     11  C   UNL     1       0.468  11.647  19.322  0.00  0.00    +0.000 A 
ATOM     12 CL   UNL     1       0.188  13.159  18.546  0.00  0.00    +0.000 Cl
ATOM     13  C   UNL     1       0.058  11.449  20.646  0.00  0.00    +0.000 A 
ATOM     14  C   UNL     1       0.281  10.230  21.314  0.00  0.00    +0.000 A 
ATOM     15  C   UNL     1       0.932   9.248  20.574  0.00  0.00    +0.000 A 
ATOM     16  O   UNL     1       1.297   7.974  20.950  0.00  0.00    +0.000 OA
ENDBRANCH   5   7
BRANCH   1  19
ATOM     17  O   UNL     1       7.057   4.916  19.174  0.00  0.00    +0.000 OA
ATOM     18  C   UNL     1       6.534   4.722  18.081  0.00  0.00    +0.000 C 
ATOM     19  N   UNL     1       5.178   4.559  17.845  0.00  0.00    +0.000 N 
ATOM     20  H   UNL     1       4.895   4.440  16.878  0.00  0.00    +0.000 HD
BRANCH  18  21
ATOM     21  C   UNL     1       7.361   4.722  16.790  0.00  0.00    +0.000 C 
BRANCH  21  22
ATOM     22  O   UNL     1       6.777   5.543  15.787  0.00  0.00    +0.000 OA
BRANCH  22  23
ATOM     23  C   UNL     1       6.735   4.967  14.541  0.00  0.00    +0.000 A 
ATOM     24  C   UNL     1       5.654   4.122  14.291  0.00  0.00    +0.000 A 
ATOM     25  C   UNL     1       5.530   3.482  13.051  0.00  0.00    +0.000 A 
ATOM     26  C   UNL     1       6.480   3.701  12.054  0.00  0.00    +0.000 A 
ATOM     27  C   UNL     1       7.545   4.565  12.292  0.00  0.00    +0.000 A 
ATOM     28  C   UNL     1       7.671   5.199  13.528  0.00  0.00    +0.000 A 
ENDBRANCH  22  23
ENDBRANCH  21  22
ENDBRANCH  18  21
ENDBRANCH   1  19
TORSDOF 5
ENDMDL
MODEL 3
REMARK VINA RESULT:      -8.2      5.073      7.564
REMARK  Name = 
REMARK  5 active torsions:
REMARK  status: ('A' for Active; 'I' for Inactive)
REMARK    1  A    between atoms: C_2  and  C_3
REMARK    2  A    between atoms: C_3  and  O_4
REMARK    3  A    between atoms: O_4  and  C_5
REMARK    4  A    between atoms: N_11  and  C_12
REMARK    5  A    between atoms: C_16  and  C_17
REMARK                            x       y       z     vdW  Elec       q    Type
REMARK                         _______ _______ _______ _____ _____    ______ ____
ROOT
ATOM      1  C   UNL     1       3.584   5.646  18.520  0.00  0.00    +0.000 A 
ATOM      2  C   UNL     1       3.407   4.428  19.167  0.00  0.00    +0.000 A 
ATOM      3  C   UNL     1       2.544   4.334  20.271  0.00  0.00    +0.000 A 
ATOM      4  C   UNL     1       1.856   5.459  20.749  0.00  0.00    +0.000 A 
ATOM      5  C   UNL     1       2.022   6.688  20.107  0.00  0.00    +0.000 A 
ATOM      6  C   UNL     1       2.881   6.753  18.992  0.00  0.00    +0.000 A 
ENDROOT
BRANCH   5   7
ATOM      7  C   UNL     1       1.397   7.947  20.504  0.00  0.00    +0.000 A 
ATOM      8  N   UNL     1       0.805   8.160  21.663  0.00  0.00    +0.000 NA
ATOM      9  C   UNL     1       0.368   9.445  21.587  0.00  0.00    +0.000 A 
ATOM     10  C   UNL     1      -0.338  10.194  22.529  0.00  0.00    +0.000 A 
ATOM     11  C   UNL     1      -0.674  11.503  22.186  0.00  0.00    +0.000 A 
ATOM     12 CL   UNL     1      -1.560  12.450  23.321  0.00  0.00    +0.000 Cl
ATOM     13  C   UNL     1      -0.309  12.048  20.949  0.00  0.00    +0.000 A 
ATOM     14  C   UNL     1       0.404  11.299  19.994  0.00  0.00    +0.000 A 
ATOM     15  C   UNL     1       0.716   9.994  20.363  0.00  0.00    +0.000 A 
ATOM     16  O   UNL     1       1.386   9.025  19.649  0.00  0.00    +0.000 OA
ENDBRANCH   5   7
BRANCH   1  19
ATOM     17  O   UNL     1       6.538   5.920  18.459  0.00  0.00    +0.000 OA
ATOM     18  C   UNL     1       5.828   6.015  17.463  0.00  0.00    +0.000 C 
ATOM     19  N   UNL     1       4.450   5.869  17.428  0.00  0.00    +0.000 N 
ATOM     20  H   UNL     1       3.999   6.011  16.531  0.00  0.00    +0.000 HD
BRANCH  18  21
ATOM     21  C   UNL     1       6.413   6.406  16.100  0.00  0.00    +0.000 C 
BRANCH  21  22
ATOM     22  O   UNL     1       7.378   5.464  15.649  0.00  0.00    +0.000 OA
BRANCH  22  23
ATOM     23  C   UNL     1       7.085   4.896  14.434  0.00  0.00    +0.000 A 
ATOM     24  C   UNL     1       5.974   4.052  14.403  0.00  0.00    +0.000 A 
ATOM     25  C   UNL     1       5.601   3.420  13.209  0.00  0.00    +0.000 A 
ATOM     26  C   UNL     1       6.329   3.646  12.042  0.00  0.00    +0.000 A 
ATOM     27  C   UNL     1       7.422   4.509  12.065  0.00  0.00    +0.000 A 
ATOM     28  C   UNL     1       7.796   5.135  13.254  0.00  0.00    +0.000 A 
ENDBRANCH  22  23
ENDBRANCH  21  22
ENDBRANCH  18  21
ENDBRANCH   1  19
TORSDOF 5
ENDMDL
MODEL 4
REMARK VINA RESULT:      -8.2      5.003      7.492
REMARK  Name = 
REMARK  5 active torsions:
REMARK  status: ('A' for Active; 'I' for Inactive)
REMARK    1  A    between atoms: C_2  and  C_3
REMARK    2  A    between atoms: C_3  and  O_4
REMARK    3  A    between atoms: O_4  and  C_5
REMARK    4  A    between atoms: N_11  and  C_12
REMARK    5  A    between atoms: C_16  and  C_17
REMARK                            x       y       z     vdW  Elec       q    Type
REMARK                         _______ _______ _______ _____ _____    ______ ____
ROOT
ATOM      1  C   UNL     1       3.643   5.527  18.475  0.00  0.00    +0.000 A 
ATOM      2  C   UNL     1       3.429   4.264  19.017  0.00  0.00    +0.000 A 
ATOM      3  C   UNL     1       2.527   4.097  20.080  0.00  0.00    +0.000 A 
ATOM      4  C   UNL     1       1.837   5.191  20.623  0.00  0.00    +0.000 A 
ATOM      5  C   UNL     1       2.040   6.464  20.087  0.00  0.00    +0.000 A 
ATOM      6  C   UNL     1       2.939   6.603  19.010  0.00  0.00    +0.000 A 
ENDROOT
BRANCH   5   7
ATOM      7  C   UNL     1       1.418   7.697  20.561  0.00  0.00    +0.000 A 
ATOM      8  N   UNL     1       1.410   8.838  19.899  0.00  0.00    +0.000 NA
ATOM      9  C   UNL     1       0.741   9.695  20.714  0.00  0.00    +0.000 A 
ATOM     10  C   UNL     1       0.447  11.046  20.523  0.00  0.00    +0.000 A 
ATOM     11  C   UNL     1      -0.254  11.700  21.536  0.00  0.00    +0.000 A 
ATOM     12 CL   UNL     1      -0.619  13.372  21.338  0.00  0.00    +0.000 Cl
ATOM     13  C   UNL     1      -0.654  11.025  22.696  0.00  0.00    +0.000 A 
ATOM     14  C   UNL     1      -0.362   9.662  22.895  0.00  0.00    +0.000 A 
ATOM     15  C   UNL     1       0.346   9.042  21.871  0.00  0.00    +0.000 A 
ATOM     16  O   UNL     1       0.783   7.739  21.781  0.00  0.00    +0.000 OA
ENDBRANCH   5   7
BRANCH   1  19
ATOM     17  O   UNL     1       6.592   5.846  18.552  0.00  0.00    +0.000 OA
ATOM     18  C   UNL     1       5.922   5.986  17.534  0.00  0.00    +0.000 C 
ATOM     19  N   UNL     1       4.549   5.822  17.433  0.00  0.00    +0.000 N 
ATOM     20  H   UNL     1       4.133   6.007  16.528  0.00  0.00    +0.000 HD
BRANCH  18  21
ATOM     21  C   UNL     1       6.556   6.459  16.220  0.00  0.00    +0.000 C 
BRANCH  21  22
ATOM     22  O   UNL     1       7.478   5.508  15.704  0.00  0.00    +0.000 OA
BRANCH  22  23
ATOM     23  C   UNL     1       7.069   4.901  14.543  0.00  0.00    +0.000 A 
ATOM     24  C   UNL     1       7.816   5.193  13.401  0.00  0.00    +0.000 A 
ATOM     25  C   UNL     1       7.470   4.627  12.167  0.00  0.00    +0.000 A 
ATOM     26  C   UNL     1       6.387   3.753  12.079  0.00  0.00    +0.000 A 
ATOM     27  C   UNL     1       5.657   3.439  13.222  0.00  0.00    +0.000 A 
ATOM     28  C   UNL     1       5.999   4.006  14.449  0.00  0.00    +0.000 A 
ENDBRANCH  22  23
ENDBRANCH  21  22
ENDBRANCH  18  21
ENDBRANCH   1  19
TORSDOF 5
ENDMDL
MODEL 5
REMARK VINA RESULT:      -8.2      4.972      7.464
REMARK  Name = 
REMARK  5 active torsions:
REMARK  status: ('A' for Active; 'I' for Inactive)
REMARK    1  A    between atoms: C_2  and  C_3
REMARK    2  A    between atoms: C_3  and  O_4
REMARK    3  A    between atoms: O_4  and  C_5
REMARK    4  A    between atoms: N_11  and  C_12
REMARK    5  A    between atoms: C_16  and  C_17
REMARK                            x       y       z     vdW  Elec       q    Type
REMARK                         _______ _______ _______ _____ _____    ______ ____
ROOT
ATOM      1  C   UNL     1       3.861   5.349  18.773  0.00  0.00    +0.000 A 
ATOM      2  C   UNL     1       3.494   4.144  19.362  0.00  0.00    +0.000 A 
ATOM      3  C   UNL     1       2.459   4.109  20.310  0.00  0.00    +0.000 A 
ATOM      4  C   UNL     1       1.786   5.280  20.691  0.00  0.00    +0.000 A 
ATOM      5  C   UNL     1       2.143   6.496  20.105  0.00  0.00    +0.000 A 
ATOM      6  C   UNL     1       3.174   6.502  19.145  0.00  0.00    +0.000 A 
ENDROOT
BRANCH   5   7
ATOM      7  C   UNL     1       1.555   7.796  20.417  0.00  0.00    +0.000 A 
ATOM      8  N   UNL     1       1.035   8.126  21.584  0.00  0.00    +0.000 NA
ATOM      9  C   UNL     1       0.607   9.404  21.412  0.00  0.00    +0.000 A 
ATOM     10  C   UNL     1      -0.034  10.249  22.319  0.00  0.00    +0.000 A 
ATOM     11  C   UNL     1      -0.377  11.526  21.875  0.00  0.00    +0.000 A 
ATOM     12 CL   UNL     1      -1.184  12.588  22.965  0.00  0.00    +0.000 Cl
ATOM     13  C   UNL     1      -0.081  11.947  20.573  0.00  0.00    +0.000 A 
ATOM     14  C   UNL     1       0.567  11.100  19.653  0.00  0.00    +0.000 A 
ATOM     15  C   UNL     1       0.887   9.831  20.124  0.00  0.00    +0.000 A 
ATOM     16  O   UNL     1       1.504   8.790  19.466  0.00  0.00    +0.000 OA
ENDBRANCH   5   7
BRANCH   1  19
ATOM     17  O   UNL     1       6.625   4.270  18.803  0.00  0.00    +0.000 OA
ATOM     18  C   UNL     1       6.193   5.003  17.918  0.00  0.00    +0.000 C 
ATOM     19  N   UNL     1       4.907   5.512  17.838  0.00  0.00    +0.000 N 
ATOM     20  H   UNL     1       4.710   6.134  17.062  0.00  0.00    +0.000 HD
BRANCH  18  21
ATOM     21  C   UNL     1       7.102   5.522  16.797  0.00  0.00    +0.000 C 
BRANCH  21  22
ATOM     22  O   UNL     1       6.353   6.017  15.694  0.00  0.00    +0.000 OA
BRANCH  22  23
ATOM     23  C   UNL     1       6.386   5.210  14.584  0.00  0.00    +0.000 A 
ATOM     24  C   UNL     1       7.477   5.381  13.732  0.00  0.00    +0.000 A 
ATOM     25  C   UNL     1       7.593   4.608  12.569  0.00  0.00    +0.000 A 
ATOM     26  C   UNL     1       6.626   3.651  12.268  0.00  0.00    +0.000 A 
ATOM     27  C   UNL     1       5.550   3.459  13.131  0.00  0.00    +0.000 A 
ATOM     28  C   UNL     1       5.432   4.231  14.287  0.00  0.00    +0.000 A 
ENDBRANCH  22  23
ENDBRANCH  21  22
ENDBRANCH  18  21
ENDBRANCH   1  19
TORSDOF 5
ENDMDL
MODEL 6
REMARK VINA RESULT:      -8.2      5.044      7.546
REMARK  Name = 
REMARK  5 active torsions:
REMARK  status: ('A' for Active; 'I' for Inactive)
REMARK    1  A    between atoms: C_2  and  C_3
REMARK    2  A    between atoms: C_3  and  O_4
REMARK    3  A    between atoms: O_4  and  C_5
REMARK    4  A    between atoms: N_11  and  C_12
REMARK    5  A    between atoms: C_16  and  C_17
REMARK                            x       y       z     vdW  Elec       q    Type
REMARK                         _______ _______ _______ _____ _____    ______ ____
ROOT
ATOM      1  C   UNL     1       4.183   4.625  19.092  0.00  0.00    +0.000 A 
ATOM      2  C   UNL     1       3.605   3.547  19.753  0.00  0.00    +0.000 A 
ATOM      3  C   UNL     1       2.421   3.721  20.487  0.00  0.00    +0.000 A 
ATOM      4  C   UNL     1       1.806   4.979  20.580  0.00  0.00    +0.000 A 
ATOM      5  C   UNL     1       2.373   6.070  19.919  0.00  0.00    +0.000 A 
ATOM      6  C   UNL     1       3.553   5.865  19.176  0.00  0.00    +0.000 A 
ENDROOT
BRANCH   5   7
ATOM      7  C   UNL     1       1.866   7.439  19.944  0.00  0.00    +0.000 A 
ATOM      8  N   UNL     1       1.905   8.275  18.924  0.00  0.00    +0.000 NA
ATOM      9  C   UNL     1       1.342   9.416  19.402  0.00  0.00    +0.000 A 
ATOM     10  C   UNL     1       1.135  10.635  18.755  0.00  0.00    +0.000 A 
ATOM     11  C   UNL     1       0.538  11.658  19.490  0.00  0.00    +0.000 A 
ATOM     12 CL   UNL     1       0.282  13.181  18.727  0.00  0.00    +0.000 Cl
ATOM     13  C   UNL     1       0.152  11.466  20.823  0.00  0.00    +0.000 A 
ATOM     14  C   UNL     1       0.356  10.238  21.481  0.00  0.00    +0.000 A 
ATOM     15  C   UNL     1       0.963   9.242  20.723  0.00  0.00    +0.000 A 
ATOM     16  O   UNL     1       1.301   7.957  21.087  0.00  0.00    +0.000 OA
ENDBRANCH   5   7
BRANCH   1  19
ATOM     17  O   UNL     1       5.045   6.229  16.750  0.00  0.00    +0.000 OA
ATOM     18  C   UNL     1       5.726   5.338  17.249  0.00  0.00    +0.000 C 
ATOM     19  N   UNL     1       5.387   4.578  18.357  0.00  0.00    +0.000 N 
ATOM     20  H   UNL     1       6.041   3.853  18.629  0.00  0.00    +0.000 HD
BRANCH  18  21
ATOM     21  C   UNL     1       7.051   4.898  16.616  0.00  0.00    +0.000 C 
BRANCH  21  22
ATOM     22  O   UNL     1       7.323   5.604  15.412  0.00  0.00    +0.000 OA
BRANCH  22  23
ATOM     23  C   UNL     1       6.978   4.924  14.270  0.00  0.00    +0.000 A 
ATOM     24  C   UNL     1       7.769   5.167  13.147  0.00  0.00    +0.000 A 
ATOM     25  C   UNL     1       7.489   4.525  11.934  0.00  0.00    +0.000 A 
ATOM     26  C   UNL     1       6.426   3.626  11.849  0.00  0.00    +0.000 A 
ATOM     27  C   UNL     1       5.652   3.362  12.975  0.00  0.00    +0.000 A 
ATOM     28  C   UNL     1       5.928   4.004  14.182  0.00  0.00    +0.000 A 
ENDBRANCH  22  23
ENDBRANCH  21  22
ENDBRANCH  18  21
ENDBRANCH   1  19
TORSDOF 5
ENDMDL
MODEL 7
REMARK VINA RESULT:      -8.1      4.919      7.368
REMARK  Name = 
REMARK  5 active torsions:
REMARK  status: ('A' for Active; 'I' for Inactive)
REMARK    1  A    between atoms: C_2  and  C_3
REMARK    2  A    between atoms: C_3  and  O_4
REMARK    3  A    between atoms: O_4  and  C_5
REMARK    4  A    between atoms: N_11  and  C_12
REMARK    5  A    between atoms: C_16  and  C_17
REMARK                            x       y       z     vdW  Elec       q    Type
REMARK                         _______ _______ _______ _____ _____    ______ ____
ROOT
ATOM      1  C   UNL     1       4.130   4.438  18.987  0.00  0.00    +0.000 A 
ATOM      2  C   UNL     1       3.504   3.324  19.536  0.00  0.00    +0.000 A 
ATOM      3  C   UNL     1       2.308   3.471  20.256  0.00  0.00    +0.000 A 
ATOM      4  C   UNL     1       1.729   4.735  20.448  0.00  0.00    +0.000 A 
ATOM      5  C   UNL     1       2.345   5.861  19.900  0.00  0.00    +0.000 A 
ATOM      6  C   UNL     1       3.536   5.685  19.168  0.00  0.00    +0.000 A 
ENDROOT
BRANCH   5   7
ATOM      7  C   UNL     1       1.879   7.238  20.037  0.00  0.00    +0.000 A 
ATOM      8  N   UNL     1       1.390   7.760  21.145  0.00  0.00    +0.000 NA
ATOM      9  C   UNL     1       1.081   9.040  20.808  0.00  0.00    +0.000 A 
ATOM     10  C   UNL     1       0.520  10.048  21.592  0.00  0.00    +0.000 A 
ATOM     11  C   UNL     1       0.295  11.283  20.985  0.00  0.00    +0.000 A 
ATOM     12 CL   UNL     1      -0.412  12.545  21.921  0.00  0.00    +0.000 Cl
ATOM     13  C   UNL     1       0.629  11.506  19.643  0.00  0.00    +0.000 A 
ATOM     14  C   UNL     1       1.197  10.494  18.846  0.00  0.00    +0.000 A 
ATOM     15  C   UNL     1       1.400   9.271  19.479  0.00  0.00    +0.000 A 
ATOM     16  O   UNL     1       1.919   8.103  18.967  0.00  0.00    +0.000 OA
ENDBRANCH   5   7
BRANCH   1  19
ATOM     17  O   UNL     1       5.165   6.308  16.929  0.00  0.00    +0.000 OA
ATOM     18  C   UNL     1       5.771   5.309  17.302  0.00  0.00    +0.000 C 
ATOM     19  N   UNL     1       5.350   4.418  18.277  0.00  0.00    +0.000 N 
ATOM     20  H   UNL     1       5.948   3.617  18.451  0.00  0.00    +0.000 HD
BRANCH  18  21
ATOM     21  C   UNL     1       7.083   4.877  16.638  0.00  0.00    +0.000 C 
BRANCH  21  22
ATOM     22  O   UNL     1       7.368   5.649  15.478  0.00  0.00    +0.000 OA
BRANCH  22  23
ATOM     23  C   UNL     1       7.103   5.006  14.295  0.00  0.00    +0.000 A 
ATOM     24  C   UNL     1       6.031   4.113  14.307  0.00  0.00    +0.000 A 
ATOM     25  C   UNL     1       5.689   3.404  13.148  0.00  0.00    +0.000 A 
ATOM     26  C   UNL     1       6.409   3.600  11.971  0.00  0.00    +0.000 A 
ATOM     27  C   UNL     1       7.463   4.510  11.949  0.00  0.00    +0.000 A 
ATOM     28  C   UNL     1       7.806   5.214  13.104  0.00  0.00    +0.000 A 
ENDBRANCH  22  23
ENDBRANCH  21  22
ENDBRANCH  18  21
ENDBRANCH   1  19
TORSDOF 5
ENDMDL
MODEL 8
REMARK VINA RESULT:      -7.9      5.480      8.129
REMARK  Name = 
REMARK  5 active torsions:
REMARK  status: ('A' for Active; 'I' for Inactive)
REMARK    1  A    between atoms: C_2  and  C_3
REMARK    2  A    between atoms: C_3  and  O_4
REMARK    3  A    between atoms: O_4  and  C_5
REMARK    4  A    between atoms: N_11  and  C_12
REMARK    5  A    between atoms: C_16  and  C_17
REMARK                            x       y       z     vdW  Elec       q    Type
REMARK                         _______ _______ _______ _____ _____    ______ ____
ROOT
ATOM      1  C   UNL     1       2.206   5.003  20.829  0.00  0.00    +0.000 A 
ATOM      2  C   UNL     1       1.992   3.788  21.470  0.00  0.00    +0.000 A 
ATOM      3  C   UNL     1       2.600   2.618  20.986  0.00  0.00    +0.000 A 
ATOM      4  C   UNL     1       3.420   2.646  19.848  0.00  0.00    +0.000 A 
ATOM      5  C   UNL     1       3.646   3.860  19.197  0.00  0.00    +0.000 A 
ATOM      6  C   UNL     1       3.037   5.022  19.711  0.00  0.00    +0.000 A 
ENDROOT
BRANCH   5   7
ATOM      7  C   UNL     1       4.450   4.043  17.991  0.00  0.00    +0.000 A 
ATOM      8  N   UNL     1       4.093   3.653  16.783  0.00  0.00    +0.000 NA
ATOM      9  C   UNL     1       5.136   4.013  15.990  0.00  0.00    +0.000 A 
ATOM     10  C   UNL     1       5.304   3.834  14.616  0.00  0.00    +0.000 A 
ATOM     11  C   UNL     1       6.491   4.296  14.049  0.00  0.00    +0.000 A 
ATOM     12 CL   UNL     1       6.736   4.075  12.358  0.00  0.00    +0.000 Cl
ATOM     13  C   UNL     1       7.473   4.923  14.826  0.00  0.00    +0.000 A 
ATOM     14  C   UNL     1       7.310   5.109  16.212  0.00  0.00    +0.000 A 
ATOM     15  C   UNL     1       6.119   4.629  16.748  0.00  0.00    +0.000 A 
ATOM     16  O   UNL     1       5.683   4.653  18.055  0.00  0.00    +0.000 OA
ENDBRANCH   5   7
BRANCH   1  19
ATOM     17  O   UNL     1       2.268   7.632  19.454  0.00  0.00    +0.000 OA
ATOM     18  C   UNL     1       1.707   7.442  20.529  0.00  0.00    +0.000 C 
ATOM     19  N   UNL     1       1.622   6.233  21.201  0.00  0.00    +0.000 N 
ATOM     20  H   UNL     1       1.152   6.243  22.100  0.00  0.00    +0.000 HD
BRANCH  18  21
ATOM     21  C   UNL     1       1.080   8.598  21.317  0.00  0.00    +0.000 C 
BRANCH  21  22
ATOM     22  O   UNL     1       0.550   9.599  20.457  0.00  0.00    +0.000 OA
BRANCH  22  23
ATOM     23  C   UNL     1      -0.311  10.473  21.072  0.00  0.00    +0.000 A 
ATOM     24  C   UNL     1      -1.021  11.331  20.232  0.00  0.00    +0.000 A 
ATOM     25  C   UNL     1      -1.918  12.263  20.769  0.00  0.00    +0.000 A 
ATOM     26  C   UNL     1      -2.118  12.325  22.148  0.00  0.00    +0.000 A 
ATOM     27  C   UNL     1      -1.431  11.452  22.986  0.00  0.00    +0.000 A 
ATOM     28  C   UNL     1      -0.534  10.527  22.452  0.00  0.00    +0.000 A 
ENDBRANCH  22  23
ENDBRANCH  21  22
ENDBRANCH  18  21
ENDBRANCH   1  19
TORSDOF 5
ENDMDL
MODEL 9
REMARK VINA RESULT:      -7.9      5.126      7.038
REMARK  Name = 
REMARK  5 active torsions:
REMARK  status: ('A' for Active; 'I' for Inactive)
REMARK    1  A    between atoms: C_2  and  C_3
REMARK    2  A    between atoms: C_3  and  O_4
REMARK    3  A    between atoms: O_4  and  C_5
REMARK    4  A    between atoms: N_11  and  C_12
REMARK    5  A    between atoms: C_16  and  C_17
REMARK                            x       y       z     vdW  Elec       q    Type
REMARK                         _______ _______ _______ _____ _____    ______ ____
ROOT
ATOM      1  C   UNL     1       3.162   5.111  18.661  0.00  0.00    +0.000 A 
ATOM      2  C   UNL     1       2.978   4.075  19.569  0.00  0.00    +0.000 A 
ATOM      3  C   UNL     1       2.247   4.292  20.748  0.00  0.00    +0.000 A 
ATOM      4  C   UNL     1       1.701   5.552  21.039  0.00  0.00    +0.000 A 
ATOM      5  C   UNL     1       1.875   6.600  20.134  0.00  0.00    +0.000 A 
ATOM      6  C   UNL     1       2.600   6.352  18.951  0.00  0.00    +0.000 A 
ENDROOT
BRANCH   5   7
ATOM      7  C   UNL     1       1.392   7.967  20.310  0.00  0.00    +0.000 A 
ATOM      8  N   UNL     1       1.501   8.925  19.411  0.00  0.00    +0.000 NA
ATOM      9  C   UNL     1       0.933  10.009  20.002  0.00  0.00    +0.000 A 
ATOM     10  C   UNL     1       0.783  11.306  19.509  0.00  0.00    +0.000 A 
ATOM     11  C   UNL     1       0.164  12.240  20.338  0.00  0.00    +0.000 A 
ATOM     12 CL   UNL     1      -0.022  13.854  19.766  0.00  0.00    +0.000 Cl
ATOM     13  C   UNL     1      -0.297  11.889  21.613  0.00  0.00    +0.000 A 
ATOM     14  C   UNL     1      -0.151  10.582  22.117  0.00  0.00    +0.000 A 
ATOM     15  C   UNL     1       0.479   9.676  21.269  0.00  0.00    +0.000 A 
ATOM     16  O   UNL     1       0.774   8.347  21.480  0.00  0.00    +0.000 OA
ENDBRANCH   5   7
BRANCH   1  19
ATOM     17  O   UNL     1       4.214   2.722  17.250  0.00  0.00    +0.000 OA
ATOM     18  C   UNL     1       4.397   3.873  16.863  0.00  0.00    +0.000 C 
ATOM     19  N   UNL     1       3.907   5.021  17.464  0.00  0.00    +0.000 N 
ATOM     20  H   UNL     1       4.173   5.905  17.044  0.00  0.00    +0.000 HD
BRANCH  18  21
ATOM     21  C   UNL     1       5.298   4.176  15.660  0.00  0.00    +0.000 C 
BRANCH  21  22
ATOM     22  O   UNL     1       6.677   4.094  15.998  0.00  0.00    +0.000 OA
BRANCH  22  23
ATOM     23  C   UNL     1       7.110   5.085  16.842  0.00  0.00    +0.000 A 
ATOM     24  C   UNL     1       7.654   4.665  18.056  0.00  0.00    +0.000 A 
ATOM     25  C   UNL     1       8.117   5.605  18.986  0.00  0.00    +0.000 A 
ATOM     26  C   UNL     1       8.051   6.966  18.694  0.00  0.00    +0.000 A 
ATOM     27  C   UNL     1       7.533   7.388  17.472  0.00  0.00    +0.000 A 
ATOM     28  C   UNL     1       7.069   6.452  16.548  0.00  0.00    +0.000 A 
ENDBRANCH  22  23
ENDBRANCH  21  22
ENDBRANCH  18  21
ENDBRANCH   1  19
TORSDOF 5
ENDMDL
