MODEL 1
REMARK VINA RESULT:      -6.0      0.000      0.000
REMARK  Name = 
REMARK  3 active torsions:
REMARK  status: ('A' for Active; 'I' for Inactive)
REMARK    1  A    between atoms: C_1  and  C_2
REMARK    2  A    between atoms: C_4  and  C_5
REMARK    3  A    between atoms: C_6  and  C_7
REMARK                            x       y       z     vdW  Elec       q    Type
REMARK                         _______ _______ _______ _____ _____    ______ ____
ROOT
ATOM      1  C   UNL     1       5.213   5.259  18.636  0.00  0.00    +0.000 A 
ATOM      2  C   UNL     1       5.641   6.048  17.587  0.00  0.00    +0.000 A 
ATOM      3  S   UNL     1       7.286   6.482  17.821  0.00  0.00    +0.000 S 
ATOM      4  C   UNL     1       7.295   5.602  19.296  0.00  0.00    +0.000 A 
ATOM      5  N   UNL     1       8.395   5.543  20.059  0.00  0.00    +0.000 N 
ATOM      6  N   UNL     1       6.168   5.013  19.605  0.00  0.00    +0.000 NA
ATOM      7  H   UNL     1       9.293   5.812  19.675  0.00  0.00    +0.000 HD
ATOM      8  H   UNL     1       8.417   4.859  20.804  0.00  0.00    +0.000 HD
ENDROOT
BRANCH   1  14
ATOM      9  C   UNL     1       0.812   2.244  18.752  0.00  0.00    +0.000 C 
ATOM     10  C   UNL     1       1.807   3.348  18.805  0.00  0.00    +0.000 A 
ATOM     11  N   UNL     1       1.542   4.572  19.206  0.00  0.00    +0.000 NA
ATOM     12  C   UNL     1       2.693   5.354  19.150  0.00  0.00    +0.000 A 
ATOM     13  C   UNL     1       2.567   6.785  19.538  0.00  0.00    +0.000 C 
ATOM     14  C   UNL     1       3.829   4.681  18.730  0.00  0.00    +0.000 A 
ATOM     15  S   UNL     1       3.426   3.064  18.326  0.00  0.00    +0.000 S 
ENDBRANCH   1  14
TORSDOF 1
ENDMDL
MODEL 2
REMARK VINA RESULT:      -5.8      2.352      2.686
REMARK  Name = 
REMARK  3 active torsions:
REMARK  status: ('A' for Active; 'I' for Inactive)
REMARK    1  A    between atoms: C_1  and  C_2
REMARK    2  A    between atoms: C_4  and  C_5
REMARK    3  A    between atoms: C_6  and  C_7
REMARK                            x       y       z     vdW  Elec       q    Type
REMARK                         _______ _______ _______ _____ _____    ______ ____
ROOT
ATOM      1  C   UNL     1       4.992   4.118  17.819  0.00  0.00    +0.000 A 
ATOM      2  C   UNL     1       6.190   4.715  18.159  0.00  0.00    +0.000 A 
ATOM      3  S   UNL     1       7.234   4.739  16.796  0.00  0.00    +0.000 S 
ATOM      4  C   UNL     1       6.023   3.946  15.872  0.00  0.00    +0.000 A 
ATOM      5  N   UNL     1       6.232   3.629  14.586  0.00  0.00    +0.000 N 
ATOM      6  N   UNL     1       4.912   3.682  16.510  0.00  0.00    +0.000 NA
ATOM      7  H   UNL     1       7.000   4.051  14.079  0.00  0.00    +0.000 HD
ATOM      8  H   UNL     1       5.433   3.350  14.032  0.00  0.00    +0.000 HD
ENDROOT
BRANCH   1  14
ATOM      9  C   UNL     1       1.494   2.692  21.588  0.00  0.00    +0.000 C 
ATOM     10  C   UNL     1       2.232   3.357  20.481  0.00  0.00    +0.000 A 
ATOM     11  N   UNL     1       1.889   4.504  19.939  0.00  0.00    +0.000 NA
ATOM     12  C   UNL     1       2.796   4.854  18.942  0.00  0.00    +0.000 A 
ATOM     13  C   UNL     1       2.539   6.115  18.196  0.00  0.00    +0.000 C 
ATOM     14  C   UNL     1       3.842   3.961  18.773  0.00  0.00    +0.000 A 
ATOM     15  S   UNL     1       3.636   2.625  19.829  0.00  0.00    +0.000 S 
ENDBRANCH   1  14
TORSDOF 1
ENDMDL
MODEL 3
REMARK VINA RESULT:      -5.7      2.316      4.991
REMARK  Name = 
REMARK  3 active torsions:
REMARK  status: ('A' for Active; 'I' for Inactive)
REMARK    1  A    between atoms: C_1  and  C_2
REMARK    2  A    between atoms: C_4  and  C_5
REMARK    3  A    between atoms: C_6  and  C_7
REMARK                            x       y       z     vdW  Elec       q    Type
REMARK                         _______ _______ _______ _____ _____    ______ ____
ROOT
ATOM      1  C   UNL     1       4.553   4.291  18.685  0.00  0.00    +0.000 A 
ATOM      2  C   UNL     1       4.273   3.034  19.181  0.00  0.00    +0.000 A 
ATOM      3  S   UNL     1       3.075   3.147  20.406  0.00  0.00    +0.000 S 
ATOM      4  C   UNL     1       3.034   4.851  20.191  0.00  0.00    +0.000 A 
ATOM      5  N   UNL     1       2.225   5.622  20.930  0.00  0.00    +0.000 N 
ATOM      6  N   UNL     1       3.839   5.320  19.272  0.00  0.00    +0.000 NA
ATOM      7  H   UNL     1       1.466   5.203  21.454  0.00  0.00    +0.000 HD
ATOM      8  H   UNL     1       2.086   6.580  20.635  0.00  0.00    +0.000 HD
ENDROOT
BRANCH   1  14
ATOM      9  C   UNL     1       7.209   4.888  14.095  0.00  0.00    +0.000 C 
ATOM     10  C   UNL     1       6.777   4.844  15.518  0.00  0.00    +0.000 A 
ATOM     11  N   UNL     1       7.479   5.314  16.525  0.00  0.00    +0.000 NA
ATOM     12  C   UNL     1       6.786   5.132  17.719  0.00  0.00    +0.000 A 
ATOM     13  C   UNL     1       7.453   5.577  18.972  0.00  0.00    +0.000 C 
ATOM     14  C   UNL     1       5.537   4.547  17.579  0.00  0.00    +0.000 A 
ATOM     15  S   UNL     1       5.268   4.150  15.932  0.00  0.00    +0.000 S 
ENDBRANCH   1  14
TORSDOF 1
ENDMDL
MODEL 4
REMARK VINA RESULT:      -5.7      1.984      2.110
REMARK  Name = 
REMARK  3 active torsions:
REMARK  status: ('A' for Active; 'I' for Inactive)
REMARK    1  A    between atoms: C_1  and  C_2
REMARK    2  A    between atoms: C_4  and  C_5
REMARK    3  A    between atoms: C_6  and  C_7
REMARK                            x       y       z     vdW  Elec       q    Type
REMARK                         _______ _______ _______ _____ _____    ______ ____
ROOT
ATOM      1  C   UNL     1       4.996   4.791  17.637  0.00  0.00    +0.000 A 
ATOM      2  C   UNL     1       5.221   3.998  16.530  0.00  0.00    +0.000 A 
ATOM      3  S   UNL     1       6.544   4.620  15.629  0.00  0.00    +0.000 S 
ATOM      4  C   UNL     1       6.704   5.894  16.769  0.00  0.00    +0.000 A 
ATOM      5  N   UNL     1       7.647   6.835  16.625  0.00  0.00    +0.000 N 
ATOM      6  N   UNL     1       5.851   5.871  17.760  0.00  0.00    +0.000 NA
ATOM      7  H   UNL     1       8.418   6.686  15.985  0.00  0.00    +0.000 HD
ATOM      8  H   UNL     1       7.834   7.441  17.413  0.00  0.00    +0.000 HD
ENDROOT
BRANCH   1  14
ATOM      9  C   UNL     1       1.863   2.952  21.546  0.00  0.00    +0.000 C 
ATOM     10  C   UNL     1       2.481   3.719  20.431  0.00  0.00    +0.000 A 
ATOM     11  N   UNL     1       2.033   4.869  19.979  0.00  0.00    +0.000 NA
ATOM     12  C   UNL     1       2.845   5.328  18.945  0.00  0.00    +0.000 A 
ATOM     13  C   UNL     1       2.462   6.607  18.290  0.00  0.00    +0.000 C 
ATOM     14  C   UNL     1       3.928   4.512  18.656  0.00  0.00    +0.000 A 
ATOM     15  S   UNL     1       3.876   3.112  19.646  0.00  0.00    +0.000 S 
ENDBRANCH   1  14
TORSDOF 1
ENDMDL
MODEL 5
REMARK VINA RESULT:      -5.7      1.903      1.926
REMARK  Name = 
REMARK  3 active torsions:
REMARK  status: ('A' for Active; 'I' for Inactive)
REMARK    1  A    between atoms: C_1  and  C_2
REMARK    2  A    between atoms: C_4  and  C_5
REMARK    3  A    between atoms: C_6  and  C_7
REMARK                            x       y       z     vdW  Elec       q    Type
REMARK                         _______ _______ _______ _____ _____    ______ ____
ROOT
ATOM      1  C   UNL     1       4.709   4.437  18.206  0.00  0.00    +0.000 A 
ATOM      2  C   UNL     1       4.452   4.824  16.906  0.00  0.00    +0.000 A 
ATOM      3  S   UNL     1       5.926   4.937  16.033  0.00  0.00    +0.000 S 
ATOM      4  C   UNL     1       6.785   4.478  17.448  0.00  0.00    +0.000 A 
ATOM      5  N   UNL     1       8.121   4.378  17.443  0.00  0.00    +0.000 N 
ATOM      6  N   UNL     1       6.046   4.244  18.502  0.00  0.00    +0.000 NA
ATOM      7  H   UNL     1       8.623   4.341  16.564  0.00  0.00    +0.000 HD
ATOM      8  H   UNL     1       8.563   3.916  18.227  0.00  0.00    +0.000 HD
ENDROOT
BRANCH   1  14
ATOM      9  C   UNL     1       1.321   2.620  21.907  0.00  0.00    +0.000 C 
ATOM     10  C   UNL     1       2.085   3.436  20.925  0.00  0.00    +0.000 A 
ATOM     11  N   UNL     1       1.941   4.732  20.760  0.00  0.00    +0.000 NA
ATOM     12  C   UNL     1       2.814   5.190  19.777  0.00  0.00    +0.000 A 
ATOM     13  C   UNL     1       2.761   6.637  19.435  0.00  0.00    +0.000 C 
ATOM     14  C   UNL     1       3.636   4.215  19.234  0.00  0.00    +0.000 A 
ATOM     15  S   UNL     1       3.249   2.690  19.915  0.00  0.00    +0.000 S 
ENDBRANCH   1  14
TORSDOF 1
ENDMDL
MODEL 6
REMARK VINA RESULT:      -5.7      3.042      5.591
REMARK  Name = 
REMARK  3 active torsions:
REMARK  status: ('A' for Active; 'I' for Inactive)
REMARK    1  A    between atoms: C_1  and  C_2
REMARK    2  A    between atoms: C_4  and  C_5
REMARK    3  A    between atoms: C_6  and  C_7
REMARK                            x       y       z     vdW  Elec       q    Type
REMARK                         _______ _______ _______ _____ _____    ______ ____
ROOT
ATOM      1  C   UNL     1       4.299   4.054  17.075  0.00  0.00    +0.000 A 
ATOM      2  C   UNL     1       3.522   5.034  17.660  0.00  0.00    +0.000 A 
ATOM      3  S   UNL     1       2.318   4.308  18.645  0.00  0.00    +0.000 S 
ATOM      4  C   UNL     1       2.912   2.757  18.207  0.00  0.00    +0.000 A 
ATOM      5  N   UNL     1       2.341   1.640  18.679  0.00  0.00    +0.000 N 
ATOM      6  N   UNL     1       3.938   2.758  17.395  0.00  0.00    +0.000 NA
ATOM      7  H   UNL     1       1.712   1.688  19.471  0.00  0.00    +0.000 HD
ATOM      8  H   UNL     1       2.841   0.768  18.560  0.00  0.00    +0.000 HD
ENDROOT
BRANCH   1  14
ATOM      9  C   UNL     1       7.673   5.055  13.064  0.00  0.00    +0.000 C 
ATOM     10  C   UNL     1       7.030   4.816  14.384  0.00  0.00    +0.000 A 
ATOM     11  N   UNL     1       7.631   4.963  15.544  0.00  0.00    +0.000 NA
ATOM     12  C   UNL     1       6.747   4.677  16.581  0.00  0.00    +0.000 A 
ATOM     13  C   UNL     1       7.273   4.759  17.970  0.00  0.00    +0.000 C 
ATOM     14  C   UNL     1       5.465   4.346  16.173  0.00  0.00    +0.000 A 
ATOM     15  S   UNL     1       5.394   4.318  14.460  0.00  0.00    +0.000 S 
ENDBRANCH   1  14
TORSDOF 1
ENDMDL
MODEL 7
REMARK VINA RESULT:      -5.7      2.100      2.426
REMARK  Name = 
REMARK  3 active torsions:
REMARK  status: ('A' for Active; 'I' for Inactive)
REMARK    1  A    between atoms: C_1  and  C_2
REMARK    2  A    between atoms: C_4  and  C_5
REMARK    3  A    between atoms: C_6  and  C_7
REMARK                            x       y       z     vdW  Elec       q    Type
REMARK                         _______ _______ _______ _____ _____    ______ ____
ROOT
ATOM      1  C   UNL     1       4.668   5.362  18.426  0.00  0.00    +0.000 A 
ATOM      2  C   UNL     1       5.996   5.486  18.783  0.00  0.00    +0.000 A 
ATOM      3  S   UNL     1       6.890   6.144  17.474  0.00  0.00    +0.000 S 
ATOM      4  C   UNL     1       5.452   6.199  16.536  0.00  0.00    +0.000 A 
ATOM      5  N   UNL     1       5.467   6.652  15.275  0.00  0.00    +0.000 N 
ATOM      6  N   UNL     1       4.373   5.773  17.139  0.00  0.00    +0.000 NA
ATOM      7  H   UNL     1       6.262   7.179  14.935  0.00  0.00    +0.000 HD
ATOM      8  H   UNL     1       4.578   6.854  14.835  0.00  0.00    +0.000 HD
ENDROOT
BRANCH   1  14
ATOM      9  C   UNL     1       1.485   2.587  21.688  0.00  0.00    +0.000 C 
ATOM     10  C   UNL     1       2.138   3.626  20.847  0.00  0.00    +0.000 A 
ATOM     11  N   UNL     1       1.773   4.888  20.806  0.00  0.00    +0.000 NA
ATOM     12  C   UNL     1       2.596   5.598  19.934  0.00  0.00    +0.000 A 
ATOM     13  C   UNL     1       2.301   7.042  19.738  0.00  0.00    +0.000 C 
ATOM     14  C   UNL     1       3.604   4.845  19.352  0.00  0.00    +0.000 A 
ATOM     15  S   UNL     1       3.463   3.209  19.847  0.00  0.00    +0.000 S 
ENDBRANCH   1  14
TORSDOF 1
ENDMDL
MODEL 8
REMARK VINA RESULT:      -5.6      1.877      2.068
REMARK  Name = 
REMARK  3 active torsions:
REMARK  status: ('A' for Active; 'I' for Inactive)
REMARK    1  A    between atoms: C_1  and  C_2
REMARK    2  A    between atoms: C_4  and  C_5
REMARK    3  A    between atoms: C_6  and  C_7
REMARK                            x       y       z     vdW  Elec       q    Type
REMARK                         _______ _______ _______ _____ _____    ______ ____
ROOT
ATOM      1  C   UNL     1       5.147   4.578  17.637  0.00  0.00    +0.000 A 
ATOM      2  C   UNL     1       6.092   4.869  18.600  0.00  0.00    +0.000 A 
ATOM      3  S   UNL     1       7.568   5.318  17.848  0.00  0.00    +0.000 S 
ATOM      4  C   UNL     1       6.843   5.078  16.310  0.00  0.00    +0.000 A 
ATOM      5  N   UNL     1       7.538   5.270  15.180  0.00  0.00    +0.000 N 
ATOM      6  N   UNL     1       5.590   4.700  16.333  0.00  0.00    +0.000 NA
ATOM      7  H   UNL     1       8.414   5.777  15.205  0.00  0.00    +0.000 HD
ATOM      8  H   UNL     1       7.023   5.314  14.310  0.00  0.00    +0.000 HD
ENDROOT
BRANCH   1  14
ATOM      9  C   UNL     1       0.555   2.127  18.813  0.00  0.00    +0.000 C 
ATOM     10  C   UNL     1       1.629   3.107  18.499  0.00  0.00    +0.000 A 
ATOM     11  N   UNL     1       1.482   4.413  18.538  0.00  0.00    +0.000 NA
ATOM     12  C   UNL     1       2.680   5.041  18.207  0.00  0.00    +0.000 A 
ATOM     13  C   UNL     1       2.685   6.528  18.167  0.00  0.00    +0.000 C 
ATOM     14  C   UNL     1       3.734   4.177  17.953  0.00  0.00    +0.000 A 
ATOM     15  S   UNL     1       3.188   2.555  18.055  0.00  0.00    +0.000 S 
ENDBRANCH   1  14
TORSDOF 1
ENDMDL
MODEL 9
REMARK VINA RESULT:      -5.6      1.405      1.425
REMARK  Name = 
REMARK  3 active torsions:
REMARK  status: ('A' for Active; 'I' for Inactive)
REMARK    1  A    between atoms: C_1  and  C_2
REMARK    2  A    between atoms: C_4  and  C_5
REMARK    3  A    between atoms: C_6  and  C_7
REMARK                            x       y       z     vdW  Elec       q    Type
REMARK                         _______ _______ _______ _____ _____    ______ ____
ROOT
ATOM      1  C   UNL     1       5.299   4.758  18.932  0.00  0.00    +0.000 A 
ATOM      2  C   UNL     1       5.599   4.445  17.622  0.00  0.00    +0.000 A 
ATOM      3  S   UNL     1       7.175   5.009  17.237  0.00  0.00    +0.000 S 
ATOM      4  C   UNL     1       7.326   5.633  18.830  0.00  0.00    +0.000 A 
ATOM      5  N   UNL     1       8.437   6.274  19.218  0.00  0.00    +0.000 N 
ATOM      6  N   UNL     1       6.294   5.438  19.610  0.00  0.00    +0.000 NA
ATOM      7  H   UNL     1       9.284   6.199  18.668  0.00  0.00    +0.000 HD
ATOM      8  H   UNL     1       8.563   6.444  20.207  0.00  0.00    +0.000 HD
ENDROOT
BRANCH   1  14
ATOM      9  C   UNL     1       1.251   2.486  21.565  0.00  0.00    +0.000 C 
ATOM     10  C   UNL     1       2.147   3.394  20.799  0.00  0.00    +0.000 A 
ATOM     11  N   UNL     1       1.861   4.640  20.495  0.00  0.00    +0.000 NA
ATOM     12  C   UNL     1       2.915   5.215  19.789  0.00  0.00    +0.000 A 
ATOM     13  C   UNL     1       2.746   6.621  19.332  0.00  0.00    +0.000 C 
ATOM     14  C   UNL     1       4.007   4.382  19.600  0.00  0.00    +0.000 A 
ATOM     15  S   UNL     1       3.669   2.832  20.252  0.00  0.00    +0.000 S 
ENDBRANCH   1  14
TORSDOF 1
ENDMDL
