MODEL 1
REMARK VINA RESULT:      -8.9      0.000      0.000
REMARK  Name = 
REMARK  6 active torsions:
REMARK  status: ('A' for Active; 'I' for Inactive)
REMARK    1  A    between atoms: C_1  and  C_2
REMARK    2  A    between atoms: C_5  and  O_6
REMARK    3  A    between atoms: O_6  and  C_7
REMARK    4  A    between atoms: C_12  and  C_13
REMARK    5  A    between atoms: N_21  and  C_22
REMARK    6  A    between atoms: C_22  and  C_23
REMARK                            x       y       z     vdW  Elec       q    Type
REMARK                         _______ _______ _______ _____ _____    ______ ____
ROOT
ATOM      1  C   UNL     1       2.227   3.598  21.565  0.00  0.00    +0.000 C 
ATOM      2  C   UNL     1       2.157   4.777  20.655  0.00  0.00    +0.000 A 
ATOM      3  N   UNL     1       1.719   5.976  20.986  0.00  0.00    +0.000 NA
ATOM      4  C   UNL     1       1.911   6.780  19.878  0.00  0.00    +0.000 A 
ATOM      5  C   UNL     1       1.706   8.172  19.725  0.00  0.00    +0.000 A 
ATOM      6  C   UNL     1       2.192   8.742  18.528  0.00  0.00    +0.000 A 
ATOM      7 CL   UNL     1       2.460  10.447  18.325  0.00  0.00    +0.000 Cl
ATOM      8  C   UNL     1       2.577   7.944  17.446  0.00  0.00    +0.000 A 
ATOM      9  C   UNL     1       2.662   6.558  17.557  0.00  0.00    +0.000 A 
ATOM     10  C   UNL     1       2.413   6.020  18.822  0.00  0.00    +0.000 A 
ATOM     11  N   UNL     1       2.594   4.757  19.351  0.00  0.00    +0.000 N 
ENDROOT
BRANCH   5  12
ATOM     12  O   UNL     1       1.173   8.863  20.794  0.00  0.00    +0.000 OA
BRANCH  12  13
ATOM     13  C   UNL     1       0.219   9.840  20.594  0.00  0.00    +0.000 A 
ATOM     14  C   UNL     1       0.180  10.845  21.564  0.00  0.00    +0.000 A 
ATOM     15  C   UNL     1      -0.637  11.958  21.376  0.00  0.00    +0.000 A 
ATOM     16 CL   UNL     1      -0.655  13.214  22.553  0.00  0.00    +0.000 Cl
ATOM     17  C   UNL     1      -1.412  12.084  20.224  0.00  0.00    +0.000 A 
ATOM     18  C   UNL     1      -1.422  11.051  19.283  0.00  0.00    +0.000 A 
ATOM     19  C   UNL     1      -0.652   9.901  19.500  0.00  0.00    +0.000 A 
BRANCH  18  20
ATOM     20  C   UNL     1      -2.158  11.200  18.058  0.00  0.00    +0.000 C 
ATOM     21  N   UNL     1      -2.775  11.306  17.081  0.00  0.00    +0.000 NA
ENDBRANCH  18  20
ENDBRANCH  12  13
ENDBRANCH   5  12
BRANCH  11  22
ATOM     22  C   UNL     1       3.302   3.659  18.694  0.00  0.00    +0.000 C 
BRANCH  22  23
ATOM     23  C   UNL     1       4.707   4.041  18.385  0.00  0.00    +0.000 A 
ATOM     24  N   UNL     1       5.609   4.189  19.371  0.00  0.00    +0.000 NA
ATOM     25  N   UNL     1       6.764   4.422  18.713  0.00  0.00    +0.000 N 
ATOM     26  C   UNL     1       6.624   4.484  17.361  0.00  0.00    +0.000 A 
ATOM     27  N   UNL     1       7.608   4.686  16.466  0.00  0.00    +0.000 NA
ATOM     28  C   UNL     1       7.158   4.694  15.190  0.00  0.00    +0.000 A 
ATOM     29  C   UNL     1       5.832   4.549  14.798  0.00  0.00    +0.000 A 
ATOM     30  C   UNL     1       4.850   4.347  15.770  0.00  0.00    +0.000 A 
ATOM     31  C   UNL     1       5.276   4.289  17.107  0.00  0.00    +0.000 A 
ATOM     32  H   UNL     1       7.623   4.527  19.240  0.00  0.00    +0.000 HD
ENDBRANCH  22  23
ENDBRANCH  11  22
TORSDOF 5
ENDMDL
MODEL 2
REMARK VINA RESULT:      -8.6      1.606      1.998
REMARK  Name = 
REMARK  6 active torsions:
REMARK  status: ('A' for Active; 'I' for Inactive)
REMARK    1  A    between atoms: C_1  and  C_2
REMARK    2  A    between atoms: C_5  and  O_6
REMARK    3  A    between atoms: O_6  and  C_7
REMARK    4  A    between atoms: C_12  and  C_13
REMARK    5  A    between atoms: N_21  and  C_22
REMARK    6  A    between atoms: C_22  and  C_23
REMARK                            x       y       z     vdW  Elec       q    Type
REMARK                         _______ _______ _______ _____ _____    ______ ____
ROOT
ATOM      1  C   UNL     1       2.218   3.673  21.580  0.00  0.00    +0.000 C 
ATOM      2  C   UNL     1       2.150   4.842  20.657  0.00  0.00    +0.000 A 
ATOM      3  N   UNL     1       1.719   6.047  20.976  0.00  0.00    +0.000 NA
ATOM      4  C   UNL     1       1.911   6.837  19.858  0.00  0.00    +0.000 A 
ATOM      5  C   UNL     1       1.712   8.228  19.691  0.00  0.00    +0.000 A 
ATOM      6  C   UNL     1       2.196   8.783  18.486  0.00  0.00    +0.000 A 
ATOM      7 CL   UNL     1       2.472  10.484  18.263  0.00  0.00    +0.000 Cl
ATOM      8  C   UNL     1       2.572   7.970  17.411  0.00  0.00    +0.000 A 
ATOM      9  C   UNL     1       2.650   6.585  17.538  0.00  0.00    +0.000 A 
ATOM     10  C   UNL     1       2.404   6.063  18.809  0.00  0.00    +0.000 A 
ATOM     11  N   UNL     1       2.580   4.805  19.351  0.00  0.00    +0.000 N 
ENDROOT
BRANCH   5  12
ATOM     12  O   UNL     1       1.187   8.934  20.754  0.00  0.00    +0.000 OA
BRANCH  12  13
ATOM     13  C   UNL     1       0.481  10.100  20.543  0.00  0.00    +0.000 A 
ATOM     14  C   UNL     1      -0.563  10.010  19.620  0.00  0.00    +0.000 A 
ATOM     15  C   UNL     1      -1.434  11.084  19.450  0.00  0.00    +0.000 A 
ATOM     16 CL   UNL     1      -2.743  10.957  18.340  0.00  0.00    +0.000 Cl
ATOM     17  C   UNL     1      -1.280  12.249  20.201  0.00  0.00    +0.000 A 
ATOM     18  C   UNL     1      -0.200  12.365  21.080  0.00  0.00    +0.000 A 
ATOM     19  C   UNL     1       0.715  11.312  21.204  0.00  0.00    +0.000 A 
BRANCH  18  20
ATOM     20  C   UNL     1      -0.071  13.530  21.912  0.00  0.00    +0.000 C 
ATOM     21  N   UNL     1       0.034  14.452  22.608  0.00  0.00    +0.000 NA
ENDBRANCH  18  20
ENDBRANCH  12  13
ENDBRANCH   5  12
BRANCH  11  22
ATOM     22  C   UNL     1       3.280   3.696  18.704  0.00  0.00    +0.000 C 
BRANCH  22  23
ATOM     23  C   UNL     1       4.690   4.061  18.399  0.00  0.00    +0.000 A 
ATOM     24  N   UNL     1       5.591   4.200  19.387  0.00  0.00    +0.000 NA
ATOM     25  N   UNL     1       6.751   4.420  18.733  0.00  0.00    +0.000 N 
ATOM     26  C   UNL     1       6.615   4.482  17.379  0.00  0.00    +0.000 A 
ATOM     27  N   UNL     1       7.604   4.672  16.488  0.00  0.00    +0.000 NA
ATOM     28  C   UNL     1       7.158   4.684  15.211  0.00  0.00    +0.000 A 
ATOM     29  C   UNL     1       5.831   4.554  14.815  0.00  0.00    +0.000 A 
ATOM     30  C   UNL     1       4.844   4.364  15.784  0.00  0.00    +0.000 A 
ATOM     31  C   UNL     1       5.265   4.302  17.122  0.00  0.00    +0.000 A 
ATOM     32  H   UNL     1       7.609   4.516  19.261  0.00  0.00    +0.000 HD
ENDBRANCH  22  23
ENDBRANCH  11  22
TORSDOF 5
ENDMDL
MODEL 3
REMARK VINA RESULT:      -8.1      2.598      8.651
REMARK  Name = 
REMARK  6 active torsions:
REMARK  status: ('A' for Active; 'I' for Inactive)
REMARK    1  A    between atoms: C_1  and  C_2
REMARK    2  A    between atoms: C_5  and  O_6
REMARK    3  A    between atoms: O_6  and  C_7
REMARK    4  A    between atoms: C_12  and  C_13
REMARK    5  A    between atoms: N_21  and  C_22
REMARK    6  A    between atoms: C_22  and  C_23
REMARK                            x       y       z     vdW  Elec       q    Type
REMARK                         _______ _______ _______ _____ _____    ______ ____
ROOT
ATOM      1  C   UNL     1      -0.900  10.783  22.771  0.00  0.00    +0.000 C 
ATOM      2  C   UNL     1      -0.047  10.246  21.674  0.00  0.00    +0.000 A 
ATOM      3  N   UNL     1       0.457   9.028  21.621  0.00  0.00    +0.000 NA
ATOM      4  C   UNL     1       1.101   8.926  20.403  0.00  0.00    +0.000 A 
ATOM      5  C   UNL     1       1.724   7.807  19.801  0.00  0.00    +0.000 A 
ATOM      6  C   UNL     1       2.115   7.965  18.453  0.00  0.00    +0.000 A 
ATOM      7 CL   UNL     1       2.467   6.629  17.399  0.00  0.00    +0.000 Cl
ATOM      8  C   UNL     1       2.158   9.228  17.852  0.00  0.00    +0.000 A 
ATOM      9  C   UNL     1       1.656  10.358  18.495  0.00  0.00    +0.000 A 
ATOM     10  C   UNL     1       1.047  10.148  19.734  0.00  0.00    +0.000 A 
ATOM     11  N   UNL     1       0.282  10.961  20.546  0.00  0.00    +0.000 N 
ENDROOT
BRANCH   5  12
ATOM     12  O   UNL     1       1.778   6.635  20.527  0.00  0.00    +0.000 OA
BRANCH  12  13
ATOM     13  C   UNL     1       2.469   5.541  20.047  0.00  0.00    +0.000 A 
ATOM     14  C   UNL     1       1.685   4.429  19.733  0.00  0.00    +0.000 A 
ATOM     15  C   UNL     1       2.262   3.331  19.097  0.00  0.00    +0.000 A 
ATOM     16 CL   UNL     1       1.288   1.977  18.676  0.00  0.00    +0.000 Cl
ATOM     17  C   UNL     1       3.616   3.334  18.763  0.00  0.00    +0.000 A 
ATOM     18  C   UNL     1       4.415   4.420  19.132  0.00  0.00    +0.000 A 
ATOM     19  C   UNL     1       3.851   5.496  19.830  0.00  0.00    +0.000 A 
BRANCH  18  20
ATOM     20  C   UNL     1       5.793   4.469  18.730  0.00  0.00    +0.000 C 
ATOM     21  N   UNL     1       6.914   4.498  18.431  0.00  0.00    +0.000 NA
ENDBRANCH  18  20
ENDBRANCH  12  13
ENDBRANCH   5  12
BRANCH  11  22
ATOM     22  C   UNL     1      -0.241  12.276  20.175  0.00  0.00    +0.000 C 
BRANCH  22  23
ATOM     23  C   UNL     1      -1.652  12.177  19.714  0.00  0.00    +0.000 A 
ATOM     24  N   UNL     1      -2.634  12.820  20.371  0.00  0.00    +0.000 NA
ATOM     25  N   UNL     1      -3.727  12.591  19.615  0.00  0.00    +0.000 N 
ATOM     26  C   UNL     1      -3.494  11.786  18.542  0.00  0.00    +0.000 A 
ATOM     27  N   UNL     1      -4.396  11.410  17.617  0.00  0.00    +0.000 NA
ATOM     28  C   UNL     1      -3.864  10.607  16.667  0.00  0.00    +0.000 A 
ATOM     29  C   UNL     1      -2.546  10.164  16.626  0.00  0.00    +0.000 A 
ATOM     30  C   UNL     1      -1.654  10.582  17.615  0.00  0.00    +0.000 A 
ATOM     31  C   UNL     1      -2.150  11.451  18.600  0.00  0.00    +0.000 A 
ATOM     32  H   UNL     1      -4.610  13.013  19.876  0.00  0.00    +0.000 HD
ENDBRANCH  22  23
ENDBRANCH  11  22
TORSDOF 5
ENDMDL
MODEL 4
REMARK VINA RESULT:      -7.8      3.507      6.097
REMARK  Name = 
REMARK  6 active torsions:
REMARK  status: ('A' for Active; 'I' for Inactive)
REMARK    1  A    between atoms: C_1  and  C_2
REMARK    2  A    between atoms: C_5  and  O_6
REMARK    3  A    between atoms: O_6  and  C_7
REMARK    4  A    between atoms: C_12  and  C_13
REMARK    5  A    between atoms: N_21  and  C_22
REMARK    6  A    between atoms: C_22  and  C_23
REMARK                            x       y       z     vdW  Elec       q    Type
REMARK                         _______ _______ _______ _____ _____    ______ ____
ROOT
ATOM      1  C   UNL     1       1.970  12.455  19.806  0.00  0.00    +0.000 C 
ATOM      2  C   UNL     1       0.576  12.013  19.521  0.00  0.00    +0.000 A 
ATOM      3  N   UNL     1      -0.520  12.656  19.875  0.00  0.00    +0.000 NA
ATOM      4  C   UNL     1      -1.578  11.949  19.336  0.00  0.00    +0.000 A 
ATOM      5  C   UNL     1      -2.960  12.255  19.331  0.00  0.00    +0.000 A 
ATOM      6  C   UNL     1      -3.773  11.438  18.514  0.00  0.00    +0.000 A 
ATOM      7 CL   UNL     1      -5.370  11.891  18.003  0.00  0.00    +0.000 Cl
ATOM      8  C   UNL     1      -3.296  10.233  17.988  0.00  0.00    +0.000 A 
ATOM      9  C   UNL     1      -1.955   9.870  18.100  0.00  0.00    +0.000 A 
ATOM     10  C   UNL     1      -1.106  10.802  18.698  0.00  0.00    +0.000 A 
ATOM     11  N   UNL     1       0.269  10.883  18.799  0.00  0.00    +0.000 N 
ENDROOT
BRANCH   5  12
ATOM     12  O   UNL     1      -3.369  13.384  20.009  0.00  0.00    +0.000 OA
BRANCH  12  13
ATOM     13  C   UNL     1      -3.803  13.301  21.317  0.00  0.00    +0.000 A 
ATOM     14  C   UNL     1      -2.918  13.800  22.274  0.00  0.00    +0.000 A 
ATOM     15  C   UNL     1      -3.321  13.906  23.604  0.00  0.00    +0.000 A 
ATOM     16 CL   UNL     1      -2.243  14.559  24.776  0.00  0.00    +0.000 Cl
ATOM     17  C   UNL     1      -4.607  13.524  23.989  0.00  0.00    +0.000 A 
ATOM     18  C   UNL     1      -5.472  12.966  23.044  0.00  0.00    +0.000 A 
ATOM     19  C   UNL     1      -5.046  12.798  21.721  0.00  0.00    +0.000 A 
BRANCH  18  20
ATOM     20  C   UNL     1      -6.821  12.637  23.411  0.00  0.00    +0.000 C 
ATOM     21  N   UNL     1      -7.916  12.399  23.713  0.00  0.00    +0.000 NA
ENDBRANCH  18  20
ENDBRANCH  12  13
ENDBRANCH   5  12
BRANCH  11  22
ATOM     22  C   UNL     1       1.219  10.024  18.095  0.00  0.00    +0.000 C 
BRANCH  22  23
ATOM     23  C   UNL     1       1.638   8.880  18.950  0.00  0.00    +0.000 A 
ATOM     24  N   UNL     1       1.180   8.762  20.209  0.00  0.00    +0.000 NA
ATOM     25  N   UNL     1       1.677   7.576  20.619  0.00  0.00    +0.000 N 
ATOM     26  C   UNL     1       2.473   6.966  19.699  0.00  0.00    +0.000 A 
ATOM     27  N   UNL     1       3.081   5.774  19.838  0.00  0.00    +0.000 NA
ATOM     28  C   UNL     1       3.805   5.430  18.748  0.00  0.00    +0.000 A 
ATOM     29  C   UNL     1       3.963   6.203  17.603  0.00  0.00    +0.000 A 
ATOM     30  C   UNL     1       3.313   7.435  17.515  0.00  0.00    +0.000 A 
ATOM     31  C   UNL     1       2.514   7.816  18.605  0.00  0.00    +0.000 A 
ATOM     32  H   UNL     1       1.435   7.228  21.539  0.00  0.00    +0.000 HD
ENDBRANCH  22  23
ENDBRANCH  11  22
TORSDOF 5
ENDMDL
MODEL 5
REMARK VINA RESULT:      -7.7      3.259      8.769
REMARK  Name = 
REMARK  6 active torsions:
REMARK  status: ('A' for Active; 'I' for Inactive)
REMARK    1  A    between atoms: C_1  and  C_2
REMARK    2  A    between atoms: C_5  and  O_6
REMARK    3  A    between atoms: O_6  and  C_7
REMARK    4  A    between atoms: C_12  and  C_13
REMARK    5  A    between atoms: N_21  and  C_22
REMARK    6  A    between atoms: C_22  and  C_23
REMARK                            x       y       z     vdW  Elec       q    Type
REMARK                         _______ _______ _______ _____ _____    ______ ____
ROOT
ATOM      1  C   UNL     1       2.198   9.824  17.828  0.00  0.00    +0.000 C 
ATOM      2  C   UNL     1       2.158   8.452  18.409  0.00  0.00    +0.000 A 
ATOM      3  N   UNL     1       2.526   7.346  17.791  0.00  0.00    +0.000 NA
ATOM      4  C   UNL     1       2.412   6.327  18.717  0.00  0.00    +0.000 A 
ATOM      5  C   UNL     1       2.771   4.962  18.607  0.00  0.00    +0.000 A 
ATOM      6  C   UNL     1       2.725   4.210  19.802  0.00  0.00    +0.000 A 
ATOM      7 CL   UNL     1       3.535   2.686  20.001  0.00  0.00    +0.000 Cl
ATOM      8  C   UNL     1       2.084   4.701  20.945  0.00  0.00    +0.000 A 
ATOM      9  C   UNL     1       1.617   6.012  21.012  0.00  0.00    +0.000 A 
ATOM     10  C   UNL     1       1.887   6.824  19.909  0.00  0.00    +0.000 A 
ATOM     11  N   UNL     1       1.766   8.184  19.700  0.00  0.00    +0.000 N 
ENDROOT
BRANCH   5  12
ATOM     12  O   UNL     1       3.251   4.521  17.391  0.00  0.00    +0.000 OA
BRANCH  12  13
ATOM     13  C   UNL     1       4.560   4.758  17.025  0.00  0.00    +0.000 A 
ATOM     14  C   UNL     1       4.922   4.289  15.760  0.00  0.00    +0.000 A 
ATOM     15  C   UNL     1       6.170   4.612  15.231  0.00  0.00    +0.000 A 
ATOM     16 CL   UNL     1       6.600   4.067  13.656  0.00  0.00    +0.000 Cl
ATOM     17  C   UNL     1       7.062   5.408  15.950  0.00  0.00    +0.000 A 
ATOM     18  C   UNL     1       6.727   5.826  17.241  0.00  0.00    +0.000 A 
ATOM     19  C   UNL     1       5.500   5.448  17.800  0.00  0.00    +0.000 A 
BRANCH  18  20
ATOM     20  C   UNL     1       7.604   6.706  17.962  0.00  0.00    +0.000 C 
ATOM     21  N   UNL     1       8.289   7.432  18.554  0.00  0.00    +0.000 NA
ENDBRANCH  18  20
ENDBRANCH  12  13
ENDBRANCH   5  12
BRANCH  11  22
ATOM     22  C   UNL     1       1.463   9.174  20.733  0.00  0.00    +0.000 C 
BRANCH  22  23
ATOM     23  C   UNL     1       0.438  10.143  20.259  0.00  0.00    +0.000 A 
ATOM     24  N   UNL     1      -0.726   9.710  19.741  0.00  0.00    +0.000 NA
ATOM     25  N   UNL     1      -1.423  10.846  19.532  0.00  0.00    +0.000 N 
ATOM     26  C   UNL     1      -0.734  11.979  19.840  0.00  0.00    +0.000 A 
ATOM     27  N   UNL     1      -1.191  13.241  19.744  0.00  0.00    +0.000 NA
ATOM     28  C   UNL     1      -0.272  14.157  20.125  0.00  0.00    +0.000 A 
ATOM     29  C   UNL     1       1.024  13.880  20.543  0.00  0.00    +0.000 A 
ATOM     30  C   UNL     1       1.448  12.551  20.619  0.00  0.00    +0.000 A 
ATOM     31  C   UNL     1       0.514  11.561  20.274  0.00  0.00    +0.000 A 
ATOM     32  H   UNL     1      -2.371  10.790  19.181  0.00  0.00    +0.000 HD
ENDBRANCH  22  23
ENDBRANCH  11  22
TORSDOF 5
ENDMDL
MODEL 6
REMARK VINA RESULT:      -7.6      1.435      1.523
REMARK  Name = 
REMARK  6 active torsions:
REMARK  status: ('A' for Active; 'I' for Inactive)
REMARK    1  A    between atoms: C_1  and  C_2
REMARK    2  A    between atoms: C_5  and  O_6
REMARK    3  A    between atoms: O_6  and  C_7
REMARK    4  A    between atoms: C_12  and  C_13
REMARK    5  A    between atoms: N_21  and  C_22
REMARK    6  A    between atoms: C_22  and  C_23
REMARK                            x       y       z     vdW  Elec       q    Type
REMARK                         _______ _______ _______ _____ _____    ______ ____
ROOT
ATOM      1  C   UNL     1       1.973   4.345  21.203  0.00  0.00    +0.000 C 
ATOM      2  C   UNL     1       1.863   5.616  20.432  0.00  0.00    +0.000 A 
ATOM      3  N   UNL     1       1.443   6.771  20.912  0.00  0.00    +0.000 NA
ATOM      4  C   UNL     1       1.586   7.691  19.891  0.00  0.00    +0.000 A 
ATOM      5  C   UNL     1       1.376   9.091  19.902  0.00  0.00    +0.000 A 
ATOM      6  C   UNL     1       1.809   9.791  18.754  0.00  0.00    +0.000 A 
ATOM      7 CL   UNL     1       2.070  11.509  18.727  0.00  0.00    +0.000 Cl
ATOM      8  C   UNL     1       2.142   9.117  17.574  0.00  0.00    +0.000 A 
ATOM      9  C   UNL     1       2.228   7.727  17.529  0.00  0.00    +0.000 A 
ATOM     10  C   UNL     1       2.037   7.053  18.736  0.00  0.00    +0.000 A 
ATOM     11  N   UNL     1       2.239   5.741  19.115  0.00  0.00    +0.000 N 
ENDROOT
BRANCH   5  12
ATOM     12  O   UNL     1       0.895   9.659  21.063  0.00  0.00    +0.000 OA
BRANCH  12  13
ATOM     13  C   UNL     1      -0.199  10.499  21.034  0.00  0.00    +0.000 A 
ATOM     14  C   UNL     1      -0.299  11.389  22.106  0.00  0.00    +0.000 A 
ATOM     15  C   UNL     1      -1.277  12.382  22.094  0.00  0.00    +0.000 A 
ATOM     16 CL   UNL     1      -1.374  13.503  23.396  0.00  0.00    +0.000 Cl
ATOM     17  C   UNL     1      -2.154  12.503  21.016  0.00  0.00    +0.000 A 
ATOM     18  C   UNL     1      -2.096  11.575  19.973  0.00  0.00    +0.000 A 
ATOM     19  C   UNL     1      -1.157  10.536  20.014  0.00  0.00    +0.000 A 
BRANCH  18  20
ATOM     20  C   UNL     1      -2.944  11.731  18.823  0.00  0.00    +0.000 C 
ATOM     21  N   UNL     1      -3.616  11.833  17.883  0.00  0.00    +0.000 NA
ENDBRANCH  18  20
ENDBRANCH  12  13
ENDBRANCH   5  12
BRANCH  11  22
ATOM     22  C   UNL     1       2.914   4.724  18.309  0.00  0.00    +0.000 C 
BRANCH  22  23
ATOM     23  C   UNL     1       4.376   4.709  18.586  0.00  0.00    +0.000 A 
ATOM     24  N   UNL     1       4.927   3.717  19.307  0.00  0.00    +0.000 NA
ATOM     25  N   UNL     1       6.250   3.980  19.253  0.00  0.00    +0.000 N 
ATOM     26  C   UNL     1       6.555   5.123  18.579  0.00  0.00    +0.000 A 
ATOM     27  N   UNL     1       7.790   5.612  18.360  0.00  0.00    +0.000 NA
ATOM     28  C   UNL     1       7.773   6.767  17.656  0.00  0.00    +0.000 A 
ATOM     29  C   UNL     1       6.634   7.432  17.216  0.00  0.00    +0.000 A 
ATOM     30  C   UNL     1       5.378   6.881  17.476  0.00  0.00    +0.000 A 
ATOM     31  C   UNL     1       5.346   5.660  18.168  0.00  0.00    +0.000 A 
ATOM     32  H   UNL     1       6.902   3.341  19.691  0.00  0.00    +0.000 HD
ENDBRANCH  22  23
ENDBRANCH  11  22
TORSDOF 5
ENDMDL
MODEL 7
REMARK VINA RESULT:      -7.5      3.072      9.526
REMARK  Name = 
REMARK  6 active torsions:
REMARK  status: ('A' for Active; 'I' for Inactive)
REMARK    1  A    between atoms: C_1  and  C_2
REMARK    2  A    between atoms: C_5  and  O_6
REMARK    3  A    between atoms: O_6  and  C_7
REMARK    4  A    between atoms: C_12  and  C_13
REMARK    5  A    between atoms: N_21  and  C_22
REMARK    6  A    between atoms: C_22  and  C_23
REMARK                            x       y       z     vdW  Elec       q    Type
REMARK                         _______ _______ _______ _____ _____    ______ ____
ROOT
ATOM      1  C   UNL     1       2.160  12.825  17.941  0.00  0.00    +0.000 C 
ATOM      2  C   UNL     1       1.780  11.559  18.629  0.00  0.00    +0.000 A 
ATOM      3  N   UNL     1       1.985  10.342  18.165  0.00  0.00    +0.000 NA
ATOM      4  C   UNL     1       1.563   9.473  19.153  0.00  0.00    +0.000 A 
ATOM      5  C   UNL     1       1.650   8.061  19.212  0.00  0.00    +0.000 A 
ATOM      6  C   UNL     1       1.318   7.471  20.452  0.00  0.00    +0.000 A 
ATOM      7 CL   UNL     1       1.777   5.853  20.889  0.00  0.00    +0.000 Cl
ATOM      8  C   UNL     1       0.665   8.198  21.452  0.00  0.00    +0.000 A 
ATOM      9  C   UNL     1       0.467   9.573  21.341  0.00  0.00    +0.000 A 
ATOM     10  C   UNL     1       1.018  10.191  20.217  0.00  0.00    +0.000 A 
ATOM     11  N   UNL     1       1.198  11.517  19.875  0.00  0.00    +0.000 N 
ENDROOT
BRANCH   5  12
ATOM     12  O   UNL     1       2.166   7.404  18.114  0.00  0.00    +0.000 OA
BRANCH  12  13
ATOM     13  C   UNL     1       2.971   6.294  18.273  0.00  0.00    +0.000 A 
ATOM     14  C   UNL     1       2.383   5.074  17.934  0.00  0.00    +0.000 A 
ATOM     15  C   UNL     1       3.155   3.915  17.909  0.00  0.00    +0.000 A 
ATOM     16 CL   UNL     1       2.438   2.418  17.452  0.00  0.00    +0.000 Cl
ATOM     17  C   UNL     1       4.516   3.961  18.213  0.00  0.00    +0.000 A 
ATOM     18  C   UNL     1       5.092   5.169  18.613  0.00  0.00    +0.000 A 
ATOM     19  C   UNL     1       4.303   6.323  18.702  0.00  0.00    +0.000 A 
BRANCH  18  20
ATOM     20  C   UNL     1       6.506   5.245  18.858  0.00  0.00    +0.000 C 
ATOM     21  N   UNL     1       7.652   5.290  19.032  0.00  0.00    +0.000 NA
ENDBRANCH  18  20
ENDBRANCH  12  13
ENDBRANCH   5  12
BRANCH  11  22
ATOM     22  C   UNL     1       0.986  12.656  20.768  0.00  0.00    +0.000 C 
BRANCH  22  23
ATOM     23  C   UNL     1      -0.431  13.108  20.727  0.00  0.00    +0.000 A 
ATOM     24  N   UNL     1      -0.877  13.874  19.716  0.00  0.00    +0.000 NA
ATOM     25  N   UNL     1      -2.199  13.986  19.960  0.00  0.00    +0.000 N 
ATOM     26  C   UNL     1      -2.600  13.373  21.107  0.00  0.00    +0.000 A 
ATOM     27  N   UNL     1      -3.858  13.314  21.581  0.00  0.00    +0.000 NA
ATOM     28  C   UNL     1      -3.944  12.632  22.746  0.00  0.00    +0.000 A 
ATOM     29  C   UNL     1      -2.876  12.067  23.434  0.00  0.00    +0.000 A 
ATOM     30  C   UNL     1      -1.590  12.164  22.899  0.00  0.00    +0.000 A 
ATOM     31  C   UNL     1      -1.457  12.826  21.669  0.00  0.00    +0.000 A 
ATOM     32  H   UNL     1      -2.784  14.490  19.305  0.00  0.00    +0.000 HD
ENDBRANCH  22  23
ENDBRANCH  11  22
TORSDOF 5
ENDMDL
MODEL 8
REMARK VINA RESULT:      -7.5      3.271      8.680
REMARK  Name = 
REMARK  6 active torsions:
REMARK  status: ('A' for Active; 'I' for Inactive)
REMARK    1  A    between atoms: C_1  and  C_2
REMARK    2  A    between atoms: C_5  and  O_6
REMARK    3  A    between atoms: O_6  and  C_7
REMARK    4  A    between atoms: C_12  and  C_13
REMARK    5  A    between atoms: N_21  and  C_22
REMARK    6  A    between atoms: C_22  and  C_23
REMARK                            x       y       z     vdW  Elec       q    Type
REMARK                         _______ _______ _______ _____ _____    ______ ____
ROOT
ATOM      1  C   UNL     1       2.308   9.831  17.847  0.00  0.00    +0.000 C 
ATOM      2  C   UNL     1       2.227   8.461  18.430  0.00  0.00    +0.000 A 
ATOM      3  N   UNL     1       2.650   7.355  17.850  0.00  0.00    +0.000 NA
ATOM      4  C   UNL     1       2.465   6.339  18.769  0.00  0.00    +0.000 A 
ATOM      5  C   UNL     1       2.838   4.976  18.696  0.00  0.00    +0.000 A 
ATOM      6  C   UNL     1       2.697   4.230  19.887  0.00  0.00    +0.000 A 
ATOM      7 CL   UNL     1       3.495   2.711  20.160  0.00  0.00    +0.000 Cl
ATOM      8  C   UNL     1       1.963   4.722  20.971  0.00  0.00    +0.000 A 
ATOM      9  C   UNL     1       1.485   6.032  20.992  0.00  0.00    +0.000 A 
ATOM     10  C   UNL     1       1.841   6.840  19.911  0.00  0.00    +0.000 A 
ATOM     11  N   UNL     1       1.732   8.198  19.686  0.00  0.00    +0.000 N 
ENDROOT
BRANCH   5  12
ATOM     12  O   UNL     1       3.418   4.531  17.526  0.00  0.00    +0.000 OA
BRANCH  12  13
ATOM     13  C   UNL     1       4.704   4.906  17.192  0.00  0.00    +0.000 A 
ATOM     14  C   UNL     1       5.561   5.132  18.271  0.00  0.00    +0.000 A 
ATOM     15  C   UNL     1       6.917   5.361  18.045  0.00  0.00    +0.000 A 
ATOM     16 CL   UNL     1       7.979   5.600  19.377  0.00  0.00    +0.000 Cl
ATOM     17  C   UNL     1       7.430   5.360  16.748  0.00  0.00    +0.000 A 
ATOM     18  C   UNL     1       6.564   5.197  15.663  0.00  0.00    +0.000 A 
ATOM     19  C   UNL     1       5.191   5.032  15.886  0.00  0.00    +0.000 A 
BRANCH  18  20
ATOM     20  C   UNL     1       7.089   5.121  14.328  0.00  0.00    +0.000 C 
ATOM     21  N   UNL     1       7.486   5.053  13.240  0.00  0.00    +0.000 NA
ENDBRANCH  18  20
ENDBRANCH  12  13
ENDBRANCH   5  12
BRANCH  11  22
ATOM     22  C   UNL     1       1.340   9.192  20.685  0.00  0.00    +0.000 C 
BRANCH  22  23
ATOM     23  C   UNL     1       0.318  10.124  20.138  0.00  0.00    +0.000 A 
ATOM     24  N   UNL     1      -0.758   9.653  19.483  0.00  0.00    +0.000 NA
ATOM     25  N   UNL     1      -1.493  10.758  19.241  0.00  0.00    +0.000 N 
ATOM     26  C   UNL     1      -0.905  11.912  19.662  0.00  0.00    +0.000 A 
ATOM     27  N   UNL     1      -1.421  13.151  19.562  0.00  0.00    +0.000 NA
ATOM     28  C   UNL     1      -0.601  14.098  20.072  0.00  0.00    +0.000 A 
ATOM     29  C   UNL     1       0.658  13.871  20.618  0.00  0.00    +0.000 A 
ATOM     30  C   UNL     1       1.146  12.565  20.691  0.00  0.00    +0.000 A 
ATOM     31  C   UNL     1       0.312  11.543  20.212  0.00  0.00    +0.000 A 
ATOM     32  H   UNL     1      -2.394  10.666  18.787  0.00  0.00    +0.000 HD
ENDBRANCH  22  23
ENDBRANCH  11  22
TORSDOF 5
ENDMDL
MODEL 9
REMARK VINA RESULT:      -7.4      3.440      8.650
REMARK  Name = 
REMARK  6 active torsions:
REMARK  status: ('A' for Active; 'I' for Inactive)
REMARK    1  A    between atoms: C_1  and  C_2
REMARK    2  A    between atoms: C_5  and  O_6
REMARK    3  A    between atoms: O_6  and  C_7
REMARK    4  A    between atoms: C_12  and  C_13
REMARK    5  A    between atoms: N_21  and  C_22
REMARK    6  A    between atoms: C_22  and  C_23
REMARK                            x       y       z     vdW  Elec       q    Type
REMARK                         _______ _______ _______ _____ _____    ______ ____
ROOT
ATOM      1  C   UNL     1      -1.266  10.973  22.995  0.00  0.00    +0.000 C 
ATOM      2  C   UNL     1      -0.377  10.573  21.867  0.00  0.00    +0.000 A 
ATOM      3  N   UNL     1       0.269   9.428  21.768  0.00  0.00    +0.000 NA
ATOM      4  C   UNL     1       0.894   9.440  20.536  0.00  0.00    +0.000 A 
ATOM      5  C   UNL     1       1.635   8.421  19.888  0.00  0.00    +0.000 A 
ATOM      6  C   UNL     1       1.974   8.664  18.539  0.00  0.00    +0.000 A 
ATOM      7 CL   UNL     1       2.462   7.410  17.439  0.00  0.00    +0.000 Cl
ATOM      8  C   UNL     1       1.851   9.939  17.976  0.00  0.00    +0.000 A 
ATOM      9  C   UNL     1       1.231  10.981  18.662  0.00  0.00    +0.000 A 
ATOM     10  C   UNL     1       0.678  10.664  19.905  0.00  0.00    +0.000 A 
ATOM     11  N   UNL     1      -0.162  11.355  20.756  0.00  0.00    +0.000 N 
ENDROOT
BRANCH   5  12
ATOM     12  O   UNL     1       1.846   7.245  20.578  0.00  0.00    +0.000 OA
BRANCH  12  13
ATOM     13  C   UNL     1       2.247   6.104  19.915  0.00  0.00    +0.000 A 
ATOM     14  C   UNL     1       3.626   5.964  19.743  0.00  0.00    +0.000 A 
ATOM     15  C   UNL     1       4.145   4.778  19.227  0.00  0.00    +0.000 A 
ATOM     16 CL   UNL     1       5.846   4.593  19.052  0.00  0.00    +0.000 Cl
ATOM     17  C   UNL     1       3.299   3.722  18.885  0.00  0.00    +0.000 A 
ATOM     18  C   UNL     1       1.916   3.883  18.997  0.00  0.00    +0.000 A 
ATOM     19  C   UNL     1       1.389   5.098  19.454  0.00  0.00    +0.000 A 
BRANCH  18  20
ATOM     20  C   UNL     1       1.038   2.780  18.719  0.00  0.00    +0.000 C 
ATOM     21  N   UNL     1       0.345   1.883  18.470  0.00  0.00    +0.000 NA
ENDBRANCH  18  20
ENDBRANCH  12  13
ENDBRANCH   5  12
BRANCH  11  22
ATOM     22  C   UNL     1      -0.848  12.606  20.434  0.00  0.00    +0.000 C 
BRANCH  22  23
ATOM     23  C   UNL     1      -2.221  12.345  19.925  0.00  0.00    +0.000 A 
ATOM     24  N   UNL     1      -3.298  12.641  20.674  0.00  0.00    +0.000 NA
ATOM     25  N   UNL     1      -4.338  12.376  19.857  0.00  0.00    +0.000 N 
ATOM     26  C   UNL     1      -3.971  11.872  18.646  0.00  0.00    +0.000 A 
ATOM     27  N   UNL     1      -4.798  11.537  17.639  0.00  0.00    +0.000 NA
ATOM     28  C   UNL     1      -4.136  11.066  16.558  0.00  0.00    +0.000 A 
ATOM     29  C   UNL     1      -2.760  10.895  16.461  0.00  0.00    +0.000 A 
ATOM     30  C   UNL     1      -1.949  11.255  17.540  0.00  0.00    +0.000 A 
ATOM     31  C   UNL     1      -2.588  11.789  18.670  0.00  0.00    +0.000 A 
ATOM     32  H   UNL     1      -5.281  12.561  20.176  0.00  0.00    +0.000 HD
ENDBRANCH  22  23
ENDBRANCH  11  22
TORSDOF 5
ENDMDL
