MODEL 1
REMARK VINA RESULT:      -7.3      0.000      0.000
REMARK  Name = 
REMARK  3 active torsions:
REMARK  status: ('A' for Active; 'I' for Inactive)
REMARK    1  A    between atoms: C_1  and  C_2
REMARK    2  A    between atoms: C_5  and  C_6
REMARK    3  A    between atoms: N_16  and  C_17
REMARK                            x       y       z     vdW  Elec       q    Type
REMARK                         _______ _______ _______ _____ _____    ______ ____
ROOT
ATOM      1  C   UNL     1       5.228   4.406  15.868  0.00  0.00    +0.000 A 
ATOM      2  N   UNL     1       4.981   3.760  14.647  0.00  0.00    +0.000 NA
ATOM      3  C   UNL     1       5.982   3.995  13.810  0.00  0.00    +0.000 A 
ATOM      4  N   UNL     1       6.091   3.468  12.565  0.00  0.00    +0.000 N 
ATOM      5  C   UNL     1       4.906   3.135  11.764  0.00  0.00    +0.000 C 
ATOM      6  C   UNL     1       5.048   1.721  11.181  0.00  0.00    +0.000 C 
ATOM      7  O   UNL     1       6.287   1.568  10.468  0.00  0.00    +0.000 OA
ATOM      8  C   UNL     1       7.405   1.809  11.328  0.00  0.00    +0.000 C 
ATOM      9  C   UNL     1       7.370   3.243  11.879  0.00  0.00    +0.000 C 
ATOM     10  S   UNL     1       7.179   5.098  14.458  0.00  0.00    +0.000 S 
ATOM     11  N   UNL     1       6.411   5.151  15.900  0.00  0.00    +0.000 N 
ENDROOT
BRANCH   1  16
ATOM     12  C   UNL     1       1.200   3.878  20.006  0.00  0.00    +0.000 C 
ATOM     13  C   UNL     1       2.259   4.028  18.952  0.00  0.00    +0.000 A 
ATOM     14  C   UNL     1       2.636   5.285  18.473  0.00  0.00    +0.000 A 
ATOM     15  C   UNL     1       3.616   5.401  17.477  0.00  0.00    +0.000 A 
ATOM     16  C   UNL     1       4.240   4.262  16.943  0.00  0.00    +0.000 A 
ATOM     17  C   UNL     1       3.894   3.010  17.470  0.00  0.00    +0.000 A 
ATOM     18  C   UNL     1       2.892   2.893  18.439  0.00  0.00    +0.000 A 
ENDBRANCH   1  16
BRANCH  11  19
ATOM     19  C   UNL     1       7.043   5.831  17.026  0.00  0.00    +0.000 A 
ATOM     20  C   UNL     1       7.281   7.211  16.926  0.00  0.00    +0.000 A 
ATOM     21  C   UNL     1       7.932   7.880  17.961  0.00  0.00    +0.000 A 
ATOM     22  C   UNL     1       8.329   7.175  19.095  0.00  0.00    +0.000 A 
ATOM     23  C   UNL     1       8.093   5.804  19.191  0.00  0.00    +0.000 A 
ATOM     24  C   UNL     1       7.463   5.120  18.148  0.00  0.00    +0.000 A 
ENDBRANCH  11  19
TORSDOF 2
ENDMDL
MODEL 2
REMARK VINA RESULT:      -7.1      0.139      1.401
REMARK  Name = 
REMARK  3 active torsions:
REMARK  status: ('A' for Active; 'I' for Inactive)
REMARK    1  A    between atoms: C_1  and  C_2
REMARK    2  A    between atoms: C_5  and  C_6
REMARK    3  A    between atoms: N_16  and  C_17
REMARK                            x       y       z     vdW  Elec       q    Type
REMARK                         _______ _______ _______ _____ _____    ______ ____
ROOT
ATOM      1  C   UNL     1       5.284   4.473  15.822  0.00  0.00    +0.000 A 
ATOM      2  N   UNL     1       5.014   3.819  14.610  0.00  0.00    +0.000 NA
ATOM      3  C   UNL     1       6.023   4.006  13.771  0.00  0.00    +0.000 A 
ATOM      4  N   UNL     1       6.114   3.458  12.534  0.00  0.00    +0.000 N 
ATOM      5  C   UNL     1       4.919   3.157  11.735  0.00  0.00    +0.000 C 
ATOM      6  C   UNL     1       5.009   1.731  11.173  0.00  0.00    +0.000 C 
ATOM      7  O   UNL     1       6.242   1.522  10.463  0.00  0.00    +0.000 OA
ATOM      8  C   UNL     1       7.367   1.734  11.322  0.00  0.00    +0.000 C 
ATOM      9  C   UNL     1       7.385   3.176  11.853  0.00  0.00    +0.000 C 
ATOM     10  S   UNL     1       7.260   5.072  14.406  0.00  0.00    +0.000 S 
ATOM     11  N   UNL     1       6.493   5.174  15.846  0.00  0.00    +0.000 N 
ENDROOT
BRANCH   1  16
ATOM     12  C   UNL     1       1.483   4.070  20.183  0.00  0.00    +0.000 C 
ATOM     13  C   UNL     1       2.449   4.161  19.037  0.00  0.00    +0.000 A 
ATOM     14  C   UNL     1       3.040   3.018  18.492  0.00  0.00    +0.000 A 
ATOM     15  C   UNL     1       3.953   3.127  17.433  0.00  0.00    +0.000 A 
ATOM     16  C   UNL     1       4.290   4.381  16.898  0.00  0.00    +0.000 A 
ATOM     17  C   UNL     1       3.650   5.515  17.416  0.00  0.00    +0.000 A 
ATOM     18  C   UNL     1       2.765   5.409  18.494  0.00  0.00    +0.000 A 
ENDBRANCH   1  16
BRANCH  11  19
ATOM     19  C   UNL     1       7.149   5.846  16.963  0.00  0.00    +0.000 A 
ATOM     20  C   UNL     1       7.482   5.088  18.097  0.00  0.00    +0.000 A 
ATOM     21  C   UNL     1       8.060   5.711  19.201  0.00  0.00    +0.000 A 
ATOM     22  C   UNL     1       8.318   7.079  19.165  0.00  0.00    +0.000 A 
ATOM     23  C   UNL     1       7.986   7.830  18.038  0.00  0.00    +0.000 A 
ATOM     24  C   UNL     1       7.383   7.219  16.935  0.00  0.00    +0.000 A 
ENDBRANCH  11  19
TORSDOF 2
ENDMDL
MODEL 3
REMARK VINA RESULT:      -6.8     11.432     14.584
REMARK  Name = 
REMARK  3 active torsions:
REMARK  status: ('A' for Active; 'I' for Inactive)
REMARK    1  A    between atoms: C_1  and  C_2
REMARK    2  A    between atoms: C_5  and  C_6
REMARK    3  A    between atoms: N_16  and  C_17
REMARK                            x       y       z     vdW  Elec       q    Type
REMARK                         _______ _______ _______ _____ _____    ______ ____
ROOT
ATOM      1  C   UNL     1      -3.236  12.599  20.144  0.00  0.00    +0.000 A 
ATOM      2  N   UNL     1      -4.027  13.039  21.216  0.00  0.00    +0.000 NA
ATOM      3  C   UNL     1      -5.297  12.741  20.982  0.00  0.00    +0.000 A 
ATOM      4  N   UNL     1      -6.318  12.969  21.844  0.00  0.00    +0.000 N 
ATOM      5  C   UNL     1      -6.290  14.091  22.792  0.00  0.00    +0.000 C 
ATOM      6  C   UNL     1      -6.667  13.600  24.197  0.00  0.00    +0.000 C 
ATOM      7  O   UNL     1      -7.916  12.887  24.188  0.00  0.00    +0.000 OA
ATOM      8  C   UNL     1      -7.848  11.749  23.321  0.00  0.00    +0.000 C 
ATOM      9  C   UNL     1      -7.557  12.180  21.876  0.00  0.00    +0.000 C 
ATOM     10  S   UNL     1      -5.558  12.024  19.404  0.00  0.00    +0.000 S 
ATOM     11  N   UNL     1      -3.952  12.006  19.100  0.00  0.00    +0.000 N 
ENDROOT
BRANCH   1  16
ATOM     12  C   UNL     1       2.513  13.348  20.308  0.00  0.00    +0.000 C 
ATOM     13  C   UNL     1       1.023  13.160  20.292  0.00  0.00    +0.000 A 
ATOM     14  C   UNL     1       0.415  12.114  20.991  0.00  0.00    +0.000 A 
ATOM     15  C   UNL     1      -0.977  11.946  20.950  0.00  0.00    +0.000 A 
ATOM     16  C   UNL     1      -1.787  12.823  20.211  0.00  0.00    +0.000 A 
ATOM     17  C   UNL     1      -1.172  13.902  19.559  0.00  0.00    +0.000 A 
ATOM     18  C   UNL     1       0.219  14.048  19.573  0.00  0.00    +0.000 A 
ENDBRANCH   1  16
BRANCH  11  19
ATOM     19  C   UNL     1      -3.455  11.325  17.909  0.00  0.00    +0.000 A 
ATOM     20  C   UNL     1      -4.137  11.515  16.696  0.00  0.00    +0.000 A 
ATOM     21  C   UNL     1      -3.720  10.837  15.553  0.00  0.00    +0.000 A 
ATOM     22  C   UNL     1      -2.620   9.986  15.618  0.00  0.00    +0.000 A 
ATOM     23  C   UNL     1      -1.945   9.797  16.824  0.00  0.00    +0.000 A 
ATOM     24  C   UNL     1      -2.370  10.454  17.982  0.00  0.00    +0.000 A 
ENDBRANCH  11  19
TORSDOF 2
ENDMDL
MODEL 4
REMARK VINA RESULT:      -6.7      5.252      8.506
REMARK  Name = 
REMARK  3 active torsions:
REMARK  status: ('A' for Active; 'I' for Inactive)
REMARK    1  A    between atoms: C_1  and  C_2
REMARK    2  A    between atoms: C_5  and  C_6
REMARK    3  A    between atoms: N_16  and  C_17
REMARK                            x       y       z     vdW  Elec       q    Type
REMARK                         _______ _______ _______ _____ _____    ______ ____
ROOT
ATOM      1  C   UNL     1       2.624   6.906  18.574  0.00  0.00    +0.000 A 
ATOM      2  N   UNL     1       2.469   8.287  18.377  0.00  0.00    +0.000 NA
ATOM      3  C   UNL     1       1.594   8.765  19.250  0.00  0.00    +0.000 A 
ATOM      4  N   UNL     1       1.260  10.073  19.376  0.00  0.00    +0.000 N 
ATOM      5  C   UNL     1       1.292  10.989  18.229  0.00  0.00    +0.000 C 
ATOM      6  C   UNL     1       2.036  12.278  18.609  0.00  0.00    +0.000 C 
ATOM      7  O   UNL     1       1.490  12.869  19.801  0.00  0.00    +0.000 OA
ATOM      8  C   UNL     1       1.578  11.962  20.906  0.00  0.00    +0.000 C 
ATOM      9  C   UNL     1       0.779  10.680  20.625  0.00  0.00    +0.000 C 
ATOM     10  S   UNL     1       0.865   7.521  20.247  0.00  0.00    +0.000 S 
ATOM     11  N   UNL     1       1.820   6.371  19.584  0.00  0.00    +0.000 N 
ENDROOT
BRANCH   1  16
ATOM     12  C   UNL     1       6.212   4.020  15.048  0.00  0.00    +0.000 C 
ATOM     13  C   UNL     1       5.294   4.754  15.982  0.00  0.00    +0.000 A 
ATOM     14  C   UNL     1       4.302   4.084  16.703  0.00  0.00    +0.000 A 
ATOM     15  C   UNL     1       3.444   4.791  17.558  0.00  0.00    +0.000 A 
ATOM     16  C   UNL     1       3.564   6.182  17.710  0.00  0.00    +0.000 A 
ATOM     17  C   UNL     1       4.598   6.836  17.025  0.00  0.00    +0.000 A 
ATOM     18  C   UNL     1       5.431   6.135  16.147  0.00  0.00    +0.000 A 
ENDBRANCH   1  16
BRANCH  11  19
ATOM     19  C   UNL     1       1.815   5.024  20.145  0.00  0.00    +0.000 A 
ATOM     20  C   UNL     1       1.015   4.047  19.531  0.00  0.00    +0.000 A 
ATOM     21  C   UNL     1       0.947   2.765  20.075  0.00  0.00    +0.000 A 
ATOM     22  C   UNL     1       1.686   2.459  21.215  0.00  0.00    +0.000 A 
ATOM     23  C   UNL     1       2.479   3.432  21.823  0.00  0.00    +0.000 A 
ATOM     24  C   UNL     1       2.535   4.727  21.300  0.00  0.00    +0.000 A 
ENDBRANCH  11  19
TORSDOF 2
ENDMDL
MODEL 5
REMARK VINA RESULT:      -6.7     11.453     14.593
REMARK  Name = 
REMARK  3 active torsions:
REMARK  status: ('A' for Active; 'I' for Inactive)
REMARK    1  A    between atoms: C_1  and  C_2
REMARK    2  A    between atoms: C_5  and  C_6
REMARK    3  A    between atoms: N_16  and  C_17
REMARK                            x       y       z     vdW  Elec       q    Type
REMARK                         _______ _______ _______ _____ _____    ______ ____
ROOT
ATOM      1  C   UNL     1      -3.308  12.561  19.996  0.00  0.00    +0.000 A 
ATOM      2  N   UNL     1      -4.072  13.039  21.072  0.00  0.00    +0.000 NA
ATOM      3  C   UNL     1      -5.352  12.768  20.863  0.00  0.00    +0.000 A 
ATOM      4  N   UNL     1      -6.354  13.036  21.736  0.00  0.00    +0.000 N 
ATOM      5  C   UNL     1      -6.284  14.175  22.661  0.00  0.00    +0.000 C 
ATOM      6  C   UNL     1      -6.651  13.720  24.082  0.00  0.00    +0.000 C 
ATOM      7  O   UNL     1      -7.916  13.037  24.105  0.00  0.00    +0.000 OA
ATOM      8  C   UNL     1      -7.888  11.882  23.259  0.00  0.00    +0.000 C 
ATOM      9  C   UNL     1      -7.610  12.278  21.801  0.00  0.00    +0.000 C 
ATOM     10  S   UNL     1      -5.655  12.028  19.303  0.00  0.00    +0.000 S 
ATOM     11  N   UNL     1      -4.054  11.965  18.975  0.00  0.00    +0.000 N 
ENDROOT
BRANCH   1  16
ATOM     12  C   UNL     1       2.416  13.464  20.236  0.00  0.00    +0.000 C 
ATOM     13  C   UNL     1       0.937  13.221  20.148  0.00  0.00    +0.000 A 
ATOM     14  C   UNL     1       0.132  13.942  19.262  0.00  0.00    +0.000 A 
ATOM     15  C   UNL     1      -1.250  13.711  19.208  0.00  0.00    +0.000 A 
ATOM     16  C   UNL     1      -1.853  12.751  20.037  0.00  0.00    +0.000 A 
ATOM     17  C   UNL     1      -1.029  11.995  20.883  0.00  0.00    +0.000 A 
ATOM     18  C   UNL     1       0.344  12.251  20.960  0.00  0.00    +0.000 A 
ENDBRANCH   1  16
BRANCH  11  19
ATOM     19  C   UNL     1      -3.592  11.250  17.790  0.00  0.00    +0.000 A 
ATOM     20  C   UNL     1      -2.518  10.356  17.924  0.00  0.00    +0.000 A 
ATOM     21  C   UNL     1      -2.018   9.699  16.802  0.00  0.00    +0.000 A 
ATOM     22  C   UNL     1      -2.599   9.922  15.556  0.00  0.00    +0.000 A 
ATOM     23  C   UNL     1      -3.665  10.811  15.425  0.00  0.00    +0.000 A 
ATOM     24  C   UNL     1      -4.158  11.494  16.540  0.00  0.00    +0.000 A 
ENDBRANCH  11  19
TORSDOF 2
ENDMDL
MODEL 6
REMARK VINA RESULT:      -6.7     10.116     12.245
REMARK  Name = 
REMARK  3 active torsions:
REMARK  status: ('A' for Active; 'I' for Inactive)
REMARK    1  A    between atoms: C_1  and  C_2
REMARK    2  A    between atoms: C_5  and  C_6
REMARK    3  A    between atoms: N_16  and  C_17
REMARK                            x       y       z     vdW  Elec       q    Type
REMARK                         _______ _______ _______ _____ _____    ______ ____
ROOT
ATOM      1  C   UNL     1      -0.748  13.108  19.688  0.00  0.00    +0.000 A 
ATOM      2  N   UNL     1      -0.314  14.310  19.108  0.00  0.00    +0.000 NA
ATOM      3  C   UNL     1       0.882  14.627  19.584  0.00  0.00    +0.000 A 
ATOM      4  N   UNL     1       1.616  15.694  19.186  0.00  0.00    +0.000 N 
ATOM      5  C   UNL     1       0.982  16.931  18.712  0.00  0.00    +0.000 C 
ATOM      6  C   UNL     1       1.633  17.384  17.397  0.00  0.00    +0.000 C 
ATOM      7  O   UNL     1       3.062  17.483  17.525  0.00  0.00    +0.000 OA
ATOM      8  C   UNL     1       3.630  16.222  17.893  0.00  0.00    +0.000 C 
ATOM      9  C   UNL     1       3.083  15.750  19.249  0.00  0.00    +0.000 C 
ATOM     10  S   UNL     1       1.443  13.526  20.827  0.00  0.00    +0.000 S 
ATOM     11  N   UNL     1       0.135  12.566  20.627  0.00  0.00    +0.000 N 
ENDROOT
BRANCH   1  16
ATOM     12  C   UNL     1      -5.953  11.148  18.046  0.00  0.00    +0.000 C 
ATOM     13  C   UNL     1      -4.607  11.640  18.494  0.00  0.00    +0.000 A 
ATOM     14  C   UNL     1      -4.460  12.405  19.654  0.00  0.00    +0.000 A 
ATOM     15  C   UNL     1      -3.196  12.868  20.045  0.00  0.00    +0.000 A 
ATOM     16  C   UNL     1      -2.053  12.572  19.285  0.00  0.00    +0.000 A 
ATOM     17  C   UNL     1      -2.203  11.757  18.154  0.00  0.00    +0.000 A 
ATOM     18  C   UNL     1      -3.470  11.324  17.746  0.00  0.00    +0.000 A 
ENDBRANCH   1  16
BRANCH  11  19
ATOM     19  C   UNL     1       0.076  11.281  21.317  0.00  0.00    +0.000 A 
ATOM     20  C   UNL     1       0.661  10.164  20.700  0.00  0.00    +0.000 A 
ATOM     21  C   UNL     1       0.574   8.912  21.307  0.00  0.00    +0.000 A 
ATOM     22  C   UNL     1      -0.080   8.783  22.530  0.00  0.00    +0.000 A 
ATOM     23  C   UNL     1      -0.661   9.894  23.140  0.00  0.00    +0.000 A 
ATOM     24  C   UNL     1      -0.601  11.149  22.527  0.00  0.00    +0.000 A 
ENDBRANCH  11  19
TORSDOF 2
ENDMDL
MODEL 7
REMARK VINA RESULT:      -6.6      2.676      5.159
REMARK  Name = 
REMARK  3 active torsions:
REMARK  status: ('A' for Active; 'I' for Inactive)
REMARK    1  A    between atoms: C_1  and  C_2
REMARK    2  A    between atoms: C_5  and  C_6
REMARK    3  A    between atoms: N_16  and  C_17
REMARK                            x       y       z     vdW  Elec       q    Type
REMARK                         _______ _______ _______ _____ _____    ______ ____
ROOT
ATOM      1  C   UNL     1       3.668   5.814  17.896  0.00  0.00    +0.000 A 
ATOM      2  N   UNL     1       4.587   5.984  16.849  0.00  0.00    +0.000 NA
ATOM      3  C   UNL     1       5.152   4.820  16.560  0.00  0.00    +0.000 A 
ATOM      4  N   UNL     1       6.040   4.618  15.556  0.00  0.00    +0.000 N 
ATOM      5  C   UNL     1       6.950   5.680  15.108  0.00  0.00    +0.000 C 
ATOM      6  C   UNL     1       6.916   5.788  13.576  0.00  0.00    +0.000 C 
ATOM      7  O   UNL     1       7.165   4.516  12.953  0.00  0.00    +0.000 OA
ATOM      8  C   UNL     1       6.186   3.551  13.354  0.00  0.00    +0.000 C 
ATOM      9  C   UNL     1       6.228   3.330  14.874  0.00  0.00    +0.000 C 
ATOM     10  S   UNL     1       4.655   3.527  17.634  0.00  0.00    +0.000 S 
ATOM     11  N   UNL     1       3.595   4.511  18.396  0.00  0.00    +0.000 N 
ENDROOT
BRANCH   1  16
ATOM     12  C   UNL     1       0.584  10.404  19.643  0.00  0.00    +0.000 C 
ATOM     13  C   UNL     1       1.405   9.231  19.188  0.00  0.00    +0.000 A 
ATOM     14  C   UNL     1       1.944   9.176  17.900  0.00  0.00    +0.000 A 
ATOM     15  C   UNL     1       2.694   8.065  17.491  0.00  0.00    +0.000 A 
ATOM     16  C   UNL     1       2.921   6.988  18.363  0.00  0.00    +0.000 A 
ATOM     17  C   UNL     1       2.423   7.078  19.670  0.00  0.00    +0.000 A 
ATOM     18  C   UNL     1       1.646   8.172  20.066  0.00  0.00    +0.000 A 
ENDBRANCH   1  16
BRANCH  11  19
ATOM     19  C   UNL     1       2.670   3.948  19.375  0.00  0.00    +0.000 A 
ATOM     20  C   UNL     1       3.158   3.634  20.653  0.00  0.00    +0.000 A 
ATOM     21  C   UNL     1       2.314   3.045  21.592  0.00  0.00    +0.000 A 
ATOM     22  C   UNL     1       0.986   2.786  21.260  0.00  0.00    +0.000 A 
ATOM     23  C   UNL     1       0.504   3.098  19.989  0.00  0.00    +0.000 A 
ATOM     24  C   UNL     1       1.349   3.666  19.032  0.00  0.00    +0.000 A 
ENDBRANCH  11  19
TORSDOF 2
ENDMDL
MODEL 8
REMARK VINA RESULT:      -6.6     10.206     12.356
REMARK  Name = 
REMARK  3 active torsions:
REMARK  status: ('A' for Active; 'I' for Inactive)
REMARK    1  A    between atoms: C_1  and  C_2
REMARK    2  A    between atoms: C_5  and  C_6
REMARK    3  A    between atoms: N_16  and  C_17
REMARK                            x       y       z     vdW  Elec       q    Type
REMARK                         _______ _______ _______ _____ _____    ______ ____
ROOT
ATOM      1  C   UNL     1      -0.874  13.152  19.721  0.00  0.00    +0.000 A 
ATOM      2  N   UNL     1      -0.473  14.371  19.154  0.00  0.00    +0.000 NA
ATOM      3  C   UNL     1       0.725  14.703  19.615  0.00  0.00    +0.000 A 
ATOM      4  N   UNL     1       1.432  15.791  19.223  0.00  0.00    +0.000 N 
ATOM      5  C   UNL     1       0.767  17.023  18.781  0.00  0.00    +0.000 C 
ATOM      6  C   UNL     1       1.387  17.510  17.463  0.00  0.00    +0.000 C 
ATOM      7  O   UNL     1       2.816  17.634  17.568  0.00  0.00    +0.000 OA
ATOM      8  C   UNL     1       3.414  16.378  17.906  0.00  0.00    +0.000 C 
ATOM      9  C   UNL     1       2.898  15.874  19.262  0.00  0.00    +0.000 C 
ATOM     10  S   UNL     1       1.328  13.594  20.830  0.00  0.00    +0.000 S 
ATOM     11  N   UNL     1       0.035  12.612  20.637  0.00  0.00    +0.000 N 
ENDROOT
BRANCH   1  16
ATOM     12  C   UNL     1      -6.068  11.120  18.132  0.00  0.00    +0.000 C 
ATOM     13  C   UNL     1      -4.724  11.630  18.566  0.00  0.00    +0.000 A 
ATOM     14  C   UNL     1      -4.575  12.389  19.730  0.00  0.00    +0.000 A 
ATOM     15  C   UNL     1      -3.313  12.870  20.108  0.00  0.00    +0.000 A 
ATOM     16  C   UNL     1      -2.175  12.598  19.331  0.00  0.00    +0.000 A 
ATOM     17  C   UNL     1      -2.327  11.789  18.196  0.00  0.00    +0.000 A 
ATOM     18  C   UNL     1      -3.591  11.339  17.801  0.00  0.00    +0.000 A 
ENDBRANCH   1  16
BRANCH  11  19
ATOM     19  C   UNL     1       0.011  11.315  21.306  0.00  0.00    +0.000 A 
ATOM     20  C   UNL     1      -0.696  11.198  22.512  0.00  0.00    +0.000 A 
ATOM     21  C   UNL     1      -0.693   9.988  23.203  0.00  0.00    +0.000 A 
ATOM     22  C   UNL     1       0.001   8.899  22.683  0.00  0.00    +0.000 A 
ATOM     23  C   UNL     1       0.704   9.018  21.485  0.00  0.00    +0.000 A 
ATOM     24  C   UNL     1       0.727  10.234  20.797  0.00  0.00    +0.000 A 
ENDBRANCH  11  19
TORSDOF 2
ENDMDL
MODEL 9
REMARK VINA RESULT:      -6.6     10.069     12.194
REMARK  Name = 
REMARK  3 active torsions:
REMARK  status: ('A' for Active; 'I' for Inactive)
REMARK    1  A    between atoms: C_1  and  C_2
REMARK    2  A    between atoms: C_5  and  C_6
REMARK    3  A    between atoms: N_16  and  C_17
REMARK                            x       y       z     vdW  Elec       q    Type
REMARK                         _______ _______ _______ _____ _____    ______ ____
ROOT
ATOM      1  C   UNL     1      -0.714  13.076  19.672  0.00  0.00    +0.000 A 
ATOM      2  N   UNL     1      -0.242  14.276  19.118  0.00  0.00    +0.000 NA
ATOM      3  C   UNL     1       0.972  14.532  19.583  0.00  0.00    +0.000 A 
ATOM      4  N   UNL     1       1.742  15.582  19.203  0.00  0.00    +0.000 N 
ATOM      5  C   UNL     1       1.150  16.855  18.775  0.00  0.00    +0.000 C 
ATOM      6  C   UNL     1       1.798  17.320  17.462  0.00  0.00    +0.000 C 
ATOM      7  O   UNL     1       3.232  17.359  17.568  0.00  0.00    +0.000 OA
ATOM      8  C   UNL     1       3.755  16.067  17.891  0.00  0.00    +0.000 C 
ATOM      9  C   UNL     1       3.211  15.578  19.242  0.00  0.00    +0.000 C 
ATOM     10  S   UNL     1       1.510  13.375  20.784  0.00  0.00    +0.000 S 
ATOM     11  N   UNL     1       0.161  12.473  20.580  0.00  0.00    +0.000 N 
ENDROOT
BRANCH   1  16
ATOM     12  C   UNL     1      -5.931  11.050  18.152  0.00  0.00    +0.000 C 
ATOM     13  C   UNL     1      -4.580  11.590  18.523  0.00  0.00    +0.000 A 
ATOM     14  C   UNL     1      -3.450  11.321  17.746  0.00  0.00    +0.000 A 
ATOM     15  C   UNL     1      -2.195  11.821  18.119  0.00  0.00    +0.000 A 
ATOM     16  C   UNL     1      -2.046  12.603  19.276  0.00  0.00    +0.000 A 
ATOM     17  C   UNL     1      -3.194  12.914  20.018  0.00  0.00    +0.000 A 
ATOM     18  C   UNL     1      -4.440  12.386  19.663  0.00  0.00    +0.000 A 
ENDBRANCH   1  16
BRANCH  11  19
ATOM     19  C   UNL     1       0.062  11.172  21.234  0.00  0.00    +0.000 A 
ATOM     20  C   UNL     1      -0.579  11.098  22.481  0.00  0.00    +0.000 A 
ATOM     21  C   UNL     1      -0.642   9.881  23.156  0.00  0.00    +0.000 A 
ATOM     22  C   UNL     1      -0.082   8.743  22.581  0.00  0.00    +0.000 A 
ATOM     23  C   UNL     1       0.556   8.820  21.343  0.00  0.00    +0.000 A 
ATOM     24  C   UNL     1       0.646  10.041  20.669  0.00  0.00    +0.000 A 
ENDBRANCH  11  19
TORSDOF 2
ENDMDL
