MODEL 1
REMARK VINA RESULT:      -8.6      0.000      0.000
REMARK  Name = 
REMARK  4 active torsions:
REMARK  status: ('A' for Active; 'I' for Inactive)
REMARK    1  A    between atoms: C_2  and  C_3
REMARK    2  A    between atoms: C_8  and  N_9
REMARK    3  A    between atoms: C_11  and  C_12
REMARK    4  A    between atoms: C_24  and  O_25
REMARK                            x       y       z     vdW  Elec       q    Type
REMARK                         _______ _______ _______ _____ _____    ______ ____
ROOT
ATOM      1  C   UNL     1       3.633   4.897  17.333  0.00  0.00    +0.000 A 
ATOM      2  C   UNL     1       4.626   4.015  16.856  0.00  0.00    +0.000 A 
ATOM      3  C   UNL     1       5.795   4.480  16.263  0.00  0.00    +0.000 A 
ATOM      4  C   UNL     1       6.044   5.841  16.224  0.00  0.00    +0.000 A 
ATOM      5  C   UNL     1       5.127   6.729  16.787  0.00  0.00    +0.000 A 
ATOM      6  C   UNL     1       3.905   6.284  17.343  0.00  0.00    +0.000 A 
ENDROOT
BRANCH   1   8
ATOM      7  O   UNL     1       1.329   4.458  17.288  0.00  0.00    +0.000 OA
ATOM      8  C   UNL     1       2.395   4.249  17.859  0.00  0.00    +0.000 C 
ATOM      9  N   UNL     1       2.481   3.489  19.024  0.00  0.00    +0.000 N 
ATOM     10  C   UNL     1       3.592   3.389  19.966  0.00  0.00    +0.000 C 
ATOM     11  C   UNL     1       3.178   2.328  20.974  0.00  0.00    +0.000 C 
ATOM     12  C   UNL     1       1.658   2.417  20.956  0.00  0.00    +0.000 C 
ATOM     13  C   UNL     1       1.349   2.689  19.481  0.00  0.00    +0.000 C 
BRANCH  12  14
ATOM     14  O   UNL     1       1.240   3.507  21.785  0.00  0.00    +0.000 OA
ATOM     15  H   UNL     1       2.034   4.000  22.057  0.00  0.00    +0.000 HD
ENDBRANCH  12  14
ENDBRANCH   1   8
BRANCH   6  16
ATOM     16  N   UNL     1       3.018   7.273  17.870  0.00  0.00    +0.000 N 
ATOM     17  C   UNL     1       2.514   7.355  19.158  0.00  0.00    +0.000 A 
ATOM     18  C   UNL     1       1.729   8.484  19.178  0.00  0.00    +0.000 A 
ATOM     19  N   UNL     1       1.765   9.058  17.941  0.00  0.00    +0.000 NA
ATOM     20  N   UNL     1       2.575   8.340  17.172  0.00  0.00    +0.000 NA
BRANCH  18  21
ATOM     21  C   UNL     1       0.999   9.028  20.311  0.00  0.00    +0.000 A 
ATOM     22  C   UNL     1       1.229   8.583  21.624  0.00  0.00    +0.000 A 
ATOM     23  C   UNL     1       0.561   9.170  22.703  0.00  0.00    +0.000 A 
ATOM     24  C   UNL     1      -0.344  10.200  22.473  0.00  0.00    +0.000 A 
ATOM     25  F   UNL     1      -0.969  10.772  23.510  0.00  0.00    +0.000 F 
ATOM     26  C   UNL     1      -0.603  10.645  21.183  0.00  0.00    +0.000 A 
ATOM     27  C   UNL     1       0.064  10.059  20.105  0.00  0.00    +0.000 A 
ENDBRANCH  18  21
ENDBRANCH   6  16
TORSDOF 4
ENDMDL
MODEL 2
REMARK VINA RESULT:      -8.5      1.489      1.941
REMARK  Name = 
REMARK  4 active torsions:
REMARK  status: ('A' for Active; 'I' for Inactive)
REMARK    1  A    between atoms: C_2  and  C_3
REMARK    2  A    between atoms: C_8  and  N_9
REMARK    3  A    between atoms: C_11  and  C_12
REMARK    4  A    between atoms: C_24  and  O_25
REMARK                            x       y       z     vdW  Elec       q    Type
REMARK                         _______ _______ _______ _____ _____    ______ ____
ROOT
ATOM      1  C   UNL     1       3.451   4.825  17.343  0.00  0.00    +0.000 A 
ATOM      2  C   UNL     1       4.361   4.069  16.573  0.00  0.00    +0.000 A 
ATOM      3  C   UNL     1       5.409   4.667  15.881  0.00  0.00    +0.000 A 
ATOM      4  C   UNL     1       5.631   6.026  16.024  0.00  0.00    +0.000 A 
ATOM      5  C   UNL     1       4.810   6.778  16.865  0.00  0.00    +0.000 A 
ATOM      6  C   UNL     1       3.703   6.203  17.534  0.00  0.00    +0.000 A 
ENDROOT
BRANCH   1   8
ATOM      7  O   UNL     1       1.210   4.139  17.448  0.00  0.00    +0.000 OA
ATOM      8  C   UNL     1       2.327   4.054  17.951  0.00  0.00    +0.000 C 
ATOM      9  N   UNL     1       2.568   3.323  19.113  0.00  0.00    +0.000 N 
ATOM     10  C   UNL     1       3.741   3.356  19.983  0.00  0.00    +0.000 C 
ATOM     11  C   UNL     1       3.509   2.270  21.021  0.00  0.00    +0.000 C 
ATOM     12  C   UNL     1       1.990   2.194  21.100  0.00  0.00    +0.000 C 
ATOM     13  C   UNL     1       1.560   2.411  19.647  0.00  0.00    +0.000 C 
BRANCH  12  14
ATOM     14  O   UNL     1       1.509   3.244  21.947  0.00  0.00    +0.000 OA
ATOM     15  H   UNL     1       1.913   4.078  21.652  0.00  0.00    +0.000 HD
ENDBRANCH  12  14
ENDBRANCH   1   8
BRANCH   6  16
ATOM     16  N   UNL     1       2.904   7.060  18.351  0.00  0.00    +0.000 N 
ATOM     17  C   UNL     1       2.202   8.188  17.957  0.00  0.00    +0.000 A 
ATOM     18  C   UNL     1       1.580   8.652  19.092  0.00  0.00    +0.000 A 
ATOM     19  N   UNL     1       1.898   7.826  20.129  0.00  0.00    +0.000 NA
ATOM     20  N   UNL     1       2.666   6.849  19.663  0.00  0.00    +0.000 NA
BRANCH  18  21
ATOM     21  C   UNL     1       0.695   9.801  19.204  0.00  0.00    +0.000 A 
ATOM     22  C   UNL     1      -0.269  10.091  18.223  0.00  0.00    +0.000 A 
ATOM     23  C   UNL     1      -1.151  11.164  18.388  0.00  0.00    +0.000 A 
ATOM     24  C   UNL     1      -1.069  11.952  19.529  0.00  0.00    +0.000 A 
ATOM     25  F   UNL     1      -1.927  12.968  19.692  0.00  0.00    +0.000 F 
ATOM     26  C   UNL     1      -0.114  11.697  20.504  0.00  0.00    +0.000 A 
ATOM     27  C   UNL     1       0.768  10.626  20.340  0.00  0.00    +0.000 A 
ENDBRANCH  18  21
ENDBRANCH   6  16
TORSDOF 4
ENDMDL
MODEL 3
REMARK VINA RESULT:      -8.2      0.721      1.185
REMARK  Name = 
REMARK  4 active torsions:
REMARK  status: ('A' for Active; 'I' for Inactive)
REMARK    1  A    between atoms: C_2  and  C_3
REMARK    2  A    between atoms: C_8  and  N_9
REMARK    3  A    between atoms: C_11  and  C_12
REMARK    4  A    between atoms: C_24  and  O_25
REMARK                            x       y       z     vdW  Elec       q    Type
REMARK                         _______ _______ _______ _____ _____    ______ ____
ROOT
ATOM      1  C   UNL     1       4.350   4.751  17.240  0.00  0.00    +0.000 A 
ATOM      2  C   UNL     1       5.482   3.973  16.918  0.00  0.00    +0.000 A 
ATOM      3  C   UNL     1       6.713   4.555  16.633  0.00  0.00    +0.000 A 
ATOM      4  C   UNL     1       6.865   5.924  16.762  0.00  0.00    +0.000 A 
ATOM      5  C   UNL     1       5.788   6.704  17.183  0.00  0.00    +0.000 A 
ATOM      6  C   UNL     1       4.511   6.143  17.423  0.00  0.00    +0.000 A 
ENDROOT
BRANCH   1   8
ATOM      7  O   UNL     1       2.308   3.880  16.482  0.00  0.00    +0.000 OA
ATOM      8  C   UNL     1       3.079   3.990  17.430  0.00  0.00    +0.000 C 
ATOM      9  N   UNL     1       2.779   3.495  18.697  0.00  0.00    +0.000 N 
ATOM     10  C   UNL     1       3.435   3.788  19.969  0.00  0.00    +0.000 C 
ATOM     11  C   UNL     1       2.771   2.877  20.989  0.00  0.00    +0.000 C 
ATOM     12  C   UNL     1       1.379   2.671  20.406  0.00  0.00    +0.000 C 
ATOM     13  C   UNL     1       1.647   2.594  18.901  0.00  0.00    +0.000 C 
BRANCH  12  14
ATOM     14  O   UNL     1       0.559   3.798  20.733  0.00  0.00    +0.000 OA
ATOM     15  H   UNL     1      -0.323   3.649  20.349  0.00  0.00    +0.000 HD
ENDBRANCH  12  14
ENDBRANCH   1   8
BRANCH   6  16
ATOM     16  N   UNL     1       3.463   7.028  17.824  0.00  0.00    +0.000 N 
ATOM     17  C   UNL     1       2.994   7.252  19.108  0.00  0.00    +0.000 A 
ATOM     18  C   UNL     1       2.003   8.197  18.980  0.00  0.00    +0.000 A 
ATOM     19  N   UNL     1       1.887   8.528  17.662  0.00  0.00    +0.000 NA
ATOM     20  N   UNL     1       2.798   7.845  16.980  0.00  0.00    +0.000 NA
BRANCH  18  21
ATOM     21  C   UNL     1       1.214   8.796  20.046  0.00  0.00    +0.000 A 
ATOM     22  C   UNL     1       0.409   9.926  19.826  0.00  0.00    +0.000 A 
ATOM     23  C   UNL     1      -0.390  10.441  20.851  0.00  0.00    +0.000 A 
ATOM     24  C   UNL     1      -0.382   9.833  22.100  0.00  0.00    +0.000 A 
ATOM     25  F   UNL     1      -1.163  10.318  23.075  0.00  0.00    +0.000 F 
ATOM     26  C   UNL     1       0.418   8.725  22.349  0.00  0.00    +0.000 A 
ATOM     27  C   UNL     1       1.216   8.210  21.325  0.00  0.00    +0.000 A 
ENDBRANCH  18  21
ENDBRANCH   6  16
TORSDOF 4
ENDMDL
MODEL 4
REMARK VINA RESULT:      -8.2      2.499      4.469
REMARK  Name = 
REMARK  4 active torsions:
REMARK  status: ('A' for Active; 'I' for Inactive)
REMARK    1  A    between atoms: C_2  and  C_3
REMARK    2  A    between atoms: C_8  and  N_9
REMARK    3  A    between atoms: C_11  and  C_12
REMARK    4  A    between atoms: C_24  and  O_25
REMARK                            x       y       z     vdW  Elec       q    Type
REMARK                         _______ _______ _______ _____ _____    ______ ____
ROOT
ATOM      1  C   UNL     1       3.983   4.325  19.454  0.00  0.00    +0.000 A 
ATOM      2  C   UNL     1       3.965   2.995  19.925  0.00  0.00    +0.000 A 
ATOM      3  C   UNL     1       2.825   2.433  20.489  0.00  0.00    +0.000 A 
ATOM      4  C   UNL     1       1.645   3.157  20.503  0.00  0.00    +0.000 A 
ATOM      5  C   UNL     1       1.610   4.435  19.945  0.00  0.00    +0.000 A 
ATOM      6  C   UNL     1       2.770   5.050  19.419  0.00  0.00    +0.000 A 
ENDROOT
BRANCH   1   8
ATOM      7  O   UNL     1       5.974   5.543  19.689  0.00  0.00    +0.000 OA
ATOM      8  C   UNL     1       5.305   4.816  18.961  0.00  0.00    +0.000 C 
ATOM      9  N   UNL     1       5.698   4.491  17.665  0.00  0.00    +0.000 N 
ATOM     10  C   UNL     1       4.903   3.896  16.594  0.00  0.00    +0.000 C 
ATOM     11  C   UNL     1       5.875   3.656  15.450  0.00  0.00    +0.000 C 
ATOM     12  C   UNL     1       6.931   4.731  15.670  0.00  0.00    +0.000 C 
ATOM     13  C   UNL     1       7.048   4.788  17.195  0.00  0.00    +0.000 C 
BRANCH  12  14
ATOM     14  O   UNL     1       6.458   5.972  15.137  0.00  0.00    +0.000 OA
ATOM     15  H   UNL     1       7.194   6.395  14.662  0.00  0.00    +0.000 HD
ENDBRANCH  12  14
ENDBRANCH   1   8
BRANCH   6  16
ATOM     16  N   UNL     1       2.640   6.373  18.895  0.00  0.00    +0.000 N 
ATOM     17  C   UNL     1       1.901   7.420  19.423  0.00  0.00    +0.000 A 
ATOM     18  C   UNL     1       2.110   8.484  18.576  0.00  0.00    +0.000 A 
ATOM     19  N   UNL     1       2.948   8.084  17.577  0.00  0.00    +0.000 NA
ATOM     20  N   UNL     1       3.290   6.821  17.801  0.00  0.00    +0.000 NA
BRANCH  18  21
ATOM     21  C   UNL     1       1.578   9.830  18.708  0.00  0.00    +0.000 A 
ATOM     22  C   UNL     1       0.384  10.091  19.402  0.00  0.00    +0.000 A 
ATOM     23  C   UNL     1      -0.070  11.403  19.570  0.00  0.00    +0.000 A 
ATOM     24  C   UNL     1       0.663  12.457  19.041  0.00  0.00    +0.000 A 
ATOM     25  F   UNL     1       0.234  13.714  19.219  0.00  0.00    +0.000 F 
ATOM     26  C   UNL     1       1.836  12.226  18.334  0.00  0.00    +0.000 A 
ATOM     27  C   UNL     1       2.291  10.916  18.166  0.00  0.00    +0.000 A 
ENDBRANCH  18  21
ENDBRANCH   6  16
TORSDOF 4
ENDMDL
MODEL 5
REMARK VINA RESULT:      -8.1      3.971      8.051
REMARK  Name = 
REMARK  4 active torsions:
REMARK  status: ('A' for Active; 'I' for Inactive)
REMARK    1  A    between atoms: C_2  and  C_3
REMARK    2  A    between atoms: C_8  and  N_9
REMARK    3  A    between atoms: C_11  and  C_12
REMARK    4  A    between atoms: C_24  and  O_25
REMARK                            x       y       z     vdW  Elec       q    Type
REMARK                         _______ _______ _______ _____ _____    ______ ____
ROOT
ATOM      1  C   UNL     1      -0.253  10.727  20.556  0.00  0.00    +0.000 A 
ATOM      2  C   UNL     1      -0.874  11.239  21.715  0.00  0.00    +0.000 A 
ATOM      3  C   UNL     1      -0.792  10.584  22.940  0.00  0.00    +0.000 A 
ATOM      4  C   UNL     1      -0.003   9.453  23.056  0.00  0.00    +0.000 A 
ATOM      5  C   UNL     1       0.707   8.987  21.949  0.00  0.00    +0.000 A 
ATOM      6  C   UNL     1       0.595   9.602  20.680  0.00  0.00    +0.000 A 
ENDROOT
BRANCH   1   8
ATOM      7  O   UNL     1       0.089  12.550  19.120  0.00  0.00    +0.000 OA
ATOM      8  C   UNL     1      -0.506  11.492  19.299  0.00  0.00    +0.000 C 
ATOM      9  N   UNL     1      -1.465  11.014  18.408  0.00  0.00    +0.000 N 
ATOM     10  C   UNL     1      -2.448   9.953  18.609  0.00  0.00    +0.000 C 
ATOM     11  C   UNL     1      -3.141   9.780  17.267  0.00  0.00    +0.000 C 
ATOM     12  C   UNL     1      -3.017  11.161  16.639  0.00  0.00    +0.000 C 
ATOM     13  C   UNL     1      -1.625  11.617  17.087  0.00  0.00    +0.000 C 
BRANCH  12  14
ATOM     14  O   UNL     1      -4.038  12.014  17.167  0.00  0.00    +0.000 OA
ATOM     15  H   UNL     1      -3.807  12.226  18.088  0.00  0.00    +0.000 HD
ENDBRANCH  12  14
ENDBRANCH   1   8
BRANCH   6  16
ATOM     16  N   UNL     1       1.340   9.035  19.601  0.00  0.00    +0.000 N 
ATOM     17  C   UNL     1       1.989   7.811  19.575  0.00  0.00    +0.000 A 
ATOM     18  C   UNL     1       2.540   7.711  18.318  0.00  0.00    +0.000 A 
ATOM     19  N   UNL     1       2.227   8.838  17.617  0.00  0.00    +0.000 NA
ATOM     20  N   UNL     1       1.472   9.612  18.387  0.00  0.00    +0.000 NA
BRANCH  18  21
ATOM     21  C   UNL     1       3.300   6.596  17.777  0.00  0.00    +0.000 A 
ATOM     22  C   UNL     1       2.866   5.266  17.917  0.00  0.00    +0.000 A 
ATOM     23  C   UNL     1       3.582   4.218  17.329  0.00  0.00    +0.000 A 
ATOM     24  C   UNL     1       4.736   4.495  16.607  0.00  0.00    +0.000 A 
ATOM     25  F   UNL     1       5.410   3.490  16.031  0.00  0.00    +0.000 F 
ATOM     26  C   UNL     1       5.197   5.798  16.470  0.00  0.00    +0.000 A 
ATOM     27  C   UNL     1       4.482   6.845  17.056  0.00  0.00    +0.000 A 
ENDBRANCH  18  21
ENDBRANCH   6  16
TORSDOF 4
ENDMDL
MODEL 6
REMARK VINA RESULT:      -8.1      2.435      4.263
REMARK  Name = 
REMARK  4 active torsions:
REMARK  status: ('A' for Active; 'I' for Inactive)
REMARK    1  A    between atoms: C_2  and  C_3
REMARK    2  A    between atoms: C_8  and  N_9
REMARK    3  A    between atoms: C_11  and  C_12
REMARK    4  A    between atoms: C_24  and  O_25
REMARK                            x       y       z     vdW  Elec       q    Type
REMARK                         _______ _______ _______ _____ _____    ______ ____
ROOT
ATOM      1  C   UNL     1       3.330   3.986  19.293  0.00  0.00    +0.000 A 
ATOM      2  C   UNL     1       3.402   2.718  19.908  0.00  0.00    +0.000 A 
ATOM      3  C   UNL     1       2.824   2.471  21.149  0.00  0.00    +0.000 A 
ATOM      4  C   UNL     1       2.074   3.461  21.759  0.00  0.00    +0.000 A 
ATOM      5  C   UNL     1       1.897   4.689  21.121  0.00  0.00    +0.000 A 
ATOM      6  C   UNL     1       2.522   4.983  19.886  0.00  0.00    +0.000 A 
ENDROOT
BRANCH   1   8
ATOM      7  O   UNL     1       3.616   3.598  16.998  0.00  0.00    +0.000 OA
ATOM      8  C   UNL     1       4.076   4.122  18.007  0.00  0.00    +0.000 C 
ATOM      9  N   UNL     1       5.307   4.775  18.014  0.00  0.00    +0.000 N 
ATOM     10  C   UNL     1       6.114   5.186  19.160  0.00  0.00    +0.000 C 
ATOM     11  C   UNL     1       7.286   5.959  18.577  0.00  0.00    +0.000 C 
ATOM     12  C   UNL     1       7.441   5.347  17.191  0.00  0.00    +0.000 C 
ATOM     13  C   UNL     1       5.992   5.095  16.765  0.00  0.00    +0.000 C 
BRANCH  12  14
ATOM     14  O   UNL     1       8.173   4.122  17.295  0.00  0.00    +0.000 OA
ATOM     15  H   UNL     1       7.726   3.456  16.744  0.00  0.00    +0.000 HD
ENDBRANCH  12  14
ENDBRANCH   1   8
BRANCH   6  16
ATOM     16  N   UNL     1       2.304   6.280  19.326  0.00  0.00    +0.000 N 
ATOM     17  C   UNL     1       1.886   7.424  19.985  0.00  0.00    +0.000 A 
ATOM     18  C   UNL     1       1.846   8.409  19.026  0.00  0.00    +0.000 A 
ATOM     19  N   UNL     1       2.231   7.870  17.834  0.00  0.00    +0.000 NA
ATOM     20  N   UNL     1       2.541   6.595  18.035  0.00  0.00    +0.000 NA
BRANCH  18  21
ATOM     21  C   UNL     1       1.495   9.808  19.215  0.00  0.00    +0.000 A 
ATOM     22  C   UNL     1       1.929  10.807  18.327  0.00  0.00    +0.000 A 
ATOM     23  C   UNL     1       1.522  12.135  18.495  0.00  0.00    +0.000 A 
ATOM     24  C   UNL     1       0.687  12.469  19.554  0.00  0.00    +0.000 A 
ATOM     25  F   UNL     1       0.285  13.738  19.702  0.00  0.00    +0.000 F 
ATOM     26  C   UNL     1       0.260  11.503  20.457  0.00  0.00    +0.000 A 
ATOM     27  C   UNL     1       0.665  10.177  20.290  0.00  0.00    +0.000 A 
ENDBRANCH  18  21
ENDBRANCH   6  16
TORSDOF 4
ENDMDL
MODEL 7
REMARK VINA RESULT:      -8.0      4.319      7.604
REMARK  Name = 
REMARK  4 active torsions:
REMARK  status: ('A' for Active; 'I' for Inactive)
REMARK    1  A    between atoms: C_2  and  C_3
REMARK    2  A    between atoms: C_8  and  N_9
REMARK    3  A    between atoms: C_11  and  C_12
REMARK    4  A    between atoms: C_24  and  O_25
REMARK                            x       y       z     vdW  Elec       q    Type
REMARK                         _______ _______ _______ _____ _____    ______ ____
ROOT
ATOM      1  C   UNL     1       3.496   6.276  18.974  0.00  0.00    +0.000 A 
ATOM      2  C   UNL     1       2.425   6.781  19.740  0.00  0.00    +0.000 A 
ATOM      3  C   UNL     1       1.811   7.991  19.433  0.00  0.00    +0.000 A 
ATOM      4  C   UNL     1       2.189   8.676  18.292  0.00  0.00    +0.000 A 
ATOM      5  C   UNL     1       3.173   8.143  17.458  0.00  0.00    +0.000 A 
ATOM      6  C   UNL     1       3.852   6.944  17.780  0.00  0.00    +0.000 A 
ENDROOT
BRANCH   1   8
ATOM      7  O   UNL     1       5.191   5.073  20.062  0.00  0.00    +0.000 OA
ATOM      8  C   UNL     1       4.111   5.013  19.481  0.00  0.00    +0.000 C 
ATOM      9  N   UNL     1       3.475   3.804  19.211  0.00  0.00    +0.000 N 
ATOM     10  C   UNL     1       2.365   3.542  18.299  0.00  0.00    +0.000 C 
ATOM     11  C   UNL     1       2.006   2.079  18.503  0.00  0.00    +0.000 C 
ATOM     12  C   UNL     1       3.325   1.465  18.954  0.00  0.00    +0.000 C 
ATOM     13  C   UNL     1       3.930   2.563  19.833  0.00  0.00    +0.000 C 
BRANCH  12  14
ATOM     14  O   UNL     1       4.142   1.207  17.807  0.00  0.00    +0.000 OA
ATOM     15  H   UNL     1       5.024   1.582  17.975  0.00  0.00    +0.000 HD
ENDBRANCH  12  14
ENDBRANCH   1   8
BRANCH   6  16
ATOM     16  N   UNL     1       4.865   6.494  16.878  0.00  0.00    +0.000 N 
ATOM     17  C   UNL     1       4.706   5.673  15.773  0.00  0.00    +0.000 A 
ATOM     18  C   UNL     1       5.960   5.546  15.223  0.00  0.00    +0.000 A 
ATOM     19  N   UNL     1       6.838   6.271  15.974  0.00  0.00    +0.000 NA
ATOM     20  N   UNL     1       6.160   6.868  16.946  0.00  0.00    +0.000 NA
BRANCH  18  21
ATOM     21  C   UNL     1       6.325   4.807  14.025  0.00  0.00    +0.000 A 
ATOM     22  C   UNL     1       7.463   5.136  13.269  0.00  0.00    +0.000 A 
ATOM     23  C   UNL     1       7.827   4.367  12.159  0.00  0.00    +0.000 A 
ATOM     24  C   UNL     1       7.053   3.272  11.798  0.00  0.00    +0.000 A 
ATOM     25  F   UNL     1       7.415   2.527  10.745  0.00  0.00    +0.000 F 
ATOM     26  C   UNL     1       5.913   2.937  12.517  0.00  0.00    +0.000 A 
ATOM     27  C   UNL     1       5.549   3.704  13.625  0.00  0.00    +0.000 A 
ENDBRANCH  18  21
ENDBRANCH   6  16
TORSDOF 4
ENDMDL
MODEL 8
REMARK VINA RESULT:      -8.0      2.106      4.093
REMARK  Name = 
REMARK  4 active torsions:
REMARK  status: ('A' for Active; 'I' for Inactive)
REMARK    1  A    between atoms: C_2  and  C_3
REMARK    2  A    between atoms: C_8  and  N_9
REMARK    3  A    between atoms: C_11  and  C_12
REMARK    4  A    between atoms: C_24  and  O_25
REMARK                            x       y       z     vdW  Elec       q    Type
REMARK                         _______ _______ _______ _____ _____    ______ ____
ROOT
ATOM      1  C   UNL     1       3.287   4.468  19.283  0.00  0.00    +0.000 A 
ATOM      2  C   UNL     1       3.541   3.084  19.377  0.00  0.00    +0.000 A 
ATOM      3  C   UNL     1       3.114   2.334  20.469  0.00  0.00    +0.000 A 
ATOM      4  C   UNL     1       2.336   2.933  21.444  0.00  0.00    +0.000 A 
ATOM      5  C   UNL     1       1.981   4.276  21.318  0.00  0.00    +0.000 A 
ATOM      6  C   UNL     1       2.450   5.074  20.248  0.00  0.00    +0.000 A 
ENDROOT
BRANCH   1   8
ATOM      7  O   UNL     1       3.213   5.272  17.080  0.00  0.00    +0.000 OA
ATOM      8  C   UNL     1       3.887   5.153  18.099  0.00  0.00    +0.000 C 
ATOM      9  N   UNL     1       5.215   5.567  18.169  0.00  0.00    +0.000 N 
ATOM     10  C   UNL     1       6.219   5.244  19.179  0.00  0.00    +0.000 C 
ATOM     11  C   UNL     1       7.444   6.066  18.814  0.00  0.00    +0.000 C 
ATOM     12  C   UNL     1       7.307   6.232  17.306  0.00  0.00    +0.000 C 
ATOM     13  C   UNL     1       5.796   6.398  17.117  0.00  0.00    +0.000 C 
BRANCH  12  14
ATOM     14  O   UNL     1       7.786   5.049  16.657  0.00  0.00    +0.000 OA
ATOM     15  H   UNL     1       7.569   5.118  15.711  0.00  0.00    +0.000 HD
ENDBRANCH  12  14
ENDBRANCH   1   8
BRANCH   6  16
ATOM     16  N   UNL     1       2.055   6.446  20.222  0.00  0.00    +0.000 N 
ATOM     17  C   UNL     1       1.316   7.130  21.174  0.00  0.00    +0.000 A 
ATOM     18  C   UNL     1       1.216   8.420  20.708  0.00  0.00    +0.000 A 
ATOM     19  N   UNL     1       1.877   8.504  19.519  0.00  0.00    +0.000 NA
ATOM     20  N   UNL     1       2.410   7.318  19.254  0.00  0.00    +0.000 NA
BRANCH  18  21
ATOM     21  C   UNL     1       0.560   9.543  21.360  0.00  0.00    +0.000 A 
ATOM     22  C   UNL     1       0.586  10.836  20.812  0.00  0.00    +0.000 A 
ATOM     23  C   UNL     1      -0.109  11.884  21.425  0.00  0.00    +0.000 A 
ATOM     24  C   UNL     1      -0.827  11.643  22.590  0.00  0.00    +0.000 A 
ATOM     25  F   UNL     1      -1.506  12.645  23.165  0.00  0.00    +0.000 F 
ATOM     26  C   UNL     1      -0.853  10.378  23.162  0.00  0.00    +0.000 A 
ATOM     27  C   UNL     1      -0.160   9.331  22.551  0.00  0.00    +0.000 A 
ENDBRANCH  18  21
ENDBRANCH   6  16
TORSDOF 4
ENDMDL
MODEL 9
REMARK VINA RESULT:      -8.0      2.082      4.150
REMARK  Name = 
REMARK  4 active torsions:
REMARK  status: ('A' for Active; 'I' for Inactive)
REMARK    1  A    between atoms: C_2  and  C_3
REMARK    2  A    between atoms: C_8  and  N_9
REMARK    3  A    between atoms: C_11  and  C_12
REMARK    4  A    between atoms: C_24  and  O_25
REMARK                            x       y       z     vdW  Elec       q    Type
REMARK                         _______ _______ _______ _____ _____    ______ ____
ROOT
ATOM      1  C   UNL     1       3.825   3.605  18.892  0.00  0.00    +0.000 A 
ATOM      2  C   UNL     1       3.892   2.217  18.649  0.00  0.00    +0.000 A 
ATOM      3  C   UNL     1       2.751   1.421  18.626  0.00  0.00    +0.000 A 
ATOM      4  C   UNL     1       1.506   2.013  18.745  0.00  0.00    +0.000 A 
ATOM      5  C   UNL     1       1.407   3.398  18.878  0.00  0.00    +0.000 A 
ATOM      6  C   UNL     1       2.555   4.221  18.963  0.00  0.00    +0.000 A 
ENDROOT
BRANCH   1   8
ATOM      7  O   UNL     1       5.593   4.581  20.086  0.00  0.00    +0.000 OA
ATOM      8  C   UNL     1       5.139   4.308  18.978  0.00  0.00    +0.000 C 
ATOM      9  N   UNL     1       5.769   4.696  17.797  0.00  0.00    +0.000 N 
ATOM     10  C   UNL     1       5.231   4.709  16.440  0.00  0.00    +0.000 C 
ATOM     11  C   UNL     1       6.394   5.106  15.544  0.00  0.00    +0.000 C 
ATOM     12  C   UNL     1       7.265   5.944  16.470  0.00  0.00    +0.000 C 
ATOM     13  C   UNL     1       7.132   5.221  17.813  0.00  0.00    +0.000 C 
BRANCH  12  14
ATOM     14  O   UNL     1       6.738   7.273  16.540  0.00  0.00    +0.000 OA
ATOM     15  H   UNL     1       5.809   7.243  16.252  0.00  0.00    +0.000 HD
ENDBRANCH  12  14
ENDBRANCH   1   8
BRANCH   6  16
ATOM     16  N   UNL     1       2.351   5.626  19.127  0.00  0.00    +0.000 N 
ATOM     17  C   UNL     1       1.634   6.264  20.127  0.00  0.00    +0.000 A 
ATOM     18  C   UNL     1       1.748   7.609  19.863  0.00  0.00    +0.000 A 
ATOM     19  N   UNL     1       2.511   7.768  18.744  0.00  0.00    +0.000 NA
ATOM     20  N   UNL     1       2.900   6.568  18.331  0.00  0.00    +0.000 NA
BRANCH  18  21
ATOM     21  C   UNL     1       1.198   8.707  20.641  0.00  0.00    +0.000 A 
ATOM     22  C   UNL     1       0.854   9.935  20.049  0.00  0.00    +0.000 A 
ATOM     23  C   UNL     1       0.264  10.951  20.808  0.00  0.00    +0.000 A 
ATOM     24  C   UNL     1       0.022  10.746  22.160  0.00  0.00    +0.000 A 
ATOM     25  F   UNL     1      -0.559  11.715  22.880  0.00  0.00    +0.000 F 
ATOM     26  C   UNL     1       0.370   9.550  22.773  0.00  0.00    +0.000 A 
ATOM     27  C   UNL     1       0.958   8.534  22.016  0.00  0.00    +0.000 A 
ENDBRANCH  18  21
ENDBRANCH   6  16
TORSDOF 4
ENDMDL
