MODEL 1
REMARK VINA RESULT:      -6.0      0.000      0.000
REMARK  Name = 
REMARK  8 active torsions:
REMARK  status: ('A' for Active; 'I' for Inactive)
REMARK    1  A    between atoms: C_1  and  O_2
REMARK    2  A    between atoms: O_2  and  C_3
REMARK    3  A    between atoms: C_6  and  O_7
REMARK    4  A    between atoms: O_7  and  C_8
REMARK    5  A    between atoms: C_9  and  C_10
REMARK    6  A    between atoms: C_10  and  C_11
REMARK    7  A    between atoms: C_10  and  N_12
REMARK    8  A    between atoms: C_13  and  C_14
REMARK                            x       y       z     vdW  Elec       q    Type
REMARK                         _______ _______ _______ _____ _____    ______ ____
ROOT
ATOM      1  C   UNL     1       5.113   5.204  15.836  0.00  0.00    +0.000 A 
ATOM      2  C   UNL     1       4.909   6.490  16.320  0.00  0.00    +0.000 A 
ATOM      3  C   UNL     1       4.312   6.685  17.566  0.00  0.00    +0.000 A 
ATOM      4  C   UNL     1       3.918   5.602  18.365  0.00  0.00    +0.000 A 
ATOM      5  C   UNL     1       4.119   4.292  17.900  0.00  0.00    +0.000 A 
ATOM      6  C   UNL     1       4.681   4.123  16.603  0.00  0.00    +0.000 A 
ENDROOT
BRANCH   1   8
ATOM      7  C   UNL     1       6.355   3.888  14.281  0.00  0.00    +0.000 C 
ATOM      8  O   UNL     1       5.769   5.133  14.640  0.00  0.00    +0.000 OA
ENDBRANCH   1   8
BRANCH   4   9
ATOM      9  O   UNL     1       3.515   5.985  19.615  0.00  0.00    +0.000 OA
ATOM     10  C   UNL     1       2.360   6.804  19.742  0.00  0.00    +0.000 C 
ENDBRANCH   4   9
BRANCH   5  11
ATOM     11  C   UNL     1       3.863   3.039  18.722  0.00  0.00    +0.000 C 
ATOM     12  C   UNL     1       3.637   1.816  17.828  0.00  0.00    +0.000 C 
BRANCH  11  13
ATOM     13  N   UNL     1       2.724   3.250  19.614  0.00  0.00    +0.000 N 
ATOM     14  C   UNL     1       2.704   2.773  20.902  0.00  0.00    +0.000 C 
ATOM     15  C   UNL     1       1.398   2.991  21.613  0.00  0.00    +0.000 C 
ATOM     16  O   UNL     1       3.650   2.220  21.435  0.00  0.00    +0.000 OA
ATOM     17  H   UNL     1       1.877   3.626  19.220  0.00  0.00    +0.000 HD
ENDBRANCH  11  13
ENDBRANCH   5  11
TORSDOF 4
ENDMDL
MODEL 2
REMARK VINA RESULT:      -5.9      2.430      5.662
REMARK  Name = 
REMARK  8 active torsions:
REMARK  status: ('A' for Active; 'I' for Inactive)
REMARK    1  A    between atoms: C_1  and  O_2
REMARK    2  A    between atoms: O_2  and  C_3
REMARK    3  A    between atoms: C_6  and  O_7
REMARK    4  A    between atoms: O_7  and  C_8
REMARK    5  A    between atoms: C_9  and  C_10
REMARK    6  A    between atoms: C_10  and  C_11
REMARK    7  A    between atoms: C_10  and  N_12
REMARK    8  A    between atoms: C_13  and  C_14
REMARK                            x       y       z     vdW  Elec       q    Type
REMARK                         _______ _______ _______ _____ _____    ______ ____
ROOT
ATOM      1  C   UNL     1       2.811   3.988  18.364  0.00  0.00    +0.000 A 
ATOM      2  C   UNL     1       3.528   3.547  19.470  0.00  0.00    +0.000 A 
ATOM      3  C   UNL     1       4.918   3.667  19.500  0.00  0.00    +0.000 A 
ATOM      4  C   UNL     1       5.624   4.244  18.436  0.00  0.00    +0.000 A 
ATOM      5  C   UNL     1       4.923   4.703  17.310  0.00  0.00    +0.000 A 
ATOM      6  C   UNL     1       3.511   4.520  17.282  0.00  0.00    +0.000 A 
ENDROOT
BRANCH   1   8
ATOM      7  C   UNL     1       0.908   3.728  19.780  0.00  0.00    +0.000 C 
ATOM      8  O   UNL     1       1.454   3.885  18.475  0.00  0.00    +0.000 OA
ENDBRANCH   1   8
BRANCH   4   9
ATOM      9  O   UNL     1       6.950   4.432  18.720  0.00  0.00    +0.000 OA
ATOM     10  C   UNL     1       7.343   5.615  19.403  0.00  0.00    +0.000 C 
ENDBRANCH   4   9
BRANCH   5  11
ATOM     11  C   UNL     1       5.553   5.467  16.156  0.00  0.00    +0.000 C 
ATOM     12  C   UNL     1       4.826   6.790  15.894  0.00  0.00    +0.000 C 
BRANCH  11  13
ATOM     13  N   UNL     1       5.570   4.635  14.954  0.00  0.00    +0.000 N 
ATOM     14  C   UNL     1       6.621   4.644  14.071  0.00  0.00    +0.000 C 
ATOM     15  C   UNL     1       6.393   3.811  12.841  0.00  0.00    +0.000 C 
ATOM     16  O   UNL     1       7.653   5.267  14.252  0.00  0.00    +0.000 OA
ATOM     17  H   UNL     1       4.720   4.157  14.697  0.00  0.00    +0.000 HD
ENDBRANCH  11  13
ENDBRANCH   5  11
TORSDOF 4
ENDMDL
MODEL 3
REMARK VINA RESULT:      -5.8      1.066      1.137
REMARK  Name = 
REMARK  8 active torsions:
REMARK  status: ('A' for Active; 'I' for Inactive)
REMARK    1  A    between atoms: C_1  and  O_2
REMARK    2  A    between atoms: O_2  and  C_3
REMARK    3  A    between atoms: C_6  and  O_7
REMARK    4  A    between atoms: O_7  and  C_8
REMARK    5  A    between atoms: C_9  and  C_10
REMARK    6  A    between atoms: C_10  and  C_11
REMARK    7  A    between atoms: C_10  and  N_12
REMARK    8  A    between atoms: C_13  and  C_14
REMARK                            x       y       z     vdW  Elec       q    Type
REMARK                         _______ _______ _______ _____ _____    ______ ____
ROOT
ATOM      1  C   UNL     1       5.805   4.511  15.314  0.00  0.00    +0.000 A 
ATOM      2  C   UNL     1       5.672   5.891  15.402  0.00  0.00    +0.000 A 
ATOM      3  C   UNL     1       4.911   6.460  16.424  0.00  0.00    +0.000 A 
ATOM      4  C   UNL     1       4.277   5.667  17.390  0.00  0.00    +0.000 A 
ATOM      5  C   UNL     1       4.401   4.270  17.327  0.00  0.00    +0.000 A 
ATOM      6  C   UNL     1       5.139   3.713  16.243  0.00  0.00    +0.000 A 
ENDROOT
BRANCH   1   8
ATOM      7  C   UNL     1       6.031   3.697  13.083  0.00  0.00    +0.000 C 
ATOM      8  O   UNL     1       6.629   4.071  14.318  0.00  0.00    +0.000 OA
ENDBRANCH   1   8
BRANCH   4   9
ATOM      9  O   UNL     1       3.727   6.405  18.403  0.00  0.00    +0.000 OA
ATOM     10  C   UNL     1       2.693   7.331  18.093  0.00  0.00    +0.000 C 
ENDBRANCH   4   9
BRANCH   5  11
ATOM     11  C   UNL     1       3.880   3.311  18.385  0.00  0.00    +0.000 C 
ATOM     12  C   UNL     1       3.652   1.909  17.812  0.00  0.00    +0.000 C 
BRANCH  11  13
ATOM     13  N   UNL     1       2.650   3.838  18.976  0.00  0.00    +0.000 N 
ATOM     14  C   UNL     1       2.267   3.538  20.260  0.00  0.00    +0.000 C 
ATOM     15  C   UNL     1       0.917   4.080  20.637  0.00  0.00    +0.000 C 
ATOM     16  O   UNL     1       2.948   2.891  21.037  0.00  0.00    +0.000 OA
ATOM     17  H   UNL     1       1.999   4.312  18.370  0.00  0.00    +0.000 HD
ENDBRANCH  11  13
ENDBRANCH   5  11
TORSDOF 4
ENDMDL
MODEL 4
REMARK VINA RESULT:      -5.8      1.344      1.426
REMARK  Name = 
REMARK  8 active torsions:
REMARK  status: ('A' for Active; 'I' for Inactive)
REMARK    1  A    between atoms: C_1  and  O_2
REMARK    2  A    between atoms: O_2  and  C_3
REMARK    3  A    between atoms: C_6  and  O_7
REMARK    4  A    between atoms: O_7  and  C_8
REMARK    5  A    between atoms: C_9  and  C_10
REMARK    6  A    between atoms: C_10  and  C_11
REMARK    7  A    between atoms: C_10  and  N_12
REMARK    8  A    between atoms: C_13  and  C_14
REMARK                            x       y       z     vdW  Elec       q    Type
REMARK                         _______ _______ _______ _____ _____    ______ ____
ROOT
ATOM      1  C   UNL     1       5.774   4.820  15.938  0.00  0.00    +0.000 A 
ATOM      2  C   UNL     1       5.995   6.127  16.354  0.00  0.00    +0.000 A 
ATOM      3  C   UNL     1       5.118   6.736  17.253  0.00  0.00    +0.000 A 
ATOM      4  C   UNL     1       4.011   6.050  17.771  0.00  0.00    +0.000 A 
ATOM      5  C   UNL     1       3.770   4.726  17.371  0.00  0.00    +0.000 A 
ATOM      6  C   UNL     1       4.649   4.147  16.411  0.00  0.00    +0.000 A 
ENDROOT
BRANCH   1   8
ATOM      7  C   UNL     1       6.353   3.978  13.782  0.00  0.00    +0.000 C 
ATOM      8  O   UNL     1       6.734   4.305  15.113  0.00  0.00    +0.000 OA
ENDBRANCH   1   8
BRANCH   4   9
ATOM      9  O   UNL     1       3.374   6.745  18.762  0.00  0.00    +0.000 OA
ATOM     10  C   UNL     1       2.416   7.731  18.402  0.00  0.00    +0.000 C 
ENDBRANCH   4   9
BRANCH   5  11
ATOM     11  C   UNL     1       2.689   3.833  17.959  0.00  0.00    +0.000 C 
ATOM     12  C   UNL     1       1.297   4.226  17.454  0.00  0.00    +0.000 C 
BRANCH  11  13
ATOM     13  N   UNL     1       2.744   3.877  19.420  0.00  0.00    +0.000 N 
ATOM     14  C   UNL     1       2.208   2.885  20.204  0.00  0.00    +0.000 C 
ATOM     15  C   UNL     1       2.261   3.175  21.678  0.00  0.00    +0.000 C 
ATOM     16  O   UNL     1       1.727   1.856  19.761  0.00  0.00    +0.000 OA
ATOM     17  H   UNL     1       3.052   4.731  19.857  0.00  0.00    +0.000 HD
ENDBRANCH  11  13
ENDBRANCH   5  11
TORSDOF 4
ENDMDL
MODEL 5
REMARK VINA RESULT:      -5.7      2.201      5.346
REMARK  Name = 
REMARK  8 active torsions:
REMARK  status: ('A' for Active; 'I' for Inactive)
REMARK    1  A    between atoms: C_1  and  O_2
REMARK    2  A    between atoms: O_2  and  C_3
REMARK    3  A    between atoms: C_6  and  O_7
REMARK    4  A    between atoms: O_7  and  C_8
REMARK    5  A    between atoms: C_9  and  C_10
REMARK    6  A    between atoms: C_10  and  C_11
REMARK    7  A    between atoms: C_10  and  N_12
REMARK    8  A    between atoms: C_13  and  C_14
REMARK                            x       y       z     vdW  Elec       q    Type
REMARK                         _______ _______ _______ _____ _____    ______ ____
ROOT
ATOM      1  C   UNL     1       2.669   7.042  19.009  0.00  0.00    +0.000 A 
ATOM      2  C   UNL     1       2.342   6.045  19.920  0.00  0.00    +0.000 A 
ATOM      3  C   UNL     1       3.118   4.888  20.005  0.00  0.00    +0.000 A 
ATOM      4  C   UNL     1       4.248   4.706  19.194  0.00  0.00    +0.000 A 
ATOM      5  C   UNL     1       4.603   5.702  18.270  0.00  0.00    +0.000 A 
ATOM      6  C   UNL     1       3.763   6.847  18.167  0.00  0.00    +0.000 A 
ENDROOT
BRANCH   1   8
ATOM      7  C   UNL     1       1.792   8.959  17.892  0.00  0.00    +0.000 C 
ATOM      8  O   UNL     1       1.882   8.157  19.064  0.00  0.00    +0.000 OA
ENDBRANCH   1   8
BRANCH   4   9
ATOM      9  O   UNL     1       4.974   3.599  19.541  0.00  0.00    +0.000 OA
ATOM     10  C   UNL     1       4.302   2.355  19.684  0.00  0.00    +0.000 C 
ENDBRANCH   4   9
BRANCH   5  11
ATOM     11  C   UNL     1       5.873   5.687  17.435  0.00  0.00    +0.000 C 
ATOM     12  C   UNL     1       6.450   7.096  17.263  0.00  0.00    +0.000 C 
BRANCH  11  13
ATOM     13  N   UNL     1       5.612   5.069  16.136  0.00  0.00    +0.000 N 
ATOM     14  C   UNL     1       6.615   4.543  15.359  0.00  0.00    +0.000 C 
ATOM     15  C   UNL     1       6.155   4.063  14.011  0.00  0.00    +0.000 C 
ATOM     16  O   UNL     1       7.778   4.465  15.716  0.00  0.00    +0.000 OA
ATOM     17  H   UNL     1       4.690   5.169  15.741  0.00  0.00    +0.000 HD
ENDBRANCH  11  13
ENDBRANCH   5  11
TORSDOF 4
ENDMDL
MODEL 6
REMARK VINA RESULT:      -5.7      2.088      2.997
REMARK  Name = 
REMARK  8 active torsions:
REMARK  status: ('A' for Active; 'I' for Inactive)
REMARK    1  A    between atoms: C_1  and  O_2
REMARK    2  A    between atoms: O_2  and  C_3
REMARK    3  A    between atoms: C_6  and  O_7
REMARK    4  A    between atoms: O_7  and  C_8
REMARK    5  A    between atoms: C_9  and  C_10
REMARK    6  A    between atoms: C_10  and  C_11
REMARK    7  A    between atoms: C_10  and  N_12
REMARK    8  A    between atoms: C_13  and  C_14
REMARK                            x       y       z     vdW  Elec       q    Type
REMARK                         _______ _______ _______ _____ _____    ______ ____
ROOT
ATOM      1  C   UNL     1       6.363   4.771  14.824  0.00  0.00    +0.000 A 
ATOM      2  C   UNL     1       7.498   4.629  15.612  0.00  0.00    +0.000 A 
ATOM      3  C   UNL     1       7.400   4.690  17.003  0.00  0.00    +0.000 A 
ATOM      4  C   UNL     1       6.166   4.878  17.640  0.00  0.00    +0.000 A 
ATOM      5  C   UNL     1       5.003   5.019  16.866  0.00  0.00    +0.000 A 
ATOM      6  C   UNL     1       5.139   5.006  15.448  0.00  0.00    +0.000 A 
ENDROOT
BRANCH   1   8
ATOM      7  C   UNL     1       6.062   3.447  12.862  0.00  0.00    +0.000 C 
ATOM      8  O   UNL     1       6.567   4.624  13.481  0.00  0.00    +0.000 OA
ENDBRANCH   1   8
BRANCH   4   9
ATOM      9  O   UNL     1       6.245   4.737  18.999  0.00  0.00    +0.000 OA
ATOM     10  C   UNL     1       7.237   5.468  19.708  0.00  0.00    +0.000 C 
ENDBRANCH   4   9
BRANCH   5  11
ATOM     11  C   UNL     1       3.595   5.091  17.435  0.00  0.00    +0.000 C 
ATOM     12  C   UNL     1       3.375   6.382  18.229  0.00  0.00    +0.000 C 
BRANCH  11  13
ATOM     13  N   UNL     1       3.330   3.917  18.266  0.00  0.00    +0.000 N 
ATOM     14  C   UNL     1       2.096   3.317  18.314  0.00  0.00    +0.000 C 
ATOM     15  C   UNL     1       1.998   2.201  19.315  0.00  0.00    +0.000 C 
ATOM     16  O   UNL     1       1.154   3.647  17.615  0.00  0.00    +0.000 OA
ATOM     17  H   UNL     1       4.035   3.638  18.929  0.00  0.00    +0.000 HD
ENDBRANCH  11  13
ENDBRANCH   5  11
TORSDOF 4
ENDMDL
MODEL 7
REMARK VINA RESULT:      -5.7      2.744      4.474
REMARK  Name = 
REMARK  8 active torsions:
REMARK  status: ('A' for Active; 'I' for Inactive)
REMARK    1  A    between atoms: C_1  and  O_2
REMARK    2  A    between atoms: O_2  and  C_3
REMARK    3  A    between atoms: C_6  and  O_7
REMARK    4  A    between atoms: O_7  and  C_8
REMARK    5  A    between atoms: C_9  and  C_10
REMARK    6  A    between atoms: C_10  and  C_11
REMARK    7  A    between atoms: C_10  and  N_12
REMARK    8  A    between atoms: C_13  and  C_14
REMARK                            x       y       z     vdW  Elec       q    Type
REMARK                         _______ _______ _______ _____ _____    ______ ____
ROOT
ATOM      1  C   UNL     1       2.584   3.469  17.645  0.00  0.00    +0.000 A 
ATOM      2  C   UNL     1       1.872   4.486  18.268  0.00  0.00    +0.000 A 
ATOM      3  C   UNL     1       2.359   5.794  18.257  0.00  0.00    +0.000 A 
ATOM      4  C   UNL     1       3.560   6.120  17.611  0.00  0.00    +0.000 A 
ATOM      5  C   UNL     1       4.295   5.111  16.969  0.00  0.00    +0.000 A 
ATOM      6  C   UNL     1       3.803   3.776  17.041  0.00  0.00    +0.000 A 
ENDROOT
BRANCH   1   8
ATOM      7  C   UNL     1       1.440   1.789  18.894  0.00  0.00    +0.000 C 
ATOM      8  O   UNL     1       1.978   2.245  17.659  0.00  0.00    +0.000 OA
ENDBRANCH   1   8
BRANCH   4   9
ATOM      9  O   UNL     1       3.783   7.469  17.559  0.00  0.00    +0.000 OA
ATOM     10  C   UNL     1       2.701   8.354  17.819  0.00  0.00    +0.000 C 
ENDBRANCH   4   9
BRANCH   5  11
ATOM     11  C   UNL     1       5.533   5.356  16.122  0.00  0.00    +0.000 C 
ATOM     12  C   UNL     1       6.131   4.043  15.606  0.00  0.00    +0.000 C 
BRANCH  11  13
ATOM     13  N   UNL     1       6.523   6.113  16.888  0.00  0.00    +0.000 N 
ATOM     14  C   UNL     1       7.131   5.600  18.007  0.00  0.00    +0.000 C 
ATOM     15  C   UNL     1       8.025   6.577  18.718  0.00  0.00    +0.000 C 
ATOM     16  O   UNL     1       6.971   4.459  18.404  0.00  0.00    +0.000 OA
ATOM     17  H   UNL     1       6.646   7.088  16.668  0.00  0.00    +0.000 HD
ENDBRANCH  11  13
ENDBRANCH   5  11
TORSDOF 4
ENDMDL
MODEL 8
REMARK VINA RESULT:      -5.7      1.905      2.335
REMARK  Name = 
REMARK  8 active torsions:
REMARK  status: ('A' for Active; 'I' for Inactive)
REMARK    1  A    between atoms: C_1  and  O_2
REMARK    2  A    between atoms: O_2  and  C_3
REMARK    3  A    between atoms: C_6  and  O_7
REMARK    4  A    between atoms: O_7  and  C_8
REMARK    5  A    between atoms: C_9  and  C_10
REMARK    6  A    between atoms: C_10  and  C_11
REMARK    7  A    between atoms: C_10  and  N_12
REMARK    8  A    between atoms: C_13  and  C_14
REMARK                            x       y       z     vdW  Elec       q    Type
REMARK                         _______ _______ _______ _____ _____    ______ ____
ROOT
ATOM      1  C   UNL     1       6.011   4.064  15.307  0.00  0.00    +0.000 A 
ATOM      2  C   UNL     1       7.070   4.835  15.768  0.00  0.00    +0.000 A 
ATOM      3  C   UNL     1       7.142   5.197  17.114  0.00  0.00    +0.000 A 
ATOM      4  C   UNL     1       6.168   4.784  18.034  0.00  0.00    +0.000 A 
ATOM      5  C   UNL     1       5.091   3.998  17.594  0.00  0.00    +0.000 A 
ATOM      6  C   UNL     1       5.013   3.689  16.206  0.00  0.00    +0.000 A 
ENDROOT
BRANCH   1   8
ATOM      7  C   UNL     1       6.941   4.473  13.148  0.00  0.00    +0.000 C 
ATOM      8  O   UNL     1       6.082   3.712  13.989  0.00  0.00    +0.000 OA
ENDBRANCH   1   8
BRANCH   4   9
ATOM      9  O   UNL     1       6.499   5.087  19.327  0.00  0.00    +0.000 OA
ATOM     10  C   UNL     1       7.802   5.585  19.603  0.00  0.00    +0.000 C 
ENDBRANCH   4   9
BRANCH   5  11
ATOM     11  C   UNL     1       4.049   3.376  18.510  0.00  0.00    +0.000 C 
ATOM     12  C   UNL     1       3.176   2.363  17.762  0.00  0.00    +0.000 C 
BRANCH  11  13
ATOM     13  N   UNL     1       3.228   4.422  19.118  0.00  0.00    +0.000 N 
ATOM     14  C   UNL     1       2.602   4.251  20.329  0.00  0.00    +0.000 C 
ATOM     15  C   UNL     1       1.712   5.396  20.723  0.00  0.00    +0.000 C 
ATOM     16  O   UNL     1       2.744   3.266  21.032  0.00  0.00    +0.000 OA
ATOM     17  H   UNL     1       3.000   5.230  18.560  0.00  0.00    +0.000 HD
ENDBRANCH  11  13
ENDBRANCH   5  11
TORSDOF 4
ENDMDL
MODEL 9
REMARK VINA RESULT:      -5.7      2.517      4.699
REMARK  Name = 
REMARK  8 active torsions:
REMARK  status: ('A' for Active; 'I' for Inactive)
REMARK    1  A    between atoms: C_1  and  O_2
REMARK    2  A    between atoms: O_2  and  C_3
REMARK    3  A    between atoms: C_6  and  O_7
REMARK    4  A    between atoms: O_7  and  C_8
REMARK    5  A    between atoms: C_9  and  C_10
REMARK    6  A    between atoms: C_10  and  C_11
REMARK    7  A    between atoms: C_10  and  N_12
REMARK    8  A    between atoms: C_13  and  C_14
REMARK                            x       y       z     vdW  Elec       q    Type
REMARK                         _______ _______ _______ _____ _____    ______ ____
ROOT
ATOM      1  C   UNL     1       3.027   3.708  18.330  0.00  0.00    +0.000 A 
ATOM      2  C   UNL     1       2.302   4.694  18.989  0.00  0.00    +0.000 A 
ATOM      3  C   UNL     1       2.553   6.042  18.730  0.00  0.00    +0.000 A 
ATOM      4  C   UNL     1       3.521   6.439  17.796  0.00  0.00    +0.000 A 
ATOM      5  C   UNL     1       4.262   5.461  17.113  0.00  0.00    +0.000 A 
ATOM      6  C   UNL     1       4.023   4.095  17.435  0.00  0.00    +0.000 A 
ENDROOT
BRANCH   1   8
ATOM      7  C   UNL     1       3.620   1.401  18.452  0.00  0.00    +0.000 C 
ATOM      8  O   UNL     1       2.648   2.427  18.611  0.00  0.00    +0.000 OA
ENDBRANCH   1   8
BRANCH   4   9
ATOM      9  O   UNL     1       3.501   7.785  17.553  0.00  0.00    +0.000 OA
ATOM     10  C   UNL     1       2.353   8.533  17.929  0.00  0.00    +0.000 C 
ENDBRANCH   4   9
BRANCH   5  11
ATOM     11  C   UNL     1       5.237   5.755  15.984  0.00  0.00    +0.000 C 
ATOM     12  C   UNL     1       6.034   4.507  15.590  0.00  0.00    +0.000 C 
BRANCH  11  13
ATOM     13  N   UNL     1       6.134   6.845  16.368  0.00  0.00    +0.000 N 
ATOM     14  C   UNL     1       7.088   6.699  17.345  0.00  0.00    +0.000 C 
ATOM     15  C   UNL     1       7.824   7.968  17.673  0.00  0.00    +0.000 C 
ATOM     16  O   UNL     1       7.329   5.644  17.906  0.00  0.00    +0.000 OA
ATOM     17  H   UNL     1       5.941   7.765  16.006  0.00  0.00    +0.000 HD
ENDBRANCH  11  13
ENDBRANCH   5  11
TORSDOF 4
ENDMDL
