MODEL 1
REMARK VINA RESULT:      -8.2      0.000      0.000
REMARK  Name = 
REMARK  7 active torsions:
REMARK  status: ('A' for Active; 'I' for Inactive)
REMARK    1  A    between atoms: C_6  and  C_7
REMARK    2  A    between atoms: N_11  and  C_12
REMARK    3  A    between atoms: C_12  and  C_13
REMARK    4  A    between atoms: C_13  and  C_14
REMARK    5  A    between atoms: C_14  and  N_15
REMARK    6  A    between atoms: C_18  and  C_19
REMARK    7  A    between atoms: C_19  and  C_20
REMARK                            x       y       z     vdW  Elec       q    Type
REMARK                         _______ _______ _______ _____ _____    ______ ____
ROOT
ATOM      1  C   UNL     1       4.799   3.130  17.510  0.00  0.00    +0.000 C 
ENDROOT
BRANCH   1   2
ATOM      2  C   UNL     1       4.517   4.134  16.388  0.00  0.00    +0.000 C 
BRANCH   2   7
ATOM      3  C   UNL     1       6.799   5.051  15.657  0.00  0.00    +0.000 A 
ATOM      4  N   UNL     1       7.418   5.059  14.486  0.00  0.00    +0.000 NA
ATOM      5  N   UNL     1       6.642   4.352  13.611  0.00  0.00    +0.000 NA
ATOM      6  N   UNL     1       5.550   3.910  14.204  0.00  0.00    +0.000 NA
ATOM      7  N   UNL     1       5.624   4.348  15.477  0.00  0.00    +0.000 N 
BRANCH   3  13
ATOM      8 BR   UNL     1       8.367   9.570  18.098  0.00  0.00    +0.000 Br
ATOM      9  C   UNL     1       8.009   7.712  18.076  0.00  0.00    +0.000 A 
ATOM     10  C   UNL     1       8.251   6.950  19.215  0.00  0.00    +0.000 A 
ATOM     11  C   UNL     1       7.979   5.586  19.193  0.00  0.00    +0.000 A 
ATOM     12  C   UNL     1       7.497   4.990  18.025  0.00  0.00    +0.000 A 
ATOM     13  C   UNL     1       7.278   5.743  16.856  0.00  0.00    +0.000 A 
ATOM     14  C   UNL     1       7.507   7.123  16.912  0.00  0.00    +0.000 A 
ENDBRANCH   3  13
ENDBRANCH   2   7
ENDBRANCH   1   2
BRANCH   1  15
ATOM     15  C   UNL     1       3.629   2.178  17.775  0.00  0.00    +0.000 C 
BRANCH  15  16
ATOM     16  N   UNL     1       2.655   2.657  18.773  0.00  0.00    +0.000 NA
ATOM     17  C   UNL     1       3.286   2.875  20.088  0.00  0.00    +0.000 C 
ATOM     18  C   UNL     1       2.291   3.419  21.111  0.00  0.00    +0.000 C 
ATOM     19  C   UNL     1       1.670   4.743  20.653  0.00  0.00    +0.000 C 
ATOM     20  C   UNL     1       1.027   4.499  19.279  0.00  0.00    +0.000 C 
ATOM     21  C   UNL     1       2.007   3.886  18.272  0.00  0.00    +0.000 C 
BRANCH  19  22
ATOM     22  C   UNL     1       2.680   5.913  20.593  0.00  0.00    +0.000 C 
BRANCH  22  23
ATOM     23  C   UNL     1       2.152   7.198  19.999  0.00  0.00    +0.000 A 
ATOM     24  C   UNL     1       2.373   7.491  18.644  0.00  0.00    +0.000 A 
ATOM     25  C   UNL     1       1.861   8.658  18.076  0.00  0.00    +0.000 A 
ATOM     26  C   UNL     1       1.120   9.546  18.854  0.00  0.00    +0.000 A 
ATOM     27  C   UNL     1       0.898   9.266  20.203  0.00  0.00    +0.000 A 
ATOM     28  C   UNL     1       1.409   8.099  20.771  0.00  0.00    +0.000 A 
ENDBRANCH  22  23
ENDBRANCH  19  22
ENDBRANCH  15  16
ENDBRANCH   1  15
TORSDOF 7
ENDMDL
MODEL 2
REMARK VINA RESULT:      -8.1      3.194      5.514
REMARK  Name = 
REMARK  7 active torsions:
REMARK  status: ('A' for Active; 'I' for Inactive)
REMARK    1  A    between atoms: C_6  and  C_7
REMARK    2  A    between atoms: N_11  and  C_12
REMARK    3  A    between atoms: C_12  and  C_13
REMARK    4  A    between atoms: C_13  and  C_14
REMARK    5  A    between atoms: C_14  and  N_15
REMARK    6  A    between atoms: C_18  and  C_19
REMARK    7  A    between atoms: C_19  and  C_20
REMARK                            x       y       z     vdW  Elec       q    Type
REMARK                         _______ _______ _______ _____ _____    ______ ____
ROOT
ATOM      1  C   UNL     1       2.574   6.311  18.186  0.00  0.00    +0.000 C 
ENDROOT
BRANCH   1   2
ATOM      2  C   UNL     1       2.194   4.827  18.162  0.00  0.00    +0.000 C 
BRANCH   2   7
ATOM      3  C   UNL     1       4.377   3.653  18.824  0.00  0.00    +0.000 A 
ATOM      4  N   UNL     1       4.649   2.734  19.738  0.00  0.00    +0.000 NA
ATOM      5  N   UNL     1       3.500   2.512  20.445  0.00  0.00    +0.000 NA
ATOM      6  N   UNL     1       2.517   3.265  19.990  0.00  0.00    +0.000 NA
ATOM      7  N   UNL     1       3.042   3.972  18.970  0.00  0.00    +0.000 N 
BRANCH   3  13
ATOM      8 BR   UNL     1       6.048   3.884  13.726  0.00  0.00    +0.000 Br
ATOM      9  C   UNL     1       6.193   4.323  15.560  0.00  0.00    +0.000 A 
ATOM     10  C   UNL     1       7.267   5.091  16.003  0.00  0.00    +0.000 A 
ATOM     11  C   UNL     1       7.362   5.416  17.352  0.00  0.00    +0.000 A 
ATOM     12  C   UNL     1       6.403   4.943  18.252  0.00  0.00    +0.000 A 
ATOM     13  C   UNL     1       5.332   4.139  17.824  0.00  0.00    +0.000 A 
ATOM     14  C   UNL     1       5.221   3.867  16.455  0.00  0.00    +0.000 A 
ENDBRANCH   3  13
ENDBRANCH   2   7
ENDBRANCH   1   2
BRANCH   1  15
ATOM     15  C   UNL     1       2.407   6.954  19.566  0.00  0.00    +0.000 C 
BRANCH  15  16
ATOM     16  N   UNL     1       2.055   8.385  19.543  0.00  0.00    +0.000 NA
ATOM     17  C   UNL     1       1.975   8.904  18.165  0.00  0.00    +0.000 C 
ATOM     18  C   UNL     1       1.561  10.373  18.135  0.00  0.00    +0.000 C 
ATOM     19  C   UNL     1       0.204  10.597  18.810  0.00  0.00    +0.000 C 
ATOM     20  C   UNL     1       0.303  10.042  20.240  0.00  0.00    +0.000 C 
ATOM     21  C   UNL     1       0.787   8.587  20.273  0.00  0.00    +0.000 C 
BRANCH  19  22
ATOM     22  C   UNL     1      -0.980   9.956  18.048  0.00  0.00    +0.000 C 
BRANCH  22  23
ATOM     23  C   UNL     1      -2.308  10.661  18.196  0.00  0.00    +0.000 A 
ATOM     24  C   UNL     1      -3.412  10.252  17.432  0.00  0.00    +0.000 A 
ATOM     25  C   UNL     1      -4.653  10.873  17.585  0.00  0.00    +0.000 A 
ATOM     26  C   UNL     1      -4.805  11.909  18.505  0.00  0.00    +0.000 A 
ATOM     27  C   UNL     1      -3.713  12.325  19.267  0.00  0.00    +0.000 A 
ATOM     28  C   UNL     1      -2.473  11.704  19.114  0.00  0.00    +0.000 A 
ENDBRANCH  22  23
ENDBRANCH  19  22
ENDBRANCH  15  16
ENDBRANCH   1  15
TORSDOF 7
ENDMDL
MODEL 3
REMARK VINA RESULT:      -8.1      2.896      5.457
REMARK  Name = 
REMARK  7 active torsions:
REMARK  status: ('A' for Active; 'I' for Inactive)
REMARK    1  A    between atoms: C_6  and  C_7
REMARK    2  A    between atoms: N_11  and  C_12
REMARK    3  A    between atoms: C_12  and  C_13
REMARK    4  A    between atoms: C_13  and  C_14
REMARK    5  A    between atoms: C_14  and  N_15
REMARK    6  A    between atoms: C_18  and  C_19
REMARK    7  A    between atoms: C_19  and  C_20
REMARK                            x       y       z     vdW  Elec       q    Type
REMARK                         _______ _______ _______ _____ _____    ______ ____
ROOT
ATOM      1  C   UNL     1       2.775   6.285  19.981  0.00  0.00    +0.000 C 
ENDROOT
BRANCH   1   2
ATOM      2  C   UNL     1       2.251   4.849  19.886  0.00  0.00    +0.000 C 
BRANCH   2   7
ATOM      3  C   UNL     1       4.419   3.549  19.445  0.00  0.00    +0.000 A 
ATOM      4  N   UNL     1       4.909   2.437  19.969  0.00  0.00    +0.000 NA
ATOM      5  N   UNL     1       4.061   2.051  20.969  0.00  0.00    +0.000 NA
ATOM      6  N   UNL     1       3.050   2.891  21.077  0.00  0.00    +0.000 NA
ATOM      7  N   UNL     1       3.249   3.824  20.124  0.00  0.00    +0.000 N 
BRANCH   3  13
ATOM      8 BR   UNL     1       7.518   7.497  17.533  0.00  0.00    +0.000 Br
ATOM      9  C   UNL     1       6.378   6.003  17.313  0.00  0.00    +0.000 A 
ATOM     10  C   UNL     1       6.032   5.583  16.032  0.00  0.00    +0.000 A 
ATOM     11  C   UNL     1       5.198   4.480  15.879  0.00  0.00    +0.000 A 
ATOM     12  C   UNL     1       4.692   3.827  17.006  0.00  0.00    +0.000 A 
ATOM     13  C   UNL     1       5.007   4.262  18.307  0.00  0.00    +0.000 A 
ATOM     14  C   UNL     1       5.889   5.340  18.443  0.00  0.00    +0.000 A 
ENDBRANCH   3  13
ENDBRANCH   2   7
ENDBRANCH   1   2
BRANCH   1  15
ATOM     15  C   UNL     1       2.483   7.117  18.729  0.00  0.00    +0.000 C 
BRANCH  15  16
ATOM     16  N   UNL     1       2.055   8.503  18.993  0.00  0.00    +0.000 NA
ATOM     17  C   UNL     1       1.311   9.069  17.852  0.00  0.00    +0.000 C 
ATOM     18  C   UNL     1       0.822  10.486  18.140  0.00  0.00    +0.000 C 
ATOM     19  C   UNL     1      -0.085  10.536  19.373  0.00  0.00    +0.000 C 
ATOM     20  C   UNL     1       0.702   9.934  20.549  0.00  0.00    +0.000 C 
ATOM     21  C   UNL     1       1.254   8.538  20.233  0.00  0.00    +0.000 C 
BRANCH  19  22
ATOM     22  C   UNL     1      -1.435   9.807  19.179  0.00  0.00    +0.000 C 
BRANCH  22  23
ATOM     23  C   UNL     1      -2.276  10.290  18.021  0.00  0.00    +0.000 A 
ATOM     24  C   UNL     1      -2.087   9.751  16.739  0.00  0.00    +0.000 A 
ATOM     25  C   UNL     1      -2.881  10.165  15.668  0.00  0.00    +0.000 A 
ATOM     26  C   UNL     1      -3.874  11.123  15.866  0.00  0.00    +0.000 A 
ATOM     27  C   UNL     1      -4.067  11.668  17.136  0.00  0.00    +0.000 A 
ATOM     28  C   UNL     1      -3.274  11.254  18.206  0.00  0.00    +0.000 A 
ENDBRANCH  22  23
ENDBRANCH  19  22
ENDBRANCH  15  16
ENDBRANCH   1  15
TORSDOF 7
ENDMDL
MODEL 4
REMARK VINA RESULT:      -8.0      3.955      7.965
REMARK  Name = 
REMARK  7 active torsions:
REMARK  status: ('A' for Active; 'I' for Inactive)
REMARK    1  A    between atoms: C_6  and  C_7
REMARK    2  A    between atoms: N_11  and  C_12
REMARK    3  A    between atoms: C_12  and  C_13
REMARK    4  A    between atoms: C_13  and  C_14
REMARK    5  A    between atoms: C_14  and  N_15
REMARK    6  A    between atoms: C_18  and  C_19
REMARK    7  A    between atoms: C_19  and  C_20
REMARK                            x       y       z     vdW  Elec       q    Type
REMARK                         _______ _______ _______ _____ _____    ______ ____
ROOT
ATOM      1  C   UNL     1       2.107   5.870  19.615  0.00  0.00    +0.000 C 
ENDROOT
BRANCH   1   2
ATOM      2  C   UNL     1       2.261   7.264  20.231  0.00  0.00    +0.000 C 
BRANCH   2   7
ATOM      3  C   UNL     1       1.090   9.445  19.559  0.00  0.00    +0.000 A 
ATOM      4  N   UNL     1       0.996  10.082  18.401  0.00  0.00    +0.000 NA
ATOM      5  N   UNL     1       1.770   9.405  17.501  0.00  0.00    +0.000 NA
ATOM      6  N   UNL     1       2.338   8.357  18.066  0.00  0.00    +0.000 NA
ATOM      7  N   UNL     1       1.913   8.358  19.345  0.00  0.00    +0.000 N 
BRANCH   3  13
ATOM      8 BR   UNL     1      -2.378  12.670  22.092  0.00  0.00    +0.000 Br
ATOM      9  C   UNL     1      -1.179  11.208  22.039  0.00  0.00    +0.000 A 
ATOM     10  C   UNL     1      -0.921  10.484  23.199  0.00  0.00    +0.000 A 
ATOM     11  C   UNL     1      -0.044   9.406  23.150  0.00  0.00    +0.000 A 
ATOM     12  C   UNL     1       0.593   9.080  21.950  0.00  0.00    +0.000 A 
ATOM     13  C   UNL     1       0.367   9.823  20.777  0.00  0.00    +0.000 A 
ATOM     14  C   UNL     1      -0.559  10.871  20.831  0.00  0.00    +0.000 A 
ENDBRANCH   3  13
ENDBRANCH   2   7
ENDBRANCH   1   2
BRANCH   1  15
ATOM     15  C   UNL     1       3.421   5.087  19.558  0.00  0.00    +0.000 C 
BRANCH  15  16
ATOM     16  N   UNL     1       4.510   5.759  18.825  0.00  0.00    +0.000 NA
ATOM     17  C   UNL     1       5.800   5.071  19.018  0.00  0.00    +0.000 C 
ATOM     18  C   UNL     1       6.922   5.734  18.221  0.00  0.00    +0.000 C 
ATOM     19  C   UNL     1       6.614   5.760  16.720  0.00  0.00    +0.000 C 
ATOM     20  C   UNL     1       5.263   6.471  16.539  0.00  0.00    +0.000 C 
ATOM     21  C   UNL     1       4.153   5.849  17.395  0.00  0.00    +0.000 C 
BRANCH  19  22
ATOM     22  C   UNL     1       6.595   4.359  16.067  0.00  0.00    +0.000 C 
BRANCH  22  23
ATOM     23  C   UNL     1       6.777   4.337  14.568  0.00  0.00    +0.000 A 
ATOM     24  C   UNL     1       6.025   3.453  13.778  0.00  0.00    +0.000 A 
ATOM     25  C   UNL     1       6.160   3.448  12.389  0.00  0.00    +0.000 A 
ATOM     26  C   UNL     1       7.048   4.327  11.772  0.00  0.00    +0.000 A 
ATOM     27  C   UNL     1       7.803   5.207  12.547  0.00  0.00    +0.000 A 
ATOM     28  C   UNL     1       7.667   5.213  13.935  0.00  0.00    +0.000 A 
ENDBRANCH  22  23
ENDBRANCH  19  22
ENDBRANCH  15  16
ENDBRANCH   1  15
TORSDOF 7
ENDMDL
MODEL 5
REMARK VINA RESULT:      -8.0      3.018      5.268
REMARK  Name = 
REMARK  7 active torsions:
REMARK  status: ('A' for Active; 'I' for Inactive)
REMARK    1  A    between atoms: C_6  and  C_7
REMARK    2  A    between atoms: N_11  and  C_12
REMARK    3  A    between atoms: C_12  and  C_13
REMARK    4  A    between atoms: C_13  and  C_14
REMARK    5  A    between atoms: C_14  and  N_15
REMARK    6  A    between atoms: C_18  and  C_19
REMARK    7  A    between atoms: C_19  and  C_20
REMARK                            x       y       z     vdW  Elec       q    Type
REMARK                         _______ _______ _______ _____ _____    ______ ____
ROOT
ATOM      1  C   UNL     1       1.805   5.362  18.461  0.00  0.00    +0.000 C 
ENDROOT
BRANCH   1   2
ATOM      2  C   UNL     1       1.975   3.849  18.623  0.00  0.00    +0.000 C 
BRANCH   2   7
ATOM      3  C   UNL     1       4.533   3.657  18.697  0.00  0.00    +0.000 A 
ATOM      4  N   UNL     1       5.349   2.971  19.482  0.00  0.00    +0.000 NA
ATOM      5  N   UNL     1       4.581   2.362  20.434  0.00  0.00    +0.000 NA
ATOM      6  N   UNL     1       3.304   2.645  20.258  0.00  0.00    +0.000 NA
ATOM      7  N   UNL     1       3.255   3.440  19.171  0.00  0.00    +0.000 N 
BRANCH   3  13
ATOM      8 BR   UNL     1       5.841   3.802  13.490  0.00  0.00    +0.000 Br
ATOM      9  C   UNL     1       5.571   4.618  15.175  0.00  0.00    +0.000 A 
ATOM     10  C   UNL     1       5.827   5.977  15.332  0.00  0.00    +0.000 A 
ATOM     11  C   UNL     1       5.620   6.571  16.573  0.00  0.00    +0.000 A 
ATOM     12  C   UNL     1       5.188   5.797  17.653  0.00  0.00    +0.000 A 
ATOM     13  C   UNL     1       4.957   4.416  17.516  0.00  0.00    +0.000 A 
ATOM     14  C   UNL     1       5.119   3.845  16.249  0.00  0.00    +0.000 A 
ENDBRANCH   3  13
ENDBRANCH   2   7
ENDBRANCH   1   2
BRANCH   1  15
ATOM     15  C   UNL     1       2.317   6.159  19.664  0.00  0.00    +0.000 C 
BRANCH  15  16
ATOM     16  N   UNL     1       2.238   7.624  19.514  0.00  0.00    +0.000 NA
ATOM     17  C   UNL     1       2.271   8.029  18.097  0.00  0.00    +0.000 C 
ATOM     18  C   UNL     1       2.139   9.542  17.936  0.00  0.00    +0.000 C 
ATOM     19  C   UNL     1       0.841  10.069  18.553  0.00  0.00    +0.000 C 
ATOM     20  C   UNL     1       0.819   9.630  20.026  0.00  0.00    +0.000 C 
ATOM     21  C   UNL     1       1.023   8.119  20.192  0.00  0.00    +0.000 C 
BRANCH  19  22
ATOM     22  C   UNL     1      -0.434   9.596  17.816  0.00  0.00    +0.000 C 
BRANCH  22  23
ATOM     23  C   UNL     1      -1.699  10.350  18.152  0.00  0.00    +0.000 A 
ATOM     24  C   UNL     1      -1.645  11.487  18.973  0.00  0.00    +0.000 A 
ATOM     25  C   UNL     1      -2.801  12.213  19.262  0.00  0.00    +0.000 A 
ATOM     26  C   UNL     1      -4.027  11.811  18.733  0.00  0.00    +0.000 A 
ATOM     27  C   UNL     1      -4.092  10.679  17.919  0.00  0.00    +0.000 A 
ATOM     28  C   UNL     1      -2.936   9.955  17.629  0.00  0.00    +0.000 A 
ENDBRANCH  22  23
ENDBRANCH  19  22
ENDBRANCH  15  16
ENDBRANCH   1  15
TORSDOF 7
ENDMDL
MODEL 6
REMARK VINA RESULT:      -7.9      2.959      5.342
REMARK  Name = 
REMARK  7 active torsions:
REMARK  status: ('A' for Active; 'I' for Inactive)
REMARK    1  A    between atoms: C_6  and  C_7
REMARK    2  A    between atoms: N_11  and  C_12
REMARK    3  A    between atoms: C_12  and  C_13
REMARK    4  A    between atoms: C_13  and  C_14
REMARK    5  A    between atoms: C_14  and  N_15
REMARK    6  A    between atoms: C_18  and  C_19
REMARK    7  A    between atoms: C_19  and  C_20
REMARK                            x       y       z     vdW  Elec       q    Type
REMARK                         _______ _______ _______ _____ _____    ______ ____
ROOT
ATOM      1  C   UNL     1       2.068   6.080  19.173  0.00  0.00    +0.000 C 
ENDROOT
BRANCH   1   2
ATOM      2  C   UNL     1       1.781   4.973  18.153  0.00  0.00    +0.000 C 
BRANCH   2   7
ATOM      3  C   UNL     1       3.631   3.208  18.356  0.00  0.00    +0.000 A 
ATOM      4  N   UNL     1       3.602   1.925  18.684  0.00  0.00    +0.000 NA
ATOM      5  N   UNL     1       2.316   1.624  19.035  0.00  0.00    +0.000 NA
ATOM      6  N   UNL     1       1.540   2.686  18.927  0.00  0.00    +0.000 NA
ATOM      7  N   UNL     1       2.341   3.679  18.491  0.00  0.00    +0.000 N 
BRANCH   3  13
ATOM      8 BR   UNL     1       6.813   4.705  14.297  0.00  0.00    +0.000 Br
ATOM      9  C   UNL     1       6.340   4.657  16.128  0.00  0.00    +0.000 A 
ATOM     10  C   UNL     1       7.165   5.266  17.070  0.00  0.00    +0.000 A 
ATOM     11  C   UNL     1       6.807   5.232  18.414  0.00  0.00    +0.000 A 
ATOM     12  C   UNL     1       5.645   4.563  18.808  0.00  0.00    +0.000 A 
ATOM     13  C   UNL     1       4.820   3.915  17.871  0.00  0.00    +0.000 A 
ATOM     14  C   UNL     1       5.166   4.005  16.518  0.00  0.00    +0.000 A 
ENDBRANCH   3  13
ENDBRANCH   2   7
ENDBRANCH   1   2
BRANCH   1  15
ATOM     15  C   UNL     1       2.828   7.267  18.576  0.00  0.00    +0.000 C 
BRANCH  15  16
ATOM     16  N   UNL     1       2.293   8.592  18.940  0.00  0.00    +0.000 NA
ATOM     17  C   UNL     1       1.545   9.202  17.825  0.00  0.00    +0.000 C 
ATOM     18  C   UNL     1       0.947  10.551  18.215  0.00  0.00    +0.000 C 
ATOM     19  C   UNL     1       0.001  10.430  19.414  0.00  0.00    +0.000 C 
ATOM     20  C   UNL     1       0.794   9.784  20.562  0.00  0.00    +0.000 C 
ATOM     21  C   UNL     1       1.455   8.463  20.149  0.00  0.00    +0.000 C 
BRANCH  19  22
ATOM     22  C   UNL     1      -1.286   9.628  19.110  0.00  0.00    +0.000 C 
BRANCH  22  23
ATOM     23  C   UNL     1      -2.150  10.180  18.001  0.00  0.00    +0.000 A 
ATOM     24  C   UNL     1      -2.013   9.693  16.691  0.00  0.00    +0.000 A 
ATOM     25  C   UNL     1      -2.828  10.171  15.665  0.00  0.00    +0.000 A 
ATOM     26  C   UNL     1      -3.793  11.141  15.934  0.00  0.00    +0.000 A 
ATOM     27  C   UNL     1      -3.935  11.634  17.232  0.00  0.00    +0.000 A 
ATOM     28  C   UNL     1      -3.120  11.156  18.258  0.00  0.00    +0.000 A 
ENDBRANCH  22  23
ENDBRANCH  19  22
ENDBRANCH  15  16
ENDBRANCH   1  15
TORSDOF 7
ENDMDL
MODEL 7
REMARK VINA RESULT:      -7.8      2.977      5.487
REMARK  Name = 
REMARK  7 active torsions:
REMARK  status: ('A' for Active; 'I' for Inactive)
REMARK    1  A    between atoms: C_6  and  C_7
REMARK    2  A    between atoms: N_11  and  C_12
REMARK    3  A    between atoms: C_12  and  C_13
REMARK    4  A    between atoms: C_13  and  C_14
REMARK    5  A    between atoms: C_14  and  N_15
REMARK    6  A    between atoms: C_18  and  C_19
REMARK    7  A    between atoms: C_19  and  C_20
REMARK                            x       y       z     vdW  Elec       q    Type
REMARK                         _______ _______ _______ _____ _____    ______ ____
ROOT
ATOM      1  C   UNL     1       2.606   6.974  18.574  0.00  0.00    +0.000 C 
ENDROOT
BRANCH   1   2
ATOM      2  C   UNL     1       1.956   5.630  18.230  0.00  0.00    +0.000 C 
BRANCH   2   7
ATOM      3  C   UNL     1       3.893   3.980  18.557  0.00  0.00    +0.000 A 
ATOM      4  N   UNL     1       3.981   2.832  19.213  0.00  0.00    +0.000 NA
ATOM      5  N   UNL     1       2.791   2.641  19.857  0.00  0.00    +0.000 NA
ATOM      6  N   UNL     1       1.960   3.637  19.613  0.00  0.00    +0.000 NA
ATOM      7  N   UNL     1       2.626   4.473  18.793  0.00  0.00    +0.000 N 
BRANCH   3  13
ATOM      8 BR   UNL     1       7.753   7.606  17.669  0.00  0.00    +0.000 Br
ATOM      9  C   UNL     1       6.713   6.107  17.169  0.00  0.00    +0.000 A 
ATOM     10  C   UNL     1       6.903   5.520  15.921  0.00  0.00    +0.000 A 
ATOM     11  C   UNL     1       6.138   4.414  15.564  0.00  0.00    +0.000 A 
ATOM     12  C   UNL     1       5.169   3.924  16.444  0.00  0.00    +0.000 A 
ATOM     13  C   UNL     1       4.945   4.527  17.695  0.00  0.00    +0.000 A 
ATOM     14  C   UNL     1       5.759   5.605  18.060  0.00  0.00    +0.000 A 
ENDBRANCH   3  13
ENDBRANCH   2   7
ENDBRANCH   1   2
BRANCH   1  15
ATOM     15  C   UNL     1       2.151   7.536  19.923  0.00  0.00    +0.000 C 
BRANCH  15  16
ATOM     16  N   UNL     1       1.625   8.912  19.875  0.00  0.00    +0.000 NA
ATOM     17  C   UNL     1       1.126   9.257  18.531  0.00  0.00    +0.000 C 
ATOM     18  C   UNL     1       0.533  10.664  18.489  0.00  0.00    +0.000 C 
ATOM     19  C   UNL     1      -0.621  10.826  19.483  0.00  0.00    +0.000 C 
ATOM     20  C   UNL     1      -0.085  10.453  20.875  0.00  0.00    +0.000 C 
ATOM     21  C   UNL     1       0.574   9.069  20.900  0.00  0.00    +0.000 C 
BRANCH  19  22
ATOM     22  C   UNL     1      -1.869   9.984  19.127  0.00  0.00    +0.000 C 
BRANCH  22  23
ATOM     23  C   UNL     1      -2.541  10.339  17.821  0.00  0.00    +0.000 A 
ATOM     24  C   UNL     1      -2.119   9.739  16.625  0.00  0.00    +0.000 A 
ATOM     25  C   UNL     1      -2.755  10.032  15.418  0.00  0.00    +0.000 A 
ATOM     26  C   UNL     1      -3.823  10.928  15.392  0.00  0.00    +0.000 A 
ATOM     27  C   UNL     1      -4.248  11.533  16.576  0.00  0.00    +0.000 A 
ATOM     28  C   UNL     1      -3.613  11.239  17.782  0.00  0.00    +0.000 A 
ENDBRANCH  22  23
ENDBRANCH  19  22
ENDBRANCH  15  16
ENDBRANCH   1  15
TORSDOF 7
ENDMDL
MODEL 8
REMARK VINA RESULT:      -7.8      3.360      7.053
REMARK  Name = 
REMARK  7 active torsions:
REMARK  status: ('A' for Active; 'I' for Inactive)
REMARK    1  A    between atoms: C_6  and  C_7
REMARK    2  A    between atoms: N_11  and  C_12
REMARK    3  A    between atoms: C_12  and  C_13
REMARK    4  A    between atoms: C_13  and  C_14
REMARK    5  A    between atoms: C_14  and  N_15
REMARK    6  A    between atoms: C_18  and  C_19
REMARK    7  A    between atoms: C_19  and  C_20
REMARK                            x       y       z     vdW  Elec       q    Type
REMARK                         _______ _______ _______ _____ _____    ______ ____
ROOT
ATOM      1  C   UNL     1       1.959   5.702  20.920  0.00  0.00    +0.000 C 
ENDROOT
BRANCH   1   2
ATOM      2  C   UNL     1       1.494   7.118  20.566  0.00  0.00    +0.000 C 
BRANCH   2   7
ATOM      3  C   UNL     1       1.692   8.740  18.588  0.00  0.00    +0.000 A 
ATOM      4  N   UNL     1       2.480   8.750  17.523  0.00  0.00    +0.000 NA
ATOM      5  N   UNL     1       3.353   7.707  17.655  0.00  0.00    +0.000 NA
ATOM      6  N   UNL     1       3.125   7.042  18.772  0.00  0.00    +0.000 NA
ATOM      7  N   UNL     1       2.084   7.664  19.359  0.00  0.00    +0.000 N 
BRANCH   3  13
ATOM      8 BR   UNL     1      -2.836  11.062  16.871  0.00  0.00    +0.000 Br
ATOM      9  C   UNL     1      -1.470  10.793  18.152  0.00  0.00    +0.000 A 
ATOM     10  C   UNL     1      -1.474  11.533  19.331  0.00  0.00    +0.000 A 
ATOM     11  C   UNL     1      -0.470  11.324  20.271  0.00  0.00    +0.000 A 
ATOM     12  C   UNL     1       0.547  10.402  20.011  0.00  0.00    +0.000 A 
ATOM     13  C   UNL     1       0.582   9.671  18.810  0.00  0.00    +0.000 A 
ATOM     14  C   UNL     1      -0.465   9.854  17.899  0.00  0.00    +0.000 A 
ENDBRANCH   3  13
ENDBRANCH   2   7
ENDBRANCH   1   2
BRANCH   1  15
ATOM     15  C   UNL     1       1.040   4.609  20.368  0.00  0.00    +0.000 C 
BRANCH  15  16
ATOM     16  N   UNL     1       1.693   3.654  19.454  0.00  0.00    +0.000 NA
ATOM     17  C   UNL     1       1.800   4.197  18.087  0.00  0.00    +0.000 C 
ATOM     18  C   UNL     1       2.521   3.231  17.149  0.00  0.00    +0.000 C 
ATOM     19  C   UNL     1       3.933   2.903  17.644  0.00  0.00    +0.000 C 
ATOM     20  C   UNL     1       3.803   2.349  19.072  0.00  0.00    +0.000 C 
ATOM     21  C   UNL     1       3.016   3.287  19.997  0.00  0.00    +0.000 C 
BRANCH  19  22
ATOM     22  C   UNL     1       4.900   4.109  17.604  0.00  0.00    +0.000 C 
BRANCH  22  23
ATOM     23  C   UNL     1       5.617   4.326  16.292  0.00  0.00    +0.000 A 
ATOM     24  C   UNL     1       6.850   4.994  16.264  0.00  0.00    +0.000 A 
ATOM     25  C   UNL     1       7.538   5.170  15.063  0.00  0.00    +0.000 A 
ATOM     26  C   UNL     1       7.002   4.678  13.874  0.00  0.00    +0.000 A 
ATOM     27  C   UNL     1       5.775   4.014  13.890  0.00  0.00    +0.000 A 
ATOM     28  C   UNL     1       5.088   3.839  15.091  0.00  0.00    +0.000 A 
ENDBRANCH  22  23
ENDBRANCH  19  22
ENDBRANCH  15  16
ENDBRANCH   1  15
TORSDOF 7
ENDMDL
MODEL 9
REMARK VINA RESULT:      -7.8      5.152      8.821
REMARK  Name = 
REMARK  7 active torsions:
REMARK  status: ('A' for Active; 'I' for Inactive)
REMARK    1  A    between atoms: C_6  and  C_7
REMARK    2  A    between atoms: N_11  and  C_12
REMARK    3  A    between atoms: C_12  and  C_13
REMARK    4  A    between atoms: C_13  and  C_14
REMARK    5  A    between atoms: C_14  and  N_15
REMARK    6  A    between atoms: C_18  and  C_19
REMARK    7  A    between atoms: C_19  and  C_20
REMARK                            x       y       z     vdW  Elec       q    Type
REMARK                         _______ _______ _______ _____ _____    ______ ____
ROOT
ATOM      1  C   UNL     1       0.783   8.465  21.305  0.00  0.00    +0.000 C 
ENDROOT
BRANCH   1   2
ATOM      2  C   UNL     1       0.752   9.498  20.174  0.00  0.00    +0.000 C 
BRANCH   2   7
ATOM      3  C   UNL     1      -0.781  11.550  20.023  0.00  0.00    +0.000 A 
ATOM      4  N   UNL     1      -0.760  12.721  20.641  0.00  0.00    +0.000 NA
ATOM      5  N   UNL     1       0.253  12.678  21.558  0.00  0.00    +0.000 NA
ATOM      6  N   UNL     1       0.870  11.512  21.521  0.00  0.00    +0.000 NA
ATOM      7  N   UNL     1       0.248  10.802  20.560  0.00  0.00    +0.000 N 
BRANCH   3  13
ATOM      8 BR   UNL     1      -5.566  12.030  17.633  0.00  0.00    +0.000 Br
ATOM      9  C   UNL     1      -3.812  11.332  17.750  0.00  0.00    +0.000 A 
ATOM     10  C   UNL     1      -3.370  10.415  16.800  0.00  0.00    +0.000 A 
ATOM     11  C   UNL     1      -2.076   9.912  16.889  0.00  0.00    +0.000 A 
ATOM     12  C   UNL     1      -1.247  10.303  17.943  0.00  0.00    +0.000 A 
ATOM     13  C   UNL     1      -1.692  11.203  18.928  0.00  0.00    +0.000 A 
ATOM     14  C   UNL     1      -2.977  11.741  18.794  0.00  0.00    +0.000 A 
ENDBRANCH   3  13
ENDBRANCH   2   7
ENDBRANCH   1   2
BRANCH   1  15
ATOM     15  C   UNL     1       1.894   7.424  21.140  0.00  0.00    +0.000 C 
BRANCH  15  16
ATOM     16  N   UNL     1       1.647   6.416  20.093  0.00  0.00    +0.000 NA
ATOM     17  C   UNL     1       2.580   6.568  18.961  0.00  0.00    +0.000 C 
ATOM     18  C   UNL     1       2.361   5.494  17.897  0.00  0.00    +0.000 C 
ATOM     19  C   UNL     1       2.530   4.084  18.469  0.00  0.00    +0.000 C 
ATOM     20  C   UNL     1       1.559   3.946  19.653  0.00  0.00    +0.000 C 
ATOM     21  C   UNL     1       1.731   5.066  20.686  0.00  0.00    +0.000 C 
BRANCH  19  22
ATOM     22  C   UNL     1       3.980   3.760  18.902  0.00  0.00    +0.000 C 
BRANCH  22  23
ATOM     23  C   UNL     1       5.049   4.076  17.883  0.00  0.00    +0.000 A 
ATOM     24  C   UNL     1       6.220   4.743  18.274  0.00  0.00    +0.000 A 
ATOM     25  C   UNL     1       7.231   5.010  17.349  0.00  0.00    +0.000 A 
ATOM     26  C   UNL     1       7.083   4.612  16.021  0.00  0.00    +0.000 A 
ATOM     27  C   UNL     1       5.921   3.952  15.621  0.00  0.00    +0.000 A 
ATOM     28  C   UNL     1       4.912   3.684  16.546  0.00  0.00    +0.000 A 
ENDBRANCH  22  23
ENDBRANCH  19  22
ENDBRANCH  15  16
ENDBRANCH   1  15
TORSDOF 7
ENDMDL
