MODEL 1
REMARK VINA RESULT:      -8.0      0.000      0.000
REMARK  Name = 
REMARK  6 active torsions:
REMARK  status: ('A' for Active; 'I' for Inactive)
REMARK    1  A    between atoms: C_2  and  C_5
REMARK    2  A    between atoms: C_9  and  C_10
REMARK    3  A    between atoms: C_10  and  O_11
REMARK    4  A    between atoms: O_11  and  C_12
REMARK    5  A    between atoms: C_12  and  C_13
REMARK    6  A    between atoms: C_13  and  C_14
REMARK                            x       y       z     vdW  Elec       q    Type
REMARK                         _______ _______ _______ _____ _____    ______ ____
ROOT
ATOM      1  C   UNL     1       4.468   6.360  17.087  0.00  0.00    +0.000 C 
ENDROOT
BRANCH   1   2
ATOM      2  C   UNL     1       4.795   4.985  17.744  0.00  0.00    +0.000 C 
ATOM      3  C   UNL     1       5.963   5.119  18.765  0.00  0.00    +0.000 C 
ATOM      4  C   UNL     1       7.305   5.436  18.109  0.00  0.00    +0.000 C 
ATOM      5  N   UNL     1       7.673   4.435  17.111  0.00  0.00    +0.000 NA
ATOM      6  C   UNL     1       6.657   4.330  16.071  0.00  0.00    +0.000 C 
ATOM      7  C   UNL     1       5.273   3.997  16.637  0.00  0.00    +0.000 C 
ATOM      8  H   UNL     1       7.773   3.530  17.574  0.00  0.00    +0.000 HD
BRANCH   2   9
ATOM      9  C   UNL     1       3.498   4.485  18.437  0.00  0.00    +0.000 A 
ATOM     10  C   UNL     1       2.325   4.201  17.714  0.00  0.00    +0.000 A 
ATOM     11  C   UNL     1       1.148   3.805  18.360  0.00  0.00    +0.000 A 
ATOM     12  C   UNL     1       1.111   3.690  19.745  0.00  0.00    +0.000 A 
ATOM     13  C   UNL     1       2.252   3.975  20.487  0.00  0.00    +0.000 A 
ATOM     14  C   UNL     1       3.425   4.372  19.840  0.00  0.00    +0.000 A 
ENDBRANCH   2   9
ENDBRANCH   1   2
BRANCH   1  15
ATOM     15  O   UNL     1       3.980   7.283  18.064  0.00  0.00    +0.000 OA
BRANCH  15  16
ATOM     16  C   UNL     1       2.853   8.016  17.593  0.00  0.00    +0.000 C 
BRANCH  16  21
ATOM     17  C   UNL     1       0.242   9.787  19.768  0.00  0.00    +0.000 A 
ATOM     18  C   UNL     1       0.347   9.047  20.954  0.00  0.00    +0.000 A 
ATOM     19  C   UNL     1       1.252   7.988  21.049  0.00  0.00    +0.000 A 
ATOM     20  C   UNL     1       2.055   7.653  19.958  0.00  0.00    +0.000 A 
ATOM     21  C   UNL     1       1.955   8.362  18.754  0.00  0.00    +0.000 A 
ATOM     22  C   UNL     1       1.054   9.436  18.677  0.00  0.00    +0.000 A 
BRANCH  17  24
ATOM     23  F   UNL     1      -0.164  12.055  19.082  0.00  0.00    +0.000 F 
ATOM     24  C   UNL     1      -0.717  10.944  19.648  0.00  0.00    +0.000 C 
ATOM     25  F   UNL     1      -1.208  11.349  20.853  0.00  0.00    +0.000 F 
ATOM     26  F   UNL     1      -1.805  10.646  18.884  0.00  0.00    +0.000 F 
ENDBRANCH  17  24
ENDBRANCH  16  21
ENDBRANCH  15  16
ENDBRANCH   1  15
TORSDOF 6
ENDMDL
MODEL 2
REMARK VINA RESULT:      -7.9      0.340      1.144
REMARK  Name = 
REMARK  6 active torsions:
REMARK  status: ('A' for Active; 'I' for Inactive)
REMARK    1  A    between atoms: C_2  and  C_5
REMARK    2  A    between atoms: C_9  and  C_10
REMARK    3  A    between atoms: C_10  and  O_11
REMARK    4  A    between atoms: O_11  and  C_12
REMARK    5  A    between atoms: C_12  and  C_13
REMARK    6  A    between atoms: C_13  and  C_14
REMARK                            x       y       z     vdW  Elec       q    Type
REMARK                         _______ _______ _______ _____ _____    ______ ____
ROOT
ATOM      1  C   UNL     1       4.498   6.417  17.110  0.00  0.00    +0.000 C 
ENDROOT
BRANCH   1   2
ATOM      2  C   UNL     1       4.789   5.050  17.800  0.00  0.00    +0.000 C 
ATOM      3  C   UNL     1       5.950   5.181  18.829  0.00  0.00    +0.000 C 
ATOM      4  C   UNL     1       7.305   5.455  18.180  0.00  0.00    +0.000 C 
ATOM      5  N   UNL     1       7.660   4.424  17.209  0.00  0.00    +0.000 NA
ATOM      6  C   UNL     1       6.652   4.319  16.161  0.00  0.00    +0.000 C 
ATOM      7  C   UNL     1       5.256   4.028  16.720  0.00  0.00    +0.000 C 
ATOM      8  H   UNL     1       7.735   3.528  17.692  0.00  0.00    +0.000 HD
BRANCH   2   9
ATOM      9  C   UNL     1       3.475   4.594  18.491  0.00  0.00    +0.000 A 
ATOM     10  C   UNL     1       3.362   4.494  19.890  0.00  0.00    +0.000 A 
ATOM     11  C   UNL     1       2.189   4.027  20.494  0.00  0.00    +0.000 A 
ATOM     12  C   UNL     1       1.102   3.641  19.717  0.00  0.00    +0.000 A 
ATOM     13  C   UNL     1       1.190   3.718  18.332  0.00  0.00    +0.000 A 
ATOM     14  C   UNL     1       2.362   4.182  17.730  0.00  0.00    +0.000 A 
ENDBRANCH   2   9
ENDBRANCH   1   2
BRANCH   1  15
ATOM     15  O   UNL     1       3.964   7.353  18.049  0.00  0.00    +0.000 OA
BRANCH  15  16
ATOM     16  C   UNL     1       2.802   8.008  17.550  0.00  0.00    +0.000 C 
BRANCH  16  21
ATOM     17  C   UNL     1       0.352  10.032  19.692  0.00  0.00    +0.000 A 
ATOM     18  C   UNL     1       0.392   9.304  20.890  0.00  0.00    +0.000 A 
ATOM     19  C   UNL     1       1.202   8.174  21.003  0.00  0.00    +0.000 A 
ATOM     20  C   UNL     1       1.974   7.753  19.920  0.00  0.00    +0.000 A 
ATOM     21  C   UNL     1       1.936   8.449  18.704  0.00  0.00    +0.000 A 
ATOM     22  C   UNL     1       1.131   9.595  18.608  0.00  0.00    +0.000 A 
BRANCH  17  24
ATOM     23  F   UNL     1      -1.086  11.389  18.325  0.00  0.00    +0.000 F 
ATOM     24  C   UNL     1      -0.504  11.266  19.552  0.00  0.00    +0.000 C 
ATOM     25  F   UNL     1       0.197  12.418  19.747  0.00  0.00    +0.000 F 
ATOM     26  F   UNL     1      -1.528  11.297  20.450  0.00  0.00    +0.000 F 
ENDBRANCH  17  24
ENDBRANCH  16  21
ENDBRANCH  15  16
ENDBRANCH   1  15
TORSDOF 6
ENDMDL
MODEL 3
REMARK VINA RESULT:      -7.9      3.765      5.532
REMARK  Name = 
REMARK  6 active torsions:
REMARK  status: ('A' for Active; 'I' for Inactive)
REMARK    1  A    between atoms: C_2  and  C_5
REMARK    2  A    between atoms: C_9  and  C_10
REMARK    3  A    between atoms: C_10  and  O_11
REMARK    4  A    between atoms: O_11  and  C_12
REMARK    5  A    between atoms: C_12  and  C_13
REMARK    6  A    between atoms: C_13  and  C_14
REMARK                            x       y       z     vdW  Elec       q    Type
REMARK                         _______ _______ _______ _____ _____    ______ ____
ROOT
ATOM      1  C   UNL     1       5.461   6.894  17.023  0.00  0.00    +0.000 C 
ENDROOT
BRANCH   1   2
ATOM      2  C   UNL     1       6.280   5.568  17.014  0.00  0.00    +0.000 C 
ATOM      3  C   UNL     1       5.651   4.519  17.977  0.00  0.00    +0.000 C 
ATOM      4  C   UNL     1       5.770   4.904  19.451  0.00  0.00    +0.000 C 
ATOM      5  N   UNL     1       7.158   5.124  19.845  0.00  0.00    +0.000 NA
ATOM      6  C   UNL     1       7.776   6.168  19.037  0.00  0.00    +0.000 C 
ATOM      7  C   UNL     1       7.719   5.858  17.539  0.00  0.00    +0.000 C 
ATOM      8  H   UNL     1       7.678   4.253  19.721  0.00  0.00    +0.000 HD
BRANCH   2   9
ATOM      9  C   UNL     1       6.297   5.047  15.551  0.00  0.00    +0.000 A 
ATOM     10  C   UNL     1       5.291   4.203  15.046  0.00  0.00    +0.000 A 
ATOM     11  C   UNL     1       5.350   3.697  13.742  0.00  0.00    +0.000 A 
ATOM     12  C   UNL     1       6.420   4.015  12.913  0.00  0.00    +0.000 A 
ATOM     13  C   UNL     1       7.435   4.837  13.389  0.00  0.00    +0.000 A 
ATOM     14  C   UNL     1       7.375   5.340  14.691  0.00  0.00    +0.000 A 
ENDBRANCH   2   9
ENDBRANCH   1   2
BRANCH   1  15
ATOM     15  O   UNL     1       4.088   6.642  16.716  0.00  0.00    +0.000 OA
BRANCH  15  16
ATOM     16  C   UNL     1       3.207   7.306  17.617  0.00  0.00    +0.000 C 
BRANCH  16  21
ATOM     17  C   UNL     1       1.782   4.048  19.045  0.00  0.00    +0.000 A 
ATOM     18  C   UNL     1       1.433   4.462  20.339  0.00  0.00    +0.000 A 
ATOM     19  C   UNL     1       1.656   5.779  20.743  0.00  0.00    +0.000 A 
ATOM     20  C   UNL     1       2.236   6.693  19.864  0.00  0.00    +0.000 A 
ATOM     21  C   UNL     1       2.614   6.301  18.574  0.00  0.00    +0.000 A 
ATOM     22  C   UNL     1       2.369   4.978  18.172  0.00  0.00    +0.000 A 
BRANCH  17  24
ATOM     23  F   UNL     1       0.215   2.322  18.458  0.00  0.00    +0.000 F 
ATOM     24  C   UNL     1       1.536   2.634  18.582  0.00  0.00    +0.000 C 
ATOM     25  F   UNL     1       2.059   1.703  19.429  0.00  0.00    +0.000 F 
ATOM     26  F   UNL     1       2.089   2.380  17.362  0.00  0.00    +0.000 F 
ENDBRANCH  17  24
ENDBRANCH  16  21
ENDBRANCH  15  16
ENDBRANCH   1  15
TORSDOF 6
ENDMDL
MODEL 4
REMARK VINA RESULT:      -7.8      1.479      2.096
REMARK  Name = 
REMARK  6 active torsions:
REMARK  status: ('A' for Active; 'I' for Inactive)
REMARK    1  A    between atoms: C_2  and  C_5
REMARK    2  A    between atoms: C_9  and  C_10
REMARK    3  A    between atoms: C_10  and  O_11
REMARK    4  A    between atoms: O_11  and  C_12
REMARK    5  A    between atoms: C_12  and  C_13
REMARK    6  A    between atoms: C_13  and  C_14
REMARK                            x       y       z     vdW  Elec       q    Type
REMARK                         _______ _______ _______ _____ _____    ______ ____
ROOT
ATOM      1  C   UNL     1       3.610   5.993  17.464  0.00  0.00    +0.000 C 
ENDROOT
BRANCH   1   2
ATOM      2  C   UNL     1       4.140   4.708  18.169  0.00  0.00    +0.000 C 
ATOM      3  C   UNL     1       5.348   5.039  19.094  0.00  0.00    +0.000 C 
ATOM      4  C   UNL     1       6.598   5.466  18.327  0.00  0.00    +0.000 C 
ATOM      5  N   UNL     1       7.016   4.453  17.362  0.00  0.00    +0.000 NA
ATOM      6  C   UNL     1       5.953   4.167  16.405  0.00  0.00    +0.000 C 
ATOM      7  C   UNL     1       4.659   3.714  17.086  0.00  0.00    +0.000 C 
ATOM      8  H   UNL     1       7.252   3.596  17.864  0.00  0.00    +0.000 HD
BRANCH   2   9
ATOM      9  C   UNL     1       2.960   4.107  18.981  0.00  0.00    +0.000 A 
ATOM     10  C   UNL     1       1.919   3.388  18.365  0.00  0.00    +0.000 A 
ATOM     11  C   UNL     1       0.834   2.901  19.103  0.00  0.00    +0.000 A 
ATOM     12  C   UNL     1       0.757   3.127  20.473  0.00  0.00    +0.000 A 
ATOM     13  C   UNL     1       1.765   3.844  21.106  0.00  0.00    +0.000 A 
ATOM     14  C   UNL     1       2.847   4.331  20.367  0.00  0.00    +0.000 A 
ENDBRANCH   2   9
ENDBRANCH   1   2
BRANCH   1  15
ATOM     15  O   UNL     1       2.963   6.854  18.403  0.00  0.00    +0.000 OA
BRANCH  15  16
ATOM     16  C   UNL     1       2.872   8.194  17.927  0.00  0.00    +0.000 C 
BRANCH  16  21
ATOM     17  C   UNL     1       0.371   9.386  20.574  0.00  0.00    +0.000 A 
ATOM     18  C   UNL     1      -0.530  10.104  19.775  0.00  0.00    +0.000 A 
ATOM     19  C   UNL     1      -0.332  10.199  18.397  0.00  0.00    +0.000 A 
ATOM     20  C   UNL     1       0.773   9.588  17.804  0.00  0.00    +0.000 A 
ATOM     21  C   UNL     1       1.701   8.883  18.582  0.00  0.00    +0.000 A 
ATOM     22  C   UNL     1       1.481   8.778  19.964  0.00  0.00    +0.000 A 
BRANCH  17  24
ATOM     23  F   UNL     1      -0.855   8.422  22.403  0.00  0.00    +0.000 F 
ATOM     24  C   UNL     1       0.168   9.256  22.063  0.00  0.00    +0.000 C 
ATOM     25  F   UNL     1      -0.110  10.448  22.662  0.00  0.00    +0.000 F 
ATOM     26  F   UNL     1       1.269   8.767  22.700  0.00  0.00    +0.000 F 
ENDBRANCH  17  24
ENDBRANCH  16  21
ENDBRANCH  15  16
ENDBRANCH   1  15
TORSDOF 6
ENDMDL
MODEL 5
REMARK VINA RESULT:      -7.8      2.050      3.973
REMARK  Name = 
REMARK  6 active torsions:
REMARK  status: ('A' for Active; 'I' for Inactive)
REMARK    1  A    between atoms: C_2  and  C_5
REMARK    2  A    between atoms: C_9  and  C_10
REMARK    3  A    between atoms: C_10  and  O_11
REMARK    4  A    between atoms: O_11  and  C_12
REMARK    5  A    between atoms: C_12  and  C_13
REMARK    6  A    between atoms: C_13  and  C_14
REMARK                            x       y       z     vdW  Elec       q    Type
REMARK                         _______ _______ _______ _____ _____    ______ ____
ROOT
ATOM      1  C   UNL     1       3.225   5.472  19.118  0.00  0.00    +0.000 C 
ENDROOT
BRANCH   1   2
ATOM      2  C   UNL     1       3.598   4.103  18.476  0.00  0.00    +0.000 C 
ATOM      3  C   UNL     1       2.398   3.520  17.671  0.00  0.00    +0.000 C 
ATOM      4  C   UNL     1       1.226   3.098  18.555  0.00  0.00    +0.000 C 
ATOM      5  N   UNL     1       1.629   2.121  19.562  0.00  0.00    +0.000 NA
ATOM      6  C   UNL     1       2.690   2.647  20.412  0.00  0.00    +0.000 C 
ATOM      7  C   UNL     1       3.919   3.083  19.610  0.00  0.00    +0.000 C 
ATOM      8  H   UNL     1       1.964   1.280  19.090  0.00  0.00    +0.000 HD
BRANCH   2   9
ATOM      9  C   UNL     1       4.826   4.343  17.556  0.00  0.00    +0.000 A 
ATOM     10  C   UNL     1       4.742   4.242  16.155  0.00  0.00    +0.000 A 
ATOM     11  C   UNL     1       5.871   4.407  15.344  0.00  0.00    +0.000 A 
ATOM     12  C   UNL     1       7.113   4.669  15.911  0.00  0.00    +0.000 A 
ATOM     13  C   UNL     1       7.228   4.763  17.293  0.00  0.00    +0.000 A 
ATOM     14  C   UNL     1       6.101   4.596  18.102  0.00  0.00    +0.000 A 
ENDBRANCH   2   9
ENDBRANCH   1   2
BRANCH   1  15
ATOM     15  O   UNL     1       2.478   6.275  18.199  0.00  0.00    +0.000 OA
BRANCH  15  16
ATOM     16  C   UNL     1       2.929   7.626  18.180  0.00  0.00    +0.000 C 
BRANCH  16  21
ATOM     17  C   UNL     1       0.478   9.334  20.581  0.00  0.00    +0.000 A 
ATOM     18  C   UNL     1      -0.236  10.146  19.689  0.00  0.00    +0.000 A 
ATOM     19  C   UNL     1       0.071  10.141  18.328  0.00  0.00    +0.000 A 
ATOM     20  C   UNL     1       1.099   9.331  17.845  0.00  0.00    +0.000 A 
ATOM     21  C   UNL     1       1.843   8.526  18.717  0.00  0.00    +0.000 A 
ATOM     22  C   UNL     1       1.513   8.527  20.082  0.00  0.00    +0.000 A 
BRANCH  17  24
ATOM     23  F   UNL     1      -0.271  10.515  22.536  0.00  0.00    +0.000 F 
ATOM     24  C   UNL     1       0.154   9.312  22.054  0.00  0.00    +0.000 C 
ATOM     25  F   UNL     1       1.222   8.961  22.823  0.00  0.00    +0.000 F 
ATOM     26  F   UNL     1      -0.834   8.425  22.359  0.00  0.00    +0.000 F 
ENDBRANCH  17  24
ENDBRANCH  16  21
ENDBRANCH  15  16
ENDBRANCH   1  15
TORSDOF 6
ENDMDL
MODEL 6
REMARK VINA RESULT:      -7.8      1.299      2.151
REMARK  Name = 
REMARK  6 active torsions:
REMARK  status: ('A' for Active; 'I' for Inactive)
REMARK    1  A    between atoms: C_2  and  C_5
REMARK    2  A    between atoms: C_9  and  C_10
REMARK    3  A    between atoms: C_10  and  O_11
REMARK    4  A    between atoms: O_11  and  C_12
REMARK    5  A    between atoms: C_12  and  C_13
REMARK    6  A    between atoms: C_13  and  C_14
REMARK                            x       y       z     vdW  Elec       q    Type
REMARK                         _______ _______ _______ _____ _____    ______ ____
ROOT
ATOM      1  C   UNL     1       4.495   6.508  17.294  0.00  0.00    +0.000 C 
ENDROOT
BRANCH   1   2
ATOM      2  C   UNL     1       4.753   5.141  17.996  0.00  0.00    +0.000 C 
ATOM      3  C   UNL     1       5.911   5.257  19.032  0.00  0.00    +0.000 C 
ATOM      4  C   UNL     1       7.275   5.496  18.388  0.00  0.00    +0.000 C 
ATOM      5  N   UNL     1       7.614   4.451  17.427  0.00  0.00    +0.000 NA
ATOM      6  C   UNL     1       6.610   4.359  16.374  0.00  0.00    +0.000 C 
ATOM      7  C   UNL     1       5.206   4.101  16.927  0.00  0.00    +0.000 C 
ATOM      8  H   UNL     1       7.668   3.557  17.917  0.00  0.00    +0.000 HD
BRANCH   2   9
ATOM      9  C   UNL     1       3.426   4.717  18.683  0.00  0.00    +0.000 A 
ATOM     10  C   UNL     1       3.201   4.912  20.058  0.00  0.00    +0.000 A 
ATOM     11  C   UNL     1       2.022   4.474  20.672  0.00  0.00    +0.000 A 
ATOM     12  C   UNL     1       1.042   3.823  19.930  0.00  0.00    +0.000 A 
ATOM     13  C   UNL     1       1.243   3.607  18.572  0.00  0.00    +0.000 A 
ATOM     14  C   UNL     1       2.421   4.043  17.961  0.00  0.00    +0.000 A 
ENDBRANCH   2   9
ENDBRANCH   1   2
BRANCH   1  15
ATOM     15  O   UNL     1       3.756   7.384  18.150  0.00  0.00    +0.000 OA
BRANCH  15  16
ATOM     16  C   UNL     1       2.611   7.927  17.499  0.00  0.00    +0.000 C 
BRANCH  16  21
ATOM     17  C   UNL     1       0.725   9.535  20.421  0.00  0.00    +0.000 A 
ATOM     18  C   UNL     1       0.694  10.874  20.005  0.00  0.00    +0.000 A 
ATOM     19  C   UNL     1       1.275  11.251  18.794  0.00  0.00    +0.000 A 
ATOM     20  C   UNL     1       1.901  10.298  17.990  0.00  0.00    +0.000 A 
ATOM     21  C   UNL     1       1.965   8.957  18.392  0.00  0.00    +0.000 A 
ATOM     22  C   UNL     1       1.361   8.587  19.604  0.00  0.00    +0.000 A 
BRANCH  17  24
ATOM     23  F   UNL     1       0.992   8.834  22.705  0.00  0.00    +0.000 F 
ATOM     24  C   UNL     1       0.090   9.102  21.719  0.00  0.00    +0.000 C 
ATOM     25  F   UNL     1      -0.660   7.972  21.586  0.00  0.00    +0.000 F 
ATOM     26  F   UNL     1      -0.747  10.047  22.233  0.00  0.00    +0.000 F 
ENDBRANCH  17  24
ENDBRANCH  16  21
ENDBRANCH  15  16
ENDBRANCH   1  15
TORSDOF 6
ENDMDL
MODEL 7
REMARK VINA RESULT:      -7.7      2.161      4.180
REMARK  Name = 
REMARK  6 active torsions:
REMARK  status: ('A' for Active; 'I' for Inactive)
REMARK    1  A    between atoms: C_2  and  C_5
REMARK    2  A    between atoms: C_9  and  C_10
REMARK    3  A    between atoms: C_10  and  O_11
REMARK    4  A    between atoms: O_11  and  C_12
REMARK    5  A    between atoms: C_12  and  C_13
REMARK    6  A    between atoms: C_13  and  C_14
REMARK                            x       y       z     vdW  Elec       q    Type
REMARK                         _______ _______ _______ _____ _____    ______ ____
ROOT
ATOM      1  C   UNL     1       2.188   5.691  18.200  0.00  0.00    +0.000 C 
ENDROOT
BRANCH   1   2
ATOM      2  C   UNL     1       2.886   4.359  18.605  0.00  0.00    +0.000 C 
ATOM      3  C   UNL     1       2.053   3.129  18.137  0.00  0.00    +0.000 C 
ATOM      4  C   UNL     1       0.726   2.980  18.879  0.00  0.00    +0.000 C 
ATOM      5  N   UNL     1       0.919   2.888  20.324  0.00  0.00    +0.000 NA
ATOM      6  C   UNL     1       1.613   4.062  20.838  0.00  0.00    +0.000 C 
ATOM      7  C   UNL     1       2.968   4.283  20.160  0.00  0.00    +0.000 C 
ATOM      8  H   UNL     1       1.472   2.055  20.530  0.00  0.00    +0.000 HD
BRANCH   2   9
ATOM      9  C   UNL     1       4.297   4.361  17.956  0.00  0.00    +0.000 A 
ATOM     10  C   UNL     1       5.455   4.686  18.685  0.00  0.00    +0.000 A 
ATOM     11  C   UNL     1       6.712   4.738  18.072  0.00  0.00    +0.000 A 
ATOM     12  C   UNL     1       6.843   4.474  16.713  0.00  0.00    +0.000 A 
ATOM     13  C   UNL     1       5.714   4.161  15.965  0.00  0.00    +0.000 A 
ATOM     14  C   UNL     1       4.460   4.112  16.578  0.00  0.00    +0.000 A 
ENDBRANCH   2   9
ENDBRANCH   1   2
BRANCH   1  15
ATOM     15  O   UNL     1       2.815   6.805  18.841  0.00  0.00    +0.000 OA
BRANCH  15  16
ATOM     16  C   UNL     1       2.647   8.012  18.102  0.00  0.00    +0.000 C 
BRANCH  16  21
ATOM     17  C   UNL     1       0.288   9.539  20.707  0.00  0.00    +0.000 A 
ATOM     18  C   UNL     1      -0.527  10.331  19.886  0.00  0.00    +0.000 A 
ATOM     19  C   UNL     1      -0.316  10.370  18.507  0.00  0.00    +0.000 A 
ATOM     20  C   UNL     1       0.715   9.625  17.935  0.00  0.00    +0.000 A 
ATOM     21  C   UNL     1       1.558   8.842  18.734  0.00  0.00    +0.000 A 
ATOM     22  C   UNL     1       1.325   8.797  20.118  0.00  0.00    +0.000 A 
BRANCH  17  24
ATOM     23  F   UNL     1      -0.891   8.575  22.567  0.00  0.00    +0.000 F 
ATOM     24  C   UNL     1       0.069   9.470  22.198  0.00  0.00    +0.000 C 
ATOM     25  F   UNL     1      -0.314  10.665  22.730  0.00  0.00    +0.000 F 
ATOM     26  F   UNL     1       1.193   9.103  22.875  0.00  0.00    +0.000 F 
ENDBRANCH  17  24
ENDBRANCH  16  21
ENDBRANCH  15  16
ENDBRANCH   1  15
TORSDOF 6
ENDMDL
MODEL 8
REMARK VINA RESULT:      -7.7      0.839      1.563
REMARK  Name = 
REMARK  6 active torsions:
REMARK  status: ('A' for Active; 'I' for Inactive)
REMARK    1  A    between atoms: C_2  and  C_5
REMARK    2  A    between atoms: C_9  and  C_10
REMARK    3  A    between atoms: C_10  and  O_11
REMARK    4  A    between atoms: O_11  and  C_12
REMARK    5  A    between atoms: C_12  and  C_13
REMARK    6  A    between atoms: C_13  and  C_14
REMARK                            x       y       z     vdW  Elec       q    Type
REMARK                         _______ _______ _______ _____ _____    ______ ____
ROOT
ATOM      1  C   UNL     1       4.156   6.362  17.458  0.00  0.00    +0.000 C 
ENDROOT
BRANCH   1   2
ATOM      2  C   UNL     1       4.462   4.978  18.106  0.00  0.00    +0.000 C 
ATOM      3  C   UNL     1       5.657   5.080  19.099  0.00  0.00    +0.000 C 
ATOM      4  C   UNL     1       6.991   5.362  18.411  0.00  0.00    +0.000 C 
ATOM      5  N   UNL     1       7.308   4.353  17.405  0.00  0.00    +0.000 NA
ATOM      6  C   UNL     1       6.265   4.277  16.389  0.00  0.00    +0.000 C 
ATOM      7  C   UNL     1       4.888   3.979  16.987  0.00  0.00    +0.000 C 
ATOM      8  H   UNL     1       7.395   3.445  17.864  0.00  0.00    +0.000 HD
BRANCH   2   9
ATOM      9  C   UNL     1       3.169   4.512  18.829  0.00  0.00    +0.000 A 
ATOM     10  C   UNL     1       2.957   4.739  20.202  0.00  0.00    +0.000 A 
ATOM     11  C   UNL     1       1.812   4.263  20.851  0.00  0.00    +0.000 A 
ATOM     12  C   UNL     1       0.854   3.542  20.148  0.00  0.00    +0.000 A 
ATOM     13  C   UNL     1       1.042   3.292  18.793  0.00  0.00    +0.000 A 
ATOM     14  C   UNL     1       2.187   3.766  18.147  0.00  0.00    +0.000 A 
ENDBRANCH   2   9
ENDBRANCH   1   2
BRANCH   1  15
ATOM     15  O   UNL     1       3.393   7.180  18.349  0.00  0.00    +0.000 OA
BRANCH  15  16
ATOM     16  C   UNL     1       2.738   8.246  17.670  0.00  0.00    +0.000 C 
BRANCH  16  21
ATOM     17  C   UNL     1      -0.332  10.220  18.837  0.00  0.00    +0.000 A 
ATOM     18  C   UNL     1      -0.338   9.906  20.204  0.00  0.00    +0.000 A 
ATOM     19  C   UNL     1       0.640   9.068  20.741  0.00  0.00    +0.000 A 
ATOM     20  C   UNL     1       1.628   8.527  19.918  0.00  0.00    +0.000 A 
ATOM     21  C   UNL     1       1.644   8.806  18.545  0.00  0.00    +0.000 A 
ATOM     22  C   UNL     1       0.666   9.666  18.020  0.00  0.00    +0.000 A 
BRANCH  17  24
ATOM     23  F   UNL     1      -2.476  11.291  19.019  0.00  0.00    +0.000 F 
ATOM     24  C   UNL     1      -1.369  11.137  18.239  0.00  0.00    +0.000 C 
ATOM     25  F   UNL     1      -1.825  10.698  17.031  0.00  0.00    +0.000 F 
ATOM     26  F   UNL     1      -0.894  12.395  18.023  0.00  0.00    +0.000 F 
ENDBRANCH  17  24
ENDBRANCH  16  21
ENDBRANCH  15  16
ENDBRANCH   1  15
TORSDOF 6
ENDMDL
MODEL 9
REMARK VINA RESULT:      -7.7      3.792      5.820
REMARK  Name = 
REMARK  6 active torsions:
REMARK  status: ('A' for Active; 'I' for Inactive)
REMARK    1  A    between atoms: C_2  and  C_5
REMARK    2  A    between atoms: C_9  and  C_10
REMARK    3  A    between atoms: C_10  and  O_11
REMARK    4  A    between atoms: O_11  and  C_12
REMARK    5  A    between atoms: C_12  and  C_13
REMARK    6  A    between atoms: C_13  and  C_14
REMARK                            x       y       z     vdW  Elec       q    Type
REMARK                         _______ _______ _______ _____ _____    ______ ____
ROOT
ATOM      1  C   UNL     1       5.038   6.376  16.221  0.00  0.00    +0.000 C 
ENDROOT
BRANCH   1   2
ATOM      2  C   UNL     1       6.245   5.391  16.273  0.00  0.00    +0.000 C 
ATOM      3  C   UNL     1       5.951   4.200  17.232  0.00  0.00    +0.000 C 
ATOM      4  C   UNL     1       5.871   4.613  18.701  0.00  0.00    +0.000 C 
ATOM      5  N   UNL     1       7.093   5.277  19.145  0.00  0.00    +0.000 NA
ATOM      6  C   UNL     1       7.371   6.461  18.341  0.00  0.00    +0.000 C 
ATOM      7  C   UNL     1       7.485   6.139  16.848  0.00  0.00    +0.000 C 
ATOM      8  H   UNL     1       7.873   4.624  19.061  0.00  0.00    +0.000 HD
BRANCH   2   9
ATOM      9  C   UNL     1       6.497   4.894  14.823  0.00  0.00    +0.000 A 
ATOM     10  C   UNL     1       7.536   5.409  14.026  0.00  0.00    +0.000 A 
ATOM     11  C   UNL     1       7.714   4.991  12.702  0.00  0.00    +0.000 A 
ATOM     12  C   UNL     1       6.856   4.054  12.139  0.00  0.00    +0.000 A 
ATOM     13  C   UNL     1       5.813   3.536  12.899  0.00  0.00    +0.000 A 
ATOM     14  C   UNL     1       5.635   3.956  14.219  0.00  0.00    +0.000 A 
ENDBRANCH   2   9
ENDBRANCH   1   2
BRANCH   1  15
ATOM     15  O   UNL     1       4.687   6.813  17.537  0.00  0.00    +0.000 OA
BRANCH  15  16
ATOM     16  C   UNL     1       3.298   7.109  17.649  0.00  0.00    +0.000 C 
BRANCH  16  21
ATOM     17  C   UNL     1       1.748   3.911  19.082  0.00  0.00    +0.000 A 
ATOM     18  C   UNL     1       1.370   4.354  20.357  0.00  0.00    +0.000 A 
ATOM     19  C   UNL     1       1.614   5.671  20.748  0.00  0.00    +0.000 A 
ATOM     20  C   UNL     1       2.244   6.557  19.874  0.00  0.00    +0.000 A 
ATOM     21  C   UNL     1       2.651   6.135  18.602  0.00  0.00    +0.000 A 
ATOM     22  C   UNL     1       2.385   4.812  18.213  0.00  0.00    +0.000 A 
BRANCH  17  24
ATOM     23  F   UNL     1       1.951   1.552  19.496  0.00  0.00    +0.000 F 
ATOM     24  C   UNL     1       1.481   2.496  18.632  0.00  0.00    +0.000 C 
ATOM     25  F   UNL     1       2.049   2.211  17.427  0.00  0.00    +0.000 F 
ATOM     26  F   UNL     1       0.152   2.234  18.489  0.00  0.00    +0.000 F 
ENDBRANCH  17  24
ENDBRANCH  16  21
ENDBRANCH  15  16
ENDBRANCH   1  15
TORSDOF 6
ENDMDL
