MODEL 1
REMARK VINA RESULT:      -8.6      0.000      0.000
REMARK  Name = 
REMARK  7 active torsions:
REMARK  status: ('A' for Active; 'I' for Inactive)
REMARK    1  A    between atoms: C_1  and  C_2
REMARK    2  A    between atoms: C_5  and  C_6
REMARK    3  A    between atoms: C_9  and  C_10
REMARK    4  A    between atoms: C_15  and  S_16
REMARK    5  A    between atoms: S_16  and  N_19
REMARK    6  A    between atoms: N_19  and  C_20
REMARK    7  A    between atoms: C_20  and  C_21
REMARK                            x       y       z     vdW  Elec       q    Type
REMARK                         _______ _______ _______ _____ _____    ______ ____
ROOT
ATOM      1  C   UNL     1       6.706   5.676  16.143  0.00  0.00    +0.000 A 
ATOM      2  C   UNL     1       7.391   5.543  14.906  0.00  0.00    +0.000 A 
ATOM      3  C   UNL     1       6.977   4.651  13.912  0.00  0.00    +0.000 A 
ATOM      4  C   UNL     1       5.869   3.847  14.126  0.00  0.00    +0.000 A 
ATOM      5  C   UNL     1       5.173   3.944  15.327  0.00  0.00    +0.000 A 
ATOM      6  C   UNL     1       5.575   4.852  16.332  0.00  0.00    +0.000 A 
ENDROOT
BRANCH   1  10
ATOM      7  C   UNL     1       8.064   8.308  18.129  0.00  0.00    +0.000 A 
ATOM      8  N   UNL     1       8.381   7.261  18.902  0.00  0.00    +0.000 NA
ATOM      9  O   UNL     1       7.870   6.179  18.216  0.00  0.00    +0.000 OA
ATOM     10  C   UNL     1       7.275   6.648  17.088  0.00  0.00    +0.000 A 
ATOM     11  N   UNL     1       7.363   7.960  16.990  0.00  0.00    +0.000 NA
BRANCH   7  16
ATOM     12  C   UNL     1      10.546  13.456  18.785  0.00  0.00    +0.000 C 
ATOM     13  C   UNL     1       9.789  12.165  18.706  0.00  0.00    +0.000 A 
ATOM     14  C   UNL     1      10.052  11.133  19.610  0.00  0.00    +0.000 A 
ATOM     15  C   UNL     1       9.436   9.892  19.455  0.00  0.00    +0.000 A 
ATOM     16  C   UNL     1       8.543   9.659  18.397  0.00  0.00    +0.000 A 
ATOM     17  C   UNL     1       8.202  10.725  17.557  0.00  0.00    +0.000 A 
ATOM     18  C   UNL     1       8.818  11.972  17.715  0.00  0.00    +0.000 A 
ENDBRANCH   7  16
ENDBRANCH   1  10
BRANCH   6  19
ATOM     19  S   UNL     1       4.499   4.941  17.755  0.00  0.00    +0.000 S 
ATOM     20  O   UNL     1       5.131   4.205  18.826  0.00  0.00    +0.000 OA
ATOM     21  O   UNL     1       4.116   6.325  17.950  0.00  0.00    +0.000 OA
BRANCH  19  22
ATOM     22  N   UNL     1       3.117   4.108  17.276  0.00  0.00    +0.000 NA
ATOM     23  H   UNL     1       3.292   3.106  17.183  0.00  0.00    +0.000 HD
BRANCH  22  24
ATOM     24  C   UNL     1       1.863   4.504  17.917  0.00  0.00    +0.000 C 
BRANCH  24  25
ATOM     25  C   UNL     1       1.810   3.975  19.320  0.00  0.00    +0.000 A 
ATOM     26  C   UNL     1       1.898   4.656  20.520  0.00  0.00    +0.000 A 
ATOM     27  C   UNL     1       1.936   3.778  21.645  0.00  0.00    +0.000 A 
ATOM     28  C   UNL     1       1.839   2.457  21.272  0.00  0.00    +0.000 A 
ATOM     29  S   UNL     1       1.694   2.279  19.580  0.00  0.00    +0.000 S 
ENDBRANCH  24  25
ENDBRANCH  22  24
ENDBRANCH  19  22
ENDBRANCH   6  19
TORSDOF 6
ENDMDL
MODEL 2
REMARK VINA RESULT:      -8.3      4.187      7.265
REMARK  Name = 
REMARK  7 active torsions:
REMARK  status: ('A' for Active; 'I' for Inactive)
REMARK    1  A    between atoms: C_1  and  C_2
REMARK    2  A    between atoms: C_5  and  C_6
REMARK    3  A    between atoms: C_9  and  C_10
REMARK    4  A    between atoms: C_15  and  S_16
REMARK    5  A    between atoms: S_16  and  N_19
REMARK    6  A    between atoms: N_19  and  C_20
REMARK    7  A    between atoms: C_20  and  C_21
REMARK                            x       y       z     vdW  Elec       q    Type
REMARK                         _______ _______ _______ _____ _____    ______ ____
ROOT
ATOM      1  C   UNL     1       2.771   4.730  18.456  0.00  0.00    +0.000 A 
ATOM      2  C   UNL     1       1.663   3.843  18.442  0.00  0.00    +0.000 A 
ATOM      3  C   UNL     1       1.788   2.491  18.108  0.00  0.00    +0.000 A 
ATOM      4  C   UNL     1       3.029   1.979  17.761  0.00  0.00    +0.000 A 
ATOM      5  C   UNL     1       4.139   2.819  17.758  0.00  0.00    +0.000 A 
ATOM      6  C   UNL     1       4.025   4.183  18.106  0.00  0.00    +0.000 A 
ENDROOT
BRANCH   1  10
ATOM      7  C   UNL     1       1.844   7.957  19.655  0.00  0.00    +0.000 A 
ATOM      8  N   UNL     1       2.218   8.283  18.411  0.00  0.00    +0.000 NA
ATOM      9  O   UNL     1       2.621   7.082  17.864  0.00  0.00    +0.000 OA
ATOM     10  C   UNL     1       2.471   6.124  18.815  0.00  0.00    +0.000 A 
ATOM     11  N   UNL     1       1.997   6.616  19.944  0.00  0.00    +0.000 NA
BRANCH   7  16
ATOM     12  C   UNL     1      -1.320  11.345  23.064  0.00  0.00    +0.000 C 
ATOM     13  C   UNL     1      -0.377  10.551  22.211  0.00  0.00    +0.000 A 
ATOM     14  C   UNL     1      -0.199  10.872  20.863  0.00  0.00    +0.000 A 
ATOM     15  C   UNL     1       0.581  10.056  20.045  0.00  0.00    +0.000 A 
ATOM     16  C   UNL     1       1.202   8.907  20.558  0.00  0.00    +0.000 A 
ATOM     17  C   UNL     1       1.108   8.646  21.930  0.00  0.00    +0.000 A 
ATOM     18  C   UNL     1       0.328   9.467  22.751  0.00  0.00    +0.000 A 
ENDBRANCH   7  16
ENDBRANCH   1  10
BRANCH   6  19
ATOM     19  S   UNL     1       5.565   5.085  18.176  0.00  0.00    +0.000 S 
ATOM     20  O   UNL     1       5.295   6.440  17.755  0.00  0.00    +0.000 OA
ATOM     21  O   UNL     1       6.182   4.832  19.462  0.00  0.00    +0.000 OA
BRANCH  19  22
ATOM     22  N   UNL     1       6.527   4.343  17.011  0.00  0.00    +0.000 NA
ATOM     23  H   UNL     1       6.139   3.446  16.714  0.00  0.00    +0.000 HD
BRANCH  22  24
ATOM     24  C   UNL     1       7.065   5.211  15.963  0.00  0.00    +0.000 C 
BRANCH  24  25
ATOM     25  C   UNL     1       6.678   4.689  14.610  0.00  0.00    +0.000 A 
ATOM     26  C   UNL     1       5.567   3.958  14.235  0.00  0.00    +0.000 A 
ATOM     27  C   UNL     1       5.624   3.536  12.873  0.00  0.00    +0.000 A 
ATOM     28  C   UNL     1       6.759   3.988  12.240  0.00  0.00    +0.000 A 
ATOM     29  S   UNL     1       7.741   4.921  13.279  0.00  0.00    +0.000 S 
ENDBRANCH  24  25
ENDBRANCH  22  24
ENDBRANCH  19  22
ENDBRANCH   6  19
TORSDOF 6
ENDMDL
MODEL 3
REMARK VINA RESULT:      -8.2      0.927      1.378
REMARK  Name = 
REMARK  7 active torsions:
REMARK  status: ('A' for Active; 'I' for Inactive)
REMARK    1  A    between atoms: C_1  and  C_2
REMARK    2  A    between atoms: C_5  and  C_6
REMARK    3  A    between atoms: C_9  and  C_10
REMARK    4  A    between atoms: C_15  and  S_16
REMARK    5  A    between atoms: S_16  and  N_19
REMARK    6  A    between atoms: N_19  and  C_20
REMARK    7  A    between atoms: C_20  and  C_21
REMARK                            x       y       z     vdW  Elec       q    Type
REMARK                         _______ _______ _______ _____ _____    ______ ____
ROOT
ATOM      1  C   UNL     1       6.853   5.543  16.047  0.00  0.00    +0.000 A 
ATOM      2  C   UNL     1       7.433   5.601  14.752  0.00  0.00    +0.000 A 
ATOM      3  C   UNL     1       7.063   4.728  13.724  0.00  0.00    +0.000 A 
ATOM      4  C   UNL     1       6.107   3.754  13.959  0.00  0.00    +0.000 A 
ATOM      5  C   UNL     1       5.517   3.661  15.217  0.00  0.00    +0.000 A 
ATOM      6  C   UNL     1       5.875   4.546  16.258  0.00  0.00    +0.000 A 
ENDROOT
BRANCH   1  10
ATOM      7  C   UNL     1       8.101   8.181  18.094  0.00  0.00    +0.000 A 
ATOM      8  N   UNL     1       8.303   7.146  18.920  0.00  0.00    +0.000 NA
ATOM      9  O   UNL     1       7.823   6.063  18.213  0.00  0.00    +0.000 OA
ATOM     10  C   UNL     1       7.360   6.520  17.021  0.00  0.00    +0.000 A 
ATOM     11  N   UNL     1       7.505   7.826  16.901  0.00  0.00    +0.000 NA
BRANCH   7  16
ATOM     12  C   UNL     1       9.408  13.599  19.523  0.00  0.00    +0.000 C 
ATOM     13  C   UNL     1       9.204  12.181  19.083  0.00  0.00    +0.000 A 
ATOM     14  C   UNL     1       8.598  11.900  17.856  0.00  0.00    +0.000 A 
ATOM     15  C   UNL     1       8.297  10.583  17.508  0.00  0.00    +0.000 A 
ATOM     16  C   UNL     1       8.599   9.523  18.377  0.00  0.00    +0.000 A 
ATOM     17  C   UNL     1       9.300   9.798  19.557  0.00  0.00    +0.000 A 
ATOM     18  C   UNL     1       9.604  11.118  19.904  0.00  0.00    +0.000 A 
ENDBRANCH   7  16
ENDBRANCH   1  10
BRANCH   6  19
ATOM     19  S   UNL     1       4.932   4.373  17.764  0.00  0.00    +0.000 S 
ATOM     20  O   UNL     1       5.829   3.885  18.786  0.00  0.00    +0.000 OA
ATOM     21  O   UNL     1       4.183   5.595  17.976  0.00  0.00    +0.000 OA
BRANCH  19  22
ATOM     22  N   UNL     1       3.815   3.163  17.412  0.00  0.00    +0.000 NA
ATOM     23  H   UNL     1       3.907   2.832  16.450  0.00  0.00    +0.000 HD
BRANCH  22  24
ATOM     24  C   UNL     1       3.606   2.149  18.445  0.00  0.00    +0.000 C 
BRANCH  24  25
ATOM     25  C   UNL     1       2.574   2.617  19.428  0.00  0.00    +0.000 A 
ATOM     26  C   UNL     1       1.337   3.190  19.197  0.00  0.00    +0.000 A 
ATOM     27  C   UNL     1       0.701   3.619  20.401  0.00  0.00    +0.000 A 
ATOM     28  C   UNL     1       1.454   3.329  21.515  0.00  0.00    +0.000 A 
ATOM     29  S   UNL     1       2.911   2.535  21.112  0.00  0.00    +0.000 S 
ENDBRANCH  24  25
ENDBRANCH  22  24
ENDBRANCH  19  22
ENDBRANCH   6  19
TORSDOF 6
ENDMDL
MODEL 4
REMARK VINA RESULT:      -8.1      1.071      1.271
REMARK  Name = 
REMARK  7 active torsions:
REMARK  status: ('A' for Active; 'I' for Inactive)
REMARK    1  A    between atoms: C_1  and  C_2
REMARK    2  A    between atoms: C_5  and  C_6
REMARK    3  A    between atoms: C_9  and  C_10
REMARK    4  A    between atoms: C_15  and  S_16
REMARK    5  A    between atoms: S_16  and  N_19
REMARK    6  A    between atoms: N_19  and  C_20
REMARK    7  A    between atoms: C_20  and  C_21
REMARK                            x       y       z     vdW  Elec       q    Type
REMARK                         _______ _______ _______ _____ _____    ______ ____
ROOT
ATOM      1  C   UNL     1       6.711   5.520  15.771  0.00  0.00    +0.000 A 
ATOM      2  C   UNL     1       7.531   5.364  14.622  0.00  0.00    +0.000 A 
ATOM      3  C   UNL     1       7.187   4.515  13.566  0.00  0.00    +0.000 A 
ATOM      4  C   UNL     1       6.015   3.778  13.627  0.00  0.00    +0.000 A 
ATOM      5  C   UNL     1       5.187   3.900  14.739  0.00  0.00    +0.000 A 
ATOM      6  C   UNL     1       5.518   4.765  15.805  0.00  0.00    +0.000 A 
ENDROOT
BRANCH   1  10
ATOM      7  C   UNL     1       7.944   8.041  17.971  0.00  0.00    +0.000 A 
ATOM      8  N   UNL     1       8.200   6.955  18.713  0.00  0.00    +0.000 NA
ATOM      9  O   UNL     1       7.731   5.911  17.942  0.00  0.00    +0.000 OA
ATOM     10  C   UNL     1       7.219   6.439  16.800  0.00  0.00    +0.000 A 
ATOM     11  N   UNL     1       7.322   7.755  16.772  0.00  0.00    +0.000 NA
BRANCH   7  16
ATOM     12  C   UNL     1      10.408  13.126  19.050  0.00  0.00    +0.000 C 
ATOM     13  C   UNL     1       9.649  11.848  18.855  0.00  0.00    +0.000 A 
ATOM     14  C   UNL     1       9.836  10.773  19.727  0.00  0.00    +0.000 A 
ATOM     15  C   UNL     1       9.224   9.547  19.469  0.00  0.00    +0.000 A 
ATOM     16  C   UNL     1       8.411   9.373  18.338  0.00  0.00    +0.000 A 
ATOM     17  C   UNL     1       8.142  10.480  17.526  0.00  0.00    +0.000 A 
ATOM     18  C   UNL     1       8.753  11.711  17.787  0.00  0.00    +0.000 A 
ENDBRANCH   7  16
ENDBRANCH   1  10
BRANCH   6  19
ATOM     19  S   UNL     1       4.286   4.899  17.091  0.00  0.00    +0.000 S 
ATOM     20  O   UNL     1       3.919   6.292  17.199  0.00  0.00    +0.000 OA
ATOM     21  O   UNL     1       3.268   3.895  16.852  0.00  0.00    +0.000 OA
BRANCH  19  22
ATOM     22  N   UNL     1       5.104   4.451  18.492  0.00  0.00    +0.000 NA
ATOM     23  H   UNL     1       6.117   4.474  18.362  0.00  0.00    +0.000 HD
BRANCH  22  24
ATOM     24  C   UNL     1       4.585   4.989  19.749  0.00  0.00    +0.000 C 
BRANCH  24  25
ATOM     25  C   UNL     1       3.236   4.403  20.044  0.00  0.00    +0.000 A 
ATOM     26  C   UNL     1       2.001   5.021  20.097  0.00  0.00    +0.000 A 
ATOM     27  C   UNL     1       0.968   4.142  20.540  0.00  0.00    +0.000 A 
ATOM     28  C   UNL     1       1.438   2.870  20.776  0.00  0.00    +0.000 A 
ATOM     29  S   UNL     1       3.110   2.738  20.457  0.00  0.00    +0.000 S 
ENDBRANCH  24  25
ENDBRANCH  22  24
ENDBRANCH  19  22
ENDBRANCH   6  19
TORSDOF 6
ENDMDL
MODEL 5
REMARK VINA RESULT:      -8.1      1.313      1.814
REMARK  Name = 
REMARK  7 active torsions:
REMARK  status: ('A' for Active; 'I' for Inactive)
REMARK    1  A    between atoms: C_1  and  C_2
REMARK    2  A    between atoms: C_5  and  C_6
REMARK    3  A    between atoms: C_9  and  C_10
REMARK    4  A    between atoms: C_15  and  S_16
REMARK    5  A    between atoms: S_16  and  N_19
REMARK    6  A    between atoms: N_19  and  C_20
REMARK    7  A    between atoms: C_20  and  C_21
REMARK                            x       y       z     vdW  Elec       q    Type
REMARK                         _______ _______ _______ _____ _____    ______ ____
ROOT
ATOM      1  C   UNL     1       6.883   5.783  16.669  0.00  0.00    +0.000 A 
ATOM      2  C   UNL     1       7.189   5.788  15.282  0.00  0.00    +0.000 A 
ATOM      3  C   UNL     1       6.712   4.810  14.404  0.00  0.00    +0.000 A 
ATOM      4  C   UNL     1       5.920   3.780  14.886  0.00  0.00    +0.000 A 
ATOM      5  C   UNL     1       5.602   3.736  16.240  0.00  0.00    +0.000 A 
ATOM      6  C   UNL     1       6.068   4.726  17.133  0.00  0.00    +0.000 A 
ENDROOT
BRANCH   1  10
ATOM      7  C   UNL     1       8.260   8.664  18.253  0.00  0.00    +0.000 A 
ATOM      8  N   UNL     1       8.675   7.721  19.110  0.00  0.00    +0.000 NA
ATOM      9  O   UNL     1       8.165   6.552  18.585  0.00  0.00    +0.000 OA
ATOM     10  C   UNL     1       7.473   6.872  17.459  0.00  0.00    +0.000 A 
ATOM     11  N   UNL     1       7.499   8.168  17.214  0.00  0.00    +0.000 NA
BRANCH   7  16
ATOM     12  C   UNL     1       9.387  14.256  19.008  0.00  0.00    +0.000 C 
ATOM     13  C   UNL     1       9.216  12.794  18.721  0.00  0.00    +0.000 A 
ATOM     14  C   UNL     1       8.427  12.371  17.648  0.00  0.00    +0.000 A 
ATOM     15  C   UNL     1       8.169  11.013  17.461  0.00  0.00    +0.000 A 
ATOM     16  C   UNL     1       8.698  10.053  18.339  0.00  0.00    +0.000 A 
ATOM     17  C   UNL     1       9.572  10.473  19.347  0.00  0.00    +0.000 A 
ATOM     18  C   UNL     1       9.833  11.835  19.533  0.00  0.00    +0.000 A 
ENDBRANCH   7  16
ENDBRANCH   1  10
BRANCH   6  19
ATOM     19  S   UNL     1       5.462   4.592  18.807  0.00  0.00    +0.000 S 
ATOM     20  O   UNL     1       6.559   4.904  19.694  0.00  0.00    +0.000 OA
ATOM     21  O   UNL     1       4.218   5.329  18.901  0.00  0.00    +0.000 OA
BRANCH  19  22
ATOM     22  N   UNL     1       5.084   2.961  18.976  0.00  0.00    +0.000 NA
ATOM     23  H   UNL     1       5.858   2.361  18.685  0.00  0.00    +0.000 HD
BRANCH  22  24
ATOM     24  C   UNL     1       4.373   2.580  20.197  0.00  0.00    +0.000 C 
BRANCH  24  25
ATOM     25  C   UNL     1       2.891   2.646  19.974  0.00  0.00    +0.000 A 
ATOM     26  C   UNL     1       2.139   2.162  18.921  0.00  0.00    +0.000 A 
ATOM     27  C   UNL     1       0.765   2.539  19.011  0.00  0.00    +0.000 A 
ATOM     28  C   UNL     1       0.504   3.268  20.149  0.00  0.00    +0.000 A 
ATOM     29  S   UNL     1       1.903   3.486  21.103  0.00  0.00    +0.000 S 
ENDBRANCH  24  25
ENDBRANCH  22  24
ENDBRANCH  19  22
ENDBRANCH   6  19
TORSDOF 6
ENDMDL
MODEL 6
REMARK VINA RESULT:      -8.0      4.138      5.306
REMARK  Name = 
REMARK  7 active torsions:
REMARK  status: ('A' for Active; 'I' for Inactive)
REMARK    1  A    between atoms: C_1  and  C_2
REMARK    2  A    between atoms: C_5  and  C_6
REMARK    3  A    between atoms: C_9  and  C_10
REMARK    4  A    between atoms: C_15  and  S_16
REMARK    5  A    between atoms: S_16  and  N_19
REMARK    6  A    between atoms: N_19  and  C_20
REMARK    7  A    between atoms: C_20  and  C_21
REMARK                            x       y       z     vdW  Elec       q    Type
REMARK                         _______ _______ _______ _____ _____    ______ ____
ROOT
ATOM      1  C   UNL     1       5.019   5.724  16.674  0.00  0.00    +0.000 A 
ATOM      2  C   UNL     1       5.123   5.833  15.262  0.00  0.00    +0.000 A 
ATOM      3  C   UNL     1       6.207   5.317  14.547  0.00  0.00    +0.000 A 
ATOM      4  C   UNL     1       7.239   4.684  15.222  0.00  0.00    +0.000 A 
ATOM      5  C   UNL     1       7.178   4.561  16.607  0.00  0.00    +0.000 A 
ATOM      6  C   UNL     1       6.079   5.067  17.337  0.00  0.00    +0.000 A 
ENDROOT
BRANCH   1  10
ATOM      7  C   UNL     1       2.352   7.531  18.200  0.00  0.00    +0.000 A 
ATOM      8  N   UNL     1       1.835   6.296  18.244  0.00  0.00    +0.000 NA
ATOM      9  O   UNL     1       2.802   5.514  17.646  0.00  0.00    +0.000 OA
ATOM     10  C   UNL     1       3.824   6.330  17.278  0.00  0.00    +0.000 A 
ATOM     11  N   UNL     1       3.591   7.589  17.595  0.00  0.00    +0.000 NA
BRANCH   7  16
ATOM     12  C   UNL     1      -0.765  11.739  20.584  0.00  0.00    +0.000 C 
ATOM     13  C   UNL     1       0.171  10.719  20.009  0.00  0.00    +0.000 A 
ATOM     14  C   UNL     1       0.615  10.829  18.689  0.00  0.00    +0.000 A 
ATOM     15  C   UNL     1       1.383   9.813  18.121  0.00  0.00    +0.000 A 
ATOM     16  C   UNL     1       1.725   8.671  18.861  0.00  0.00    +0.000 A 
ATOM     17  C   UNL     1       1.368   8.613  20.213  0.00  0.00    +0.000 A 
ATOM     18  C   UNL     1       0.600   9.633  20.784  0.00  0.00    +0.000 A 
ENDBRANCH   7  16
ENDBRANCH   1  10
BRANCH   6  19
ATOM     19  S   UNL     1       6.097   4.712  19.087  0.00  0.00    +0.000 S 
ATOM     20  O   UNL     1       7.478   4.678  19.511  0.00  0.00    +0.000 OA
ATOM     21  O   UNL     1       5.156   5.598  19.741  0.00  0.00    +0.000 OA
BRANCH  19  22
ATOM     22  N   UNL     1       5.466   3.154  19.195  0.00  0.00    +0.000 NA
ATOM     23  H   UNL     1       6.169   2.445  18.979  0.00  0.00    +0.000 HD
BRANCH  22  24
ATOM     24  C   UNL     1       4.582   2.887  20.330  0.00  0.00    +0.000 C 
BRANCH  24  25
ATOM     25  C   UNL     1       3.151   2.875  19.879  0.00  0.00    +0.000 A 
ATOM     26  C   UNL     1       2.029   3.386  20.503  0.00  0.00    +0.000 A 
ATOM     27  C   UNL     1       0.823   3.059  19.813  0.00  0.00    +0.000 A 
ATOM     28  C   UNL     1       1.065   2.341  18.664  0.00  0.00    +0.000 A 
ATOM     29  S   UNL     1       2.733   2.073  18.417  0.00  0.00    +0.000 S 
ENDBRANCH  24  25
ENDBRANCH  22  24
ENDBRANCH  19  22
ENDBRANCH   6  19
TORSDOF 6
ENDMDL
MODEL 7
REMARK VINA RESULT:      -7.9      1.352      1.535
REMARK  Name = 
REMARK  7 active torsions:
REMARK  status: ('A' for Active; 'I' for Inactive)
REMARK    1  A    between atoms: C_1  and  C_2
REMARK    2  A    between atoms: C_5  and  C_6
REMARK    3  A    between atoms: C_9  and  C_10
REMARK    4  A    between atoms: C_15  and  S_16
REMARK    5  A    between atoms: S_16  and  N_19
REMARK    6  A    between atoms: N_19  and  C_20
REMARK    7  A    between atoms: C_20  and  C_21
REMARK                            x       y       z     vdW  Elec       q    Type
REMARK                         _______ _______ _______ _____ _____    ______ ____
ROOT
ATOM      1  C   UNL     1       6.802   5.873  16.800  0.00  0.00    +0.000 A 
ATOM      2  C   UNL     1       7.012   5.855  15.396  0.00  0.00    +0.000 A 
ATOM      3  C   UNL     1       6.492   4.852  14.572  0.00  0.00    +0.000 A 
ATOM      4  C   UNL     1       5.753   3.820  15.126  0.00  0.00    +0.000 A 
ATOM      5  C   UNL     1       5.529   3.798  16.500  0.00  0.00    +0.000 A 
ATOM      6  C   UNL     1       6.039   4.814  17.339  0.00  0.00    +0.000 A 
ENDROOT
BRANCH   1  10
ATOM      7  C   UNL     1       8.221   8.811  18.237  0.00  0.00    +0.000 A 
ATOM      8  N   UNL     1       8.752   7.888  19.051  0.00  0.00    +0.000 NA
ATOM      9  O   UNL     1       8.236   6.699  18.580  0.00  0.00    +0.000 OA
ATOM     10  C   UNL     1       7.427   6.987  17.527  0.00  0.00    +0.000 A 
ATOM     11  N   UNL     1       7.380   8.282  17.278  0.00  0.00    +0.000 NA
BRANCH   7  16
ATOM     12  C   UNL     1      10.243  14.183  17.847  0.00  0.00    +0.000 C 
ATOM     13  C   UNL     1       9.632  12.832  18.066  0.00  0.00    +0.000 A 
ATOM     14  C   UNL     1      10.243  11.907  18.915  0.00  0.00    +0.000 A 
ATOM     15  C   UNL     1       9.740  10.610  19.017  0.00  0.00    +0.000 A 
ATOM     16  C   UNL     1       8.614  10.215  18.277  0.00  0.00    +0.000 A 
ATOM     17  C   UNL     1       7.944  11.174  17.509  0.00  0.00    +0.000 A 
ATOM     18  C   UNL     1       8.446  12.475  17.409  0.00  0.00    +0.000 A 
ENDBRANCH   7  16
ENDBRANCH   1  10
BRANCH   6  19
ATOM     19  S   UNL     1       5.550   4.705  19.053  0.00  0.00    +0.000 S 
ATOM     20  O   UNL     1       5.025   3.377  19.273  0.00  0.00    +0.000 OA
ATOM     21  O   UNL     1       6.640   5.200  19.870  0.00  0.00    +0.000 OA
BRANCH  19  22
ATOM     22  N   UNL     1       4.287   5.809  19.190  0.00  0.00    +0.000 NA
ATOM     23  H   UNL     1       4.630   6.762  19.320  0.00  0.00    +0.000 HD
BRANCH  22  24
ATOM     24  C   UNL     1       3.162   5.628  18.273  0.00  0.00    +0.000 C 
BRANCH  24  25
ATOM     25  C   UNL     1       2.270   4.524  18.759  0.00  0.00    +0.000 A 
ATOM     26  C   UNL     1       1.712   3.472  18.058  0.00  0.00    +0.000 A 
ATOM     27  C   UNL     1       0.811   2.702  18.854  0.00  0.00    +0.000 A 
ATOM     28  C   UNL     1       0.737   3.167  20.147  0.00  0.00    +0.000 A 
ATOM     29  S   UNL     1       1.754   4.515  20.400  0.00  0.00    +0.000 S 
ENDBRANCH  24  25
ENDBRANCH  22  24
ENDBRANCH  19  22
ENDBRANCH   6  19
TORSDOF 6
ENDMDL
MODEL 8
REMARK VINA RESULT:      -7.9      4.182      7.396
REMARK  Name = 
REMARK  7 active torsions:
REMARK  status: ('A' for Active; 'I' for Inactive)
REMARK    1  A    between atoms: C_1  and  C_2
REMARK    2  A    between atoms: C_5  and  C_6
REMARK    3  A    between atoms: C_9  and  C_10
REMARK    4  A    between atoms: C_15  and  S_16
REMARK    5  A    between atoms: S_16  and  N_19
REMARK    6  A    between atoms: N_19  and  C_20
REMARK    7  A    between atoms: C_20  and  C_21
REMARK                            x       y       z     vdW  Elec       q    Type
REMARK                         _______ _______ _______ _____ _____    ______ ____
ROOT
ATOM      1  C   UNL     1       2.515   4.827  19.143  0.00  0.00    +0.000 A 
ATOM      2  C   UNL     1       1.442   3.914  19.319  0.00  0.00    +0.000 A 
ATOM      3  C   UNL     1       1.569   2.547  19.056  0.00  0.00    +0.000 A 
ATOM      4  C   UNL     1       2.774   2.044  18.590  0.00  0.00    +0.000 A 
ATOM      5  C   UNL     1       3.849   2.907  18.399  0.00  0.00    +0.000 A 
ATOM      6  C   UNL     1       3.734   4.288  18.676  0.00  0.00    +0.000 A 
ENDROOT
BRANCH   1  10
ATOM      7  C   UNL     1       1.582   8.096  20.216  0.00  0.00    +0.000 A 
ATOM      8  N   UNL     1       1.997   8.381  18.975  0.00  0.00    +0.000 NA
ATOM      9  O   UNL     1       2.406   7.161  18.476  0.00  0.00    +0.000 OA
ATOM     10  C   UNL     1       2.217   6.233  19.451  0.00  0.00    +0.000 A 
ATOM     11  N   UNL     1       1.714   6.763  20.549  0.00  0.00    +0.000 NA
BRANCH   7  16
ATOM     12  C   UNL     1      -1.654  11.756  23.255  0.00  0.00    +0.000 C 
ATOM     13  C   UNL     1      -0.691  10.863  22.534  0.00  0.00    +0.000 A 
ATOM     14  C   UNL     1      -0.146  11.251  21.308  0.00  0.00    +0.000 A 
ATOM     15  C   UNL     1       0.650  10.365  20.582  0.00  0.00    +0.000 A 
ATOM     16  C   UNL     1       0.921   9.077  21.070  0.00  0.00    +0.000 A 
ATOM     17  C   UNL     1       0.461   8.730  22.345  0.00  0.00    +0.000 A 
ATOM     18  C   UNL     1      -0.335   9.620  23.074  0.00  0.00    +0.000 A 
ENDBRANCH   7  16
ENDBRANCH   1  10
BRANCH   6  19
ATOM     19  S   UNL     1       5.242   5.229  18.500  0.00  0.00    +0.000 S 
ATOM     20  O   UNL     1       4.993   6.275  17.536  0.00  0.00    +0.000 OA
ATOM     21  O   UNL     1       5.728   5.561  19.824  0.00  0.00    +0.000 OA
BRANCH  19  22
ATOM     22  N   UNL     1       6.333   4.134  17.832  0.00  0.00    +0.000 NA
ATOM     23  H   UNL     1       5.865   3.292  17.495  0.00  0.00    +0.000 HD
BRANCH  22  24
ATOM     24  C   UNL     1       7.380   4.697  16.980  0.00  0.00    +0.000 C 
BRANCH  24  25
ATOM     25  C   UNL     1       7.045   4.474  15.534  0.00  0.00    +0.000 A 
ATOM     26  C   UNL     1       7.652   4.985  14.403  0.00  0.00    +0.000 A 
ATOM     27  C   UNL     1       6.956   4.640  13.206  0.00  0.00    +0.000 A 
ATOM     28  C   UNL     1       5.860   3.845  13.457  0.00  0.00    +0.000 A 
ATOM     29  S   UNL     1       5.680   3.513  15.121  0.00  0.00    +0.000 S 
ENDBRANCH  24  25
ENDBRANCH  22  24
ENDBRANCH  19  22
ENDBRANCH   6  19
TORSDOF 6
ENDMDL
MODEL 9
REMARK VINA RESULT:      -7.9      6.146      9.033
REMARK  Name = 
REMARK  7 active torsions:
REMARK  status: ('A' for Active; 'I' for Inactive)
REMARK    1  A    between atoms: C_1  and  C_2
REMARK    2  A    between atoms: C_5  and  C_6
REMARK    3  A    between atoms: C_9  and  C_10
REMARK    4  A    between atoms: C_15  and  S_16
REMARK    5  A    between atoms: S_16  and  N_19
REMARK    6  A    between atoms: N_19  and  C_20
REMARK    7  A    between atoms: C_20  and  C_21
REMARK                            x       y       z     vdW  Elec       q    Type
REMARK                         _______ _______ _______ _____ _____    ______ ____
ROOT
ATOM      1  C   UNL     1       0.491   9.831  20.691  0.00  0.00    +0.000 A 
ATOM      2  C   UNL     1       0.027   9.004  21.748  0.00  0.00    +0.000 A 
ATOM      3  C   UNL     1      -0.614   9.519  22.878  0.00  0.00    +0.000 A 
ATOM      4  C   UNL     1      -0.801  10.887  23.000  0.00  0.00    +0.000 A 
ATOM      5  C   UNL     1      -0.356  11.733  21.988  0.00  0.00    +0.000 A 
ATOM      6  C   UNL     1       0.281  11.220  20.836  0.00  0.00    +0.000 A 
ENDROOT
BRANCH   1  10
ATOM      7  C   UNL     1       2.305   7.928  18.282  0.00  0.00    +0.000 A 
ATOM      8  N   UNL     1       1.853   8.912  17.493  0.00  0.00    +0.000 NA
ATOM      9  O   UNL     1       1.108   9.702  18.344  0.00  0.00    +0.000 OA
ATOM     10  C   UNL     1       1.156   9.137  19.579  0.00  0.00    +0.000 A 
ATOM     11  N   UNL     1       1.880   8.034  19.592  0.00  0.00    +0.000 NA
BRANCH   7  16
ATOM     12  C   UNL     1       5.692   3.952  15.871  0.00  0.00    +0.000 C 
ATOM     13  C   UNL     1       4.900   4.980  16.622  0.00  0.00    +0.000 A 
ATOM     14  C   UNL     1       3.818   4.598  17.418  0.00  0.00    +0.000 A 
ATOM     15  C   UNL     1       3.009   5.565  18.013  0.00  0.00    +0.000 A 
ATOM     16  C   UNL     1       3.268   6.932  17.826  0.00  0.00    +0.000 A 
ATOM     17  C   UNL     1       4.413   7.309  17.115  0.00  0.00    +0.000 A 
ATOM     18  C   UNL     1       5.226   6.338  16.522  0.00  0.00    +0.000 A 
ENDBRANCH   7  16
ENDBRANCH   1  10
BRANCH   6  19
ATOM     19  S   UNL     1       0.672  12.427  19.579  0.00  0.00    +0.000 S 
ATOM     20  O   UNL     1       0.302  13.726  20.092  0.00  0.00    +0.000 OA
ATOM     21  O   UNL     1       2.024  12.184  19.119  0.00  0.00    +0.000 OA
BRANCH  19  22
ATOM     22  N   UNL     1      -0.360  12.041  18.306  0.00  0.00    +0.000 NA
ATOM     23  H   UNL     1       0.078  11.397  17.645  0.00  0.00    +0.000 HD
BRANCH  22  24
ATOM     24  C   UNL     1      -1.757  11.783  18.656  0.00  0.00    +0.000 C 
BRANCH  24  25
ATOM     25  C   UNL     1      -2.448  11.069  17.531  0.00  0.00    +0.000 A 
ATOM     26  C   UNL     1      -1.971  10.076  16.697  0.00  0.00    +0.000 A 
ATOM     27  C   UNL     1      -2.894   9.743  15.660  0.00  0.00    +0.000 A 
ATOM     28  C   UNL     1      -4.061  10.466  15.757  0.00  0.00    +0.000 A 
ATOM     29  S   UNL     1      -4.046  11.529  17.093  0.00  0.00    +0.000 S 
ENDBRANCH  24  25
ENDBRANCH  22  24
ENDBRANCH  19  22
ENDBRANCH   6  19
TORSDOF 6
ENDMDL
