MODEL 1
REMARK VINA RESULT:      -8.7      0.000      0.000
REMARK  Name = 
REMARK  9 active torsions:
REMARK  status: ('A' for Active; 'I' for Inactive)
REMARK    1  A    between atoms: C_2  and  C_5
REMARK    2  A    between atoms: C_7  and  C_8
REMARK    3  A    between atoms: C_8  and  O_9
REMARK    4  A    between atoms: O_9  and  C_10
REMARK    5  A    between atoms: C_10  and  C_11
REMARK    6  A    between atoms: C_11  and  C_12
REMARK    7  A    between atoms: C_20  and  N_21
REMARK    8  A    between atoms: N_21  and  C_22
REMARK    9  A    between atoms: C_27  and  C_28
REMARK                            x       y       z     vdW  Elec       q    Type
REMARK                         _______ _______ _______ _____ _____    ______ ____
ROOT
ATOM      1  C   UNL     1       3.311   6.493  19.050  0.00  0.00    +0.000 C 
ENDROOT
BRANCH   1   2
ATOM      2  C   UNL     1       4.156   5.305  18.539  0.00  0.00    +0.000 C 
ATOM      3  C   UNL     1       3.974   4.047  19.425  0.00  0.00    +0.000 C 
ATOM      4  C   UNL     1       4.483   2.895  18.563  0.00  0.00    +0.000 C 
ATOM      5  C   UNL     1       4.159   3.290  17.112  0.00  0.00    +0.000 C 
ATOM      6  C   UNL     1       3.600   4.723  17.212  0.00  0.00    +0.000 C 
BRANCH   2   7
ATOM      7  C   UNL     1       5.601   5.832  18.450  0.00  0.00    +0.000 A 
ATOM      8  C   UNL     1       6.589   5.428  19.365  0.00  0.00    +0.000 A 
ATOM      9  C   UNL     1       7.866   5.999  19.355  0.00  0.00    +0.000 A 
ATOM     10  C   UNL     1       8.182   6.991  18.436  0.00  0.00    +0.000 A 
ATOM     11  C   UNL     1       7.222   7.412  17.523  0.00  0.00    +0.000 A 
ATOM     12  C   UNL     1       5.945   6.846  17.537  0.00  0.00    +0.000 A 
ENDBRANCH   2   7
BRANCH   5  13
ATOM     13  N   UNL     1       5.319   3.252  16.214  0.00  0.00    +0.000 NA
ATOM     14  H   UNL     1       5.400   2.322  15.798  0.00  0.00    +0.000 HD
BRANCH  13  15
ATOM     15  C   UNL     1       5.307   4.269  15.161  0.00  0.00    +0.000 C 
ATOM     16  C   UNL     1       6.579   4.882  14.651  0.00  0.00    +0.000 C 
ATOM     17  C   UNL     1       5.841   3.883  13.811  0.00  0.00    +0.000 C 
ENDBRANCH  13  15
ENDBRANCH   5  13
ENDBRANCH   1   2
BRANCH   1  18
ATOM     18  O   UNL     1       2.421   6.977  18.047  0.00  0.00    +0.000 OA
BRANCH  18  19
ATOM     19  C   UNL     1       2.542   8.389  17.897  0.00  0.00    +0.000 C 
BRANCH  19  22
ATOM     20  C   UNL     1      -0.691  10.315  18.513  0.00  0.00    +0.000 A 
ATOM     21  C   UNL     1       0.413   9.731  17.878  0.00  0.00    +0.000 A 
ATOM     22  C   UNL     1       1.411   9.079  18.616  0.00  0.00    +0.000 A 
ATOM     23  C   UNL     1       1.288   9.010  20.011  0.00  0.00    +0.000 A 
ATOM     24  C   UNL     1       0.200   9.593  20.675  0.00  0.00    +0.000 A 
ATOM     25  C   UNL     1      -0.783  10.248  19.914  0.00  0.00    +0.000 A 
BRANCH  20  27
ATOM     26  F   UNL     1      -2.007  10.396  16.503  0.00  0.00    +0.000 F 
ATOM     27  C   UNL     1      -1.779  10.986  17.709  0.00  0.00    +0.000 C 
ATOM     28  F   UNL     1      -1.502  12.291  17.441  0.00  0.00    +0.000 F 
ATOM     29  F   UNL     1      -2.977  10.981  18.356  0.00  0.00    +0.000 F 
ENDBRANCH  20  27
BRANCH  24  30
ATOM     30  C   UNL     1       0.071   9.506  22.177  0.00  0.00    +0.000 C 
ATOM     31  F   UNL     1      -0.296  10.678  22.766  0.00  0.00    +0.000 F 
ATOM     32  F   UNL     1      -0.851   8.585  22.569  0.00  0.00    +0.000 F 
ATOM     33  F   UNL     1       1.241   9.141  22.773  0.00  0.00    +0.000 F 
ENDBRANCH  24  30
ENDBRANCH  19  22
ENDBRANCH  18  19
ENDBRANCH   1  18
TORSDOF 9
ENDMDL
MODEL 2
REMARK VINA RESULT:      -8.7      0.151      3.213
REMARK  Name = 
REMARK  9 active torsions:
REMARK  status: ('A' for Active; 'I' for Inactive)
REMARK    1  A    between atoms: C_2  and  C_5
REMARK    2  A    between atoms: C_7  and  C_8
REMARK    3  A    between atoms: C_8  and  O_9
REMARK    4  A    between atoms: O_9  and  C_10
REMARK    5  A    between atoms: C_10  and  C_11
REMARK    6  A    between atoms: C_11  and  C_12
REMARK    7  A    between atoms: C_20  and  N_21
REMARK    8  A    between atoms: N_21  and  C_22
REMARK    9  A    between atoms: C_27  and  C_28
REMARK                            x       y       z     vdW  Elec       q    Type
REMARK                         _______ _______ _______ _____ _____    ______ ____
ROOT
ATOM      1  C   UNL     1       3.105   6.494  19.005  0.00  0.00    +0.000 C 
ENDROOT
BRANCH   1   2
ATOM      2  C   UNL     1       4.027   5.342  18.549  0.00  0.00    +0.000 C 
ATOM      3  C   UNL     1       3.845   4.078  19.428  0.00  0.00    +0.000 C 
ATOM      4  C   UNL     1       4.452   2.948  18.602  0.00  0.00    +0.000 C 
ATOM      5  C   UNL     1       4.198   3.327  17.132  0.00  0.00    +0.000 C 
ATOM      6  C   UNL     1       3.575   4.735  17.193  0.00  0.00    +0.000 C 
BRANCH   2   7
ATOM      7  C   UNL     1       5.452   5.928  18.544  0.00  0.00    +0.000 A 
ATOM      8  C   UNL     1       5.847   6.889  17.597  0.00  0.00    +0.000 A 
ATOM      9  C   UNL     1       7.172   7.330  17.519  0.00  0.00    +0.000 A 
ATOM     10  C   UNL     1       8.134   6.815  18.380  0.00  0.00    +0.000 A 
ATOM     11  C   UNL     1       7.769   5.860  19.323  0.00  0.00    +0.000 A 
ATOM     12  C   UNL     1       6.447   5.416  19.397  0.00  0.00    +0.000 A 
ENDBRANCH   2   7
BRANCH   5  13
ATOM     13  N   UNL     1       5.409   3.335  16.306  0.00  0.00    +0.000 NA
ATOM     14  H   UNL     1       5.593   2.392  15.957  0.00  0.00    +0.000 HD
BRANCH  13  15
ATOM     15  C   UNL     1       5.377   4.280  15.188  0.00  0.00    +0.000 C 
ATOM     16  C   UNL     1       6.629   4.932  14.677  0.00  0.00    +0.000 C 
ATOM     17  C   UNL     1       5.975   3.841  13.882  0.00  0.00    +0.000 C 
ENDBRANCH  13  15
ENDBRANCH   5  13
ENDBRANCH   1   2
BRANCH   1  18
ATOM     18  O   UNL     1       2.407   7.078  17.907  0.00  0.00    +0.000 OA
BRANCH  18  19
ATOM     19  C   UNL     1       2.519   8.498  17.929  0.00  0.00    +0.000 C 
BRANCH  19  22
ATOM     20  C   UNL     1       0.176   9.629  20.718  0.00  0.00    +0.000 A 
ATOM     21  C   UNL     1       1.233   9.018  20.029  0.00  0.00    +0.000 A 
ATOM     22  C   UNL     1       1.326   9.094  18.633  0.00  0.00    +0.000 A 
ATOM     23  C   UNL     1       0.344   9.801  17.924  0.00  0.00    +0.000 A 
ATOM     24  C   UNL     1      -0.730  10.413  18.584  0.00  0.00    +0.000 A 
ATOM     25  C   UNL     1      -0.805  10.316  19.984  0.00  0.00    +0.000 A 
BRANCH  20  27
ATOM     26  F   UNL     1      -0.169  10.777  22.802  0.00  0.00    +0.000 F 
ATOM     27  C   UNL     1       0.100   9.572  22.225  0.00  0.00    +0.000 C 
ATOM     28  F   UNL     1       1.259   9.138  22.791  0.00  0.00    +0.000 F 
ATOM     29  F   UNL     1      -0.872   8.726  22.662  0.00  0.00    +0.000 F 
ENDBRANCH  20  27
BRANCH  24  30
ATOM     30  C   UNL     1      -1.778  11.180  17.814  0.00  0.00    +0.000 C 
ATOM     31  F   UNL     1      -2.056  10.653  16.589  0.00  0.00    +0.000 F 
ATOM     32  F   UNL     1      -2.968  11.243  18.473  0.00  0.00    +0.000 F 
ATOM     33  F   UNL     1      -1.408  12.472  17.588  0.00  0.00    +0.000 F 
ENDBRANCH  24  30
ENDBRANCH  19  22
ENDBRANCH  18  19
ENDBRANCH   1  18
TORSDOF 9
ENDMDL
MODEL 3
REMARK VINA RESULT:      -8.4      0.747      1.376
REMARK  Name = 
REMARK  9 active torsions:
REMARK  status: ('A' for Active; 'I' for Inactive)
REMARK    1  A    between atoms: C_2  and  C_5
REMARK    2  A    between atoms: C_7  and  C_8
REMARK    3  A    between atoms: C_8  and  O_9
REMARK    4  A    between atoms: O_9  and  C_10
REMARK    5  A    between atoms: C_10  and  C_11
REMARK    6  A    between atoms: C_11  and  C_12
REMARK    7  A    between atoms: C_20  and  N_21
REMARK    8  A    between atoms: N_21  and  C_22
REMARK    9  A    between atoms: C_27  and  C_28
REMARK                            x       y       z     vdW  Elec       q    Type
REMARK                         _______ _______ _______ _____ _____    ______ ____
ROOT
ATOM      1  C   UNL     1       3.051   6.646  19.066  0.00  0.00    +0.000 C 
ENDROOT
BRANCH   1   2
ATOM      2  C   UNL     1       3.940   5.458  18.636  0.00  0.00    +0.000 C 
ATOM      3  C   UNL     1       3.746   4.231  19.562  0.00  0.00    +0.000 C 
ATOM      4  C   UNL     1       4.313   3.059  18.766  0.00  0.00    +0.000 C 
ATOM      5  C   UNL     1       4.042   3.392  17.289  0.00  0.00    +0.000 C 
ATOM      6  C   UNL     1       3.451   4.815  17.310  0.00  0.00    +0.000 C 
BRANCH   2   7
ATOM      7  C   UNL     1       5.376   6.012  18.586  0.00  0.00    +0.000 A 
ATOM      8  C   UNL     1       5.753   6.997  17.655  0.00  0.00    +0.000 A 
ATOM      9  C   UNL     1       7.083   7.410  17.532  0.00  0.00    +0.000 A 
ATOM     10  C   UNL     1       8.069   6.844  18.331  0.00  0.00    +0.000 A 
ATOM     11  C   UNL     1       7.724   5.866  19.257  0.00  0.00    +0.000 A 
ATOM     12  C   UNL     1       6.396   5.449  19.376  0.00  0.00    +0.000 A 
ENDBRANCH   2   7
BRANCH   5  13
ATOM     13  N   UNL     1       5.239   3.344  16.442  0.00  0.00    +0.000 NA
ATOM     14  H   UNL     1       5.359   2.400  16.070  0.00  0.00    +0.000 HD
BRANCH  13  15
ATOM     15  C   UNL     1       5.248   4.315  15.345  0.00  0.00    +0.000 C 
ATOM     16  C   UNL     1       6.529   4.910  14.838  0.00  0.00    +0.000 C 
ATOM     17  C   UNL     1       5.811   3.874  14.025  0.00  0.00    +0.000 C 
ENDBRANCH  13  15
ENDBRANCH   5  13
ENDBRANCH   1   2
BRANCH   1  18
ATOM     18  O   UNL     1       2.226   7.103  17.996  0.00  0.00    +0.000 OA
BRANCH  18  19
ATOM     19  C   UNL     1       2.385   8.504  17.792  0.00  0.00    +0.000 C 
BRANCH  19  22
ATOM     20  C   UNL     1      -1.093  10.044  18.062  0.00  0.00    +0.000 A 
ATOM     21  C   UNL     1       0.059   9.431  17.549  0.00  0.00    +0.000 A 
ATOM     22  C   UNL     1       1.193   9.240  18.349  0.00  0.00    +0.000 A 
ATOM     23  C   UNL     1       1.162   9.665  19.685  0.00  0.00    +0.000 A 
ATOM     24  C   UNL     1       0.028  10.289  20.223  0.00  0.00    +0.000 A 
ATOM     25  C   UNL     1      -1.094  10.477  19.398  0.00  0.00    +0.000 A 
BRANCH  20  27
ATOM     26  F   UNL     1      -2.116   9.925  15.889  0.00  0.00    +0.000 F 
ATOM     27  C   UNL     1      -2.324  10.217  17.204  0.00  0.00    +0.000 C 
ATOM     28  F   UNL     1      -2.808  11.489  17.232  0.00  0.00    +0.000 F 
ATOM     29  F   UNL     1      -3.349   9.415  17.604  0.00  0.00    +0.000 F 
ENDBRANCH  20  27
BRANCH  24  30
ATOM     30  C   UNL     1      -0.001  10.736  21.665  0.00  0.00    +0.000 C 
ATOM     31  F   UNL     1       0.749   9.959  22.496  0.00  0.00    +0.000 F 
ATOM     32  F   UNL     1       0.457  12.008  21.827  0.00  0.00    +0.000 F 
ATOM     33  F   UNL     1      -1.261  10.724  22.182  0.00  0.00    +0.000 F 
ENDBRANCH  24  30
ENDBRANCH  19  22
ENDBRANCH  18  19
ENDBRANCH   1  18
TORSDOF 9
ENDMDL
MODEL 4
REMARK VINA RESULT:      -8.4      0.575      3.200
REMARK  Name = 
REMARK  9 active torsions:
REMARK  status: ('A' for Active; 'I' for Inactive)
REMARK    1  A    between atoms: C_2  and  C_5
REMARK    2  A    between atoms: C_7  and  C_8
REMARK    3  A    between atoms: C_8  and  O_9
REMARK    4  A    between atoms: O_9  and  C_10
REMARK    5  A    between atoms: C_10  and  C_11
REMARK    6  A    between atoms: C_11  and  C_12
REMARK    7  A    between atoms: C_20  and  N_21
REMARK    8  A    between atoms: N_21  and  C_22
REMARK    9  A    between atoms: C_27  and  C_28
REMARK                            x       y       z     vdW  Elec       q    Type
REMARK                         _______ _______ _______ _____ _____    ______ ____
ROOT
ATOM      1  C   UNL     1       3.061   6.582  18.986  0.00  0.00    +0.000 C 
ENDROOT
BRANCH   1   2
ATOM      2  C   UNL     1       3.972   5.406  18.570  0.00  0.00    +0.000 C 
ATOM      3  C   UNL     1       3.767   4.171  19.483  0.00  0.00    +0.000 C 
ATOM      4  C   UNL     1       4.366   3.009  18.694  0.00  0.00    +0.000 C 
ATOM      5  C   UNL     1       4.127   3.349  17.213  0.00  0.00    +0.000 C 
ATOM      6  C   UNL     1       3.522   4.766  17.229  0.00  0.00    +0.000 C 
BRANCH   2   7
ATOM      7  C   UNL     1       5.404   5.974  18.558  0.00  0.00    +0.000 A 
ATOM      8  C   UNL     1       5.799   6.953  17.630  0.00  0.00    +0.000 A 
ATOM      9  C   UNL     1       7.128   7.378  17.543  0.00  0.00    +0.000 A 
ATOM     10  C   UNL     1       8.095   6.831  18.378  0.00  0.00    +0.000 A 
ATOM     11  C   UNL     1       7.731   5.858  19.303  0.00  0.00    +0.000 A 
ATOM     12  C   UNL     1       6.404   5.429  19.385  0.00  0.00    +0.000 A 
ENDBRANCH   2   7
BRANCH   5  13
ATOM     13  N   UNL     1       5.344   3.318  16.395  0.00  0.00    +0.000 NA
ATOM     14  H   UNL     1       5.490   2.374  16.032  0.00  0.00    +0.000 HD
BRANCH  13  15
ATOM     15  C   UNL     1       5.362   4.283  15.293  0.00  0.00    +0.000 C 
ATOM     16  C   UNL     1       6.650   4.845  14.765  0.00  0.00    +0.000 C 
ATOM     17  C   UNL     1       5.897   3.822  13.968  0.00  0.00    +0.000 C 
ENDBRANCH  13  15
ENDBRANCH   5  13
ENDBRANCH   1   2
BRANCH   1  18
ATOM     18  O   UNL     1       2.422   7.179  17.859  0.00  0.00    +0.000 OA
BRANCH  18  19
ATOM     19  C   UNL     1       2.500   8.600  17.923  0.00  0.00    +0.000 C 
BRANCH  19  22
ATOM     20  C   UNL     1       0.045  10.037  20.463  0.00  0.00    +0.000 A 
ATOM     21  C   UNL     1       1.182   9.449  19.891  0.00  0.00    +0.000 A 
ATOM     22  C   UNL     1       1.233   9.155  18.522  0.00  0.00    +0.000 A 
ATOM     23  C   UNL     1       0.126   9.467  17.718  0.00  0.00    +0.000 A 
ATOM     24  C   UNL     1      -1.028  10.046  18.264  0.00  0.00    +0.000 A 
ATOM     25  C   UNL     1      -1.058  10.323  19.641  0.00  0.00    +0.000 A 
BRANCH  20  27
ATOM     26  F   UNL     1       0.964   9.739  22.665  0.00  0.00    +0.000 F 
ATOM     27  C   UNL     1       0.010  10.381  21.933  0.00  0.00    +0.000 C 
ATOM     28  F   UNL     1      -1.180  10.069  22.515  0.00  0.00    +0.000 F 
ATOM     29  F   UNL     1       0.203  11.710  22.157  0.00  0.00    +0.000 F 
ENDBRANCH  20  27
BRANCH  24  30
ATOM     30  C   UNL     1      -2.211  10.386  17.390  0.00  0.00    +0.000 C 
ATOM     31  F   UNL     1      -2.568  11.700  17.434  0.00  0.00    +0.000 F 
ATOM     32  F   UNL     1      -1.989  10.103  16.077  0.00  0.00    +0.000 F 
ATOM     33  F   UNL     1      -3.327   9.686  17.740  0.00  0.00    +0.000 F 
ENDBRANCH  24  30
ENDBRANCH  19  22
ENDBRANCH  18  19
ENDBRANCH   1  18
TORSDOF 9
ENDMDL
MODEL 5
REMARK VINA RESULT:      -8.4      0.880      3.158
REMARK  Name = 
REMARK  9 active torsions:
REMARK  status: ('A' for Active; 'I' for Inactive)
REMARK    1  A    between atoms: C_2  and  C_5
REMARK    2  A    between atoms: C_7  and  C_8
REMARK    3  A    between atoms: C_8  and  O_9
REMARK    4  A    between atoms: O_9  and  C_10
REMARK    5  A    between atoms: C_10  and  C_11
REMARK    6  A    between atoms: C_11  and  C_12
REMARK    7  A    between atoms: C_20  and  N_21
REMARK    8  A    between atoms: N_21  and  C_22
REMARK    9  A    between atoms: C_27  and  C_28
REMARK                            x       y       z     vdW  Elec       q    Type
REMARK                         _______ _______ _______ _____ _____    ______ ____
ROOT
ATOM      1  C   UNL     1       3.067   6.681  18.977  0.00  0.00    +0.000 C 
ENDROOT
BRANCH   1   2
ATOM      2  C   UNL     1       3.953   5.484  18.566  0.00  0.00    +0.000 C 
ATOM      3  C   UNL     1       3.714   4.253  19.476  0.00  0.00    +0.000 C 
ATOM      4  C   UNL     1       4.291   3.079  18.690  0.00  0.00    +0.000 C 
ATOM      5  C   UNL     1       4.069   3.425  17.207  0.00  0.00    +0.000 C 
ATOM      6  C   UNL     1       3.496   4.856  17.221  0.00  0.00    +0.000 C 
BRANCH   2   7
ATOM      7  C   UNL     1       5.398   6.019  18.563  0.00  0.00    +0.000 A 
ATOM      8  C   UNL     1       5.822   6.987  17.637  0.00  0.00    +0.000 A 
ATOM      9  C   UNL     1       7.161   7.382  17.559  0.00  0.00    +0.000 A 
ATOM     10  C   UNL     1       8.109   6.813  18.401  0.00  0.00    +0.000 A 
ATOM     11  C   UNL     1       7.717   5.850  19.323  0.00  0.00    +0.000 A 
ATOM     12  C   UNL     1       6.380   5.452  19.397  0.00  0.00    +0.000 A 
ENDBRANCH   2   7
BRANCH   5  13
ATOM     13  N   UNL     1       5.290   3.367  16.397  0.00  0.00    +0.000 NA
ATOM     14  H   UNL     1       5.409   2.424  16.023  0.00  0.00    +0.000 HD
BRANCH  13  15
ATOM     15  C   UNL     1       5.344   4.345  15.307  0.00  0.00    +0.000 C 
ATOM     16  C   UNL     1       6.651   4.897  14.816  0.00  0.00    +0.000 C 
ATOM     17  C   UNL     1       5.905   3.893  13.990  0.00  0.00    +0.000 C 
ENDBRANCH  13  15
ENDBRANCH   5  13
ENDBRANCH   1   2
BRANCH   1  18
ATOM     18  O   UNL     1       2.317   7.186  17.875  0.00  0.00    +0.000 OA
BRANCH  18  19
ATOM     19  C   UNL     1       2.426   8.604  17.792  0.00  0.00    +0.000 C 
BRANCH  19  22
ATOM     20  C   UNL     1      -0.016  10.517  20.010  0.00  0.00    +0.000 A 
ATOM     21  C   UNL     1       1.128   9.847  19.552  0.00  0.00    +0.000 A 
ATOM     22  C   UNL     1       1.155   9.245  18.288  0.00  0.00    +0.000 A 
ATOM     23  C   UNL     1       0.017   9.326  17.471  0.00  0.00    +0.000 A 
ATOM     24  C   UNL     1      -1.144   9.981  17.906  0.00  0.00    +0.000 A 
ATOM     25  C   UNL     1      -1.149  10.571  19.181  0.00  0.00    +0.000 A 
BRANCH  20  27
ATOM     26  F   UNL     1      -1.232  11.740  21.685  0.00  0.00    +0.000 F 
ATOM     27  C   UNL     1      -0.027  11.193  21.361  0.00  0.00    +0.000 C 
ATOM     28  F   UNL     1       0.878  12.206  21.446  0.00  0.00    +0.000 F 
ATOM     29  F   UNL     1       0.274  10.333  22.371  0.00  0.00    +0.000 F 
ENDBRANCH  20  27
BRANCH  24  30
ATOM     30  C   UNL     1      -2.361  10.072  17.017  0.00  0.00    +0.000 C 
ATOM     31  F   UNL     1      -2.183   9.525  15.782  0.00  0.00    +0.000 F 
ATOM     32  F   UNL     1      -3.445   9.445  17.552  0.00  0.00    +0.000 F 
ATOM     33  F   UNL     1      -2.744  11.362  16.800  0.00  0.00    +0.000 F 
ENDBRANCH  24  30
ENDBRANCH  19  22
ENDBRANCH  18  19
ENDBRANCH   1  18
TORSDOF 9
ENDMDL
MODEL 6
REMARK VINA RESULT:      -8.3      0.833      1.120
REMARK  Name = 
REMARK  9 active torsions:
REMARK  status: ('A' for Active; 'I' for Inactive)
REMARK    1  A    between atoms: C_2  and  C_5
REMARK    2  A    between atoms: C_7  and  C_8
REMARK    3  A    between atoms: C_8  and  O_9
REMARK    4  A    between atoms: O_9  and  C_10
REMARK    5  A    between atoms: C_10  and  C_11
REMARK    6  A    between atoms: C_11  and  C_12
REMARK    7  A    between atoms: C_20  and  N_21
REMARK    8  A    between atoms: N_21  and  C_22
REMARK    9  A    between atoms: C_27  and  C_28
REMARK                            x       y       z     vdW  Elec       q    Type
REMARK                         _______ _______ _______ _____ _____    ______ ____
ROOT
ATOM      1  C   UNL     1       3.236   6.740  19.011  0.00  0.00    +0.000 C 
ENDROOT
BRANCH   1   2
ATOM      2  C   UNL     1       4.028   5.491  18.565  0.00  0.00    +0.000 C 
ATOM      3  C   UNL     1       3.782   4.287  19.509  0.00  0.00    +0.000 C 
ATOM      4  C   UNL     1       4.242   3.073  18.707  0.00  0.00    +0.000 C 
ATOM      5  C   UNL     1       3.945   3.411  17.237  0.00  0.00    +0.000 C 
ATOM      6  C   UNL     1       3.453   4.871  17.263  0.00  0.00    +0.000 C 
BRANCH   2   7
ATOM      7  C   UNL     1       5.496   5.945  18.463  0.00  0.00    +0.000 A 
ATOM      8  C   UNL     1       6.485   5.440  19.326  0.00  0.00    +0.000 A 
ATOM      9  C   UNL     1       7.789   5.943  19.310  0.00  0.00    +0.000 A 
ATOM     10  C   UNL     1       8.135   6.966  18.436  0.00  0.00    +0.000 A 
ATOM     11  C   UNL     1       7.175   7.487  17.576  0.00  0.00    +0.000 A 
ATOM     12  C   UNL     1       5.871   6.989  17.596  0.00  0.00    +0.000 A 
ENDBRANCH   2   7
BRANCH   5  13
ATOM     13  N   UNL     1       5.108   3.275  16.352  0.00  0.00    +0.000 NA
ATOM     14  H   UNL     1       5.091   2.358  15.902  0.00  0.00    +0.000 HD
BRANCH  13  15
ATOM     15  C   UNL     1       5.226   4.325  15.337  0.00  0.00    +0.000 C 
ATOM     16  C   UNL     1       6.566   4.824  14.881  0.00  0.00    +0.000 C 
ATOM     17  C   UNL     1       5.755   3.935  13.987  0.00  0.00    +0.000 C 
ENDBRANCH  13  15
ENDBRANCH   5  13
ENDBRANCH   1   2
BRANCH   1  18
ATOM     18  O   UNL     1       2.288   7.144  18.026  0.00  0.00    +0.000 OA
BRANCH  18  19
ATOM     19  C   UNL     1       2.409   8.535  17.742  0.00  0.00    +0.000 C 
BRANCH  19  22
ATOM     20  C   UNL     1      -1.109   9.992  17.940  0.00  0.00    +0.000 A 
ATOM     21  C   UNL     1       0.057   9.382  17.457  0.00  0.00    +0.000 A 
ATOM     22  C   UNL     1       1.200   9.270  18.261  0.00  0.00    +0.000 A 
ATOM     23  C   UNL     1       1.163   9.774  19.569  0.00  0.00    +0.000 A 
ATOM     24  C   UNL     1       0.014  10.398  20.076  0.00  0.00    +0.000 A 
ATOM     25  C   UNL     1      -1.117  10.505  19.248  0.00  0.00    +0.000 A 
BRANCH  20  27
ATOM     26  F   UNL     1      -3.347   9.243  17.480  0.00  0.00    +0.000 F 
ATOM     27  C   UNL     1      -2.348  10.080  17.080  0.00  0.00    +0.000 C 
ATOM     28  F   UNL     1      -2.104   9.774  15.777  0.00  0.00    +0.000 F 
ATOM     29  F   UNL     1      -2.890  11.329  17.080  0.00  0.00    +0.000 F 
ENDBRANCH  20  27
BRANCH  24  30
ATOM     30  C   UNL     1      -0.020  10.929  21.488  0.00  0.00    +0.000 C 
ATOM     31  F   UNL     1      -1.274  11.216  21.938  0.00  0.00    +0.000 F 
ATOM     32  F   UNL     1       0.509  10.054  22.387  0.00  0.00    +0.000 F 
ATOM     33  F   UNL     1       0.695  12.081  21.622  0.00  0.00    +0.000 F 
ENDBRANCH  24  30
ENDBRANCH  19  22
ENDBRANCH  18  19
ENDBRANCH   1  18
TORSDOF 9
ENDMDL
MODEL 7
REMARK VINA RESULT:      -8.1      1.557      3.490
REMARK  Name = 
REMARK  9 active torsions:
REMARK  status: ('A' for Active; 'I' for Inactive)
REMARK    1  A    between atoms: C_2  and  C_5
REMARK    2  A    between atoms: C_7  and  C_8
REMARK    3  A    between atoms: C_8  and  O_9
REMARK    4  A    between atoms: O_9  and  C_10
REMARK    5  A    between atoms: C_10  and  C_11
REMARK    6  A    between atoms: C_11  and  C_12
REMARK    7  A    between atoms: C_20  and  N_21
REMARK    8  A    between atoms: N_21  and  C_22
REMARK    9  A    between atoms: C_27  and  C_28
REMARK                            x       y       z     vdW  Elec       q    Type
REMARK                         _______ _______ _______ _____ _____    ______ ____
ROOT
ATOM      1  C   UNL     1       3.555   7.353  17.265  0.00  0.00    +0.000 C 
ENDROOT
BRANCH   1   2
ATOM      2  C   UNL     1       3.973   5.921  17.667  0.00  0.00    +0.000 C 
ATOM      3  C   UNL     1       4.327   5.058  16.430  0.00  0.00    +0.000 C 
ATOM      4  C   UNL     1       5.122   3.885  16.998  0.00  0.00    +0.000 C 
ATOM      5  C   UNL     1       5.876   4.447  18.215  0.00  0.00    +0.000 C 
ATOM      6  C   UNL     1       5.361   5.892  18.362  0.00  0.00    +0.000 C 
BRANCH   2   7
ATOM      7  C   UNL     1       2.816   5.378  18.527  0.00  0.00    +0.000 A 
ATOM      8  C   UNL     1       2.670   5.742  19.877  0.00  0.00    +0.000 A 
ATOM      9  C   UNL     1       1.691   5.155  20.686  0.00  0.00    +0.000 A 
ATOM     10  C   UNL     1       0.841   4.187  20.167  0.00  0.00    +0.000 A 
ATOM     11  C   UNL     1       0.967   3.806  18.836  0.00  0.00    +0.000 A 
ATOM     12  C   UNL     1       1.948   4.388  18.029  0.00  0.00    +0.000 A 
ENDBRANCH   2   7
BRANCH   5  13
ATOM     13  N   UNL     1       5.651   3.692  19.452  0.00  0.00    +0.000 NA
ATOM     14  H   UNL     1       5.453   4.339  20.218  0.00  0.00    +0.000 HD
BRANCH  13  15
ATOM     15  C   UNL     1       4.590   2.686  19.366  0.00  0.00    +0.000 C 
ATOM     16  C   UNL     1       4.772   1.307  19.930  0.00  0.00    +0.000 C 
ATOM     17  C   UNL     1       3.892   2.294  20.637  0.00  0.00    +0.000 C 
ENDBRANCH  13  15
ENDBRANCH   5  13
ENDBRANCH   1   2
BRANCH   1  18
ATOM     18  O   UNL     1       2.376   7.771  17.949  0.00  0.00    +0.000 OA
BRANCH  18  19
ATOM     19  C   UNL     1       2.153   9.167  17.773  0.00  0.00    +0.000 C 
BRANCH  19  22
ATOM     20  C   UNL     1      -1.278  10.469  18.812  0.00  0.00    +0.000 A 
ATOM     21  C   UNL     1      -0.162  10.117  18.040  0.00  0.00    +0.000 A 
ATOM     22  C   UNL     1       1.001   9.614  18.637  0.00  0.00    +0.000 A 
ATOM     23  C   UNL     1       1.036   9.456  20.031  0.00  0.00    +0.000 A 
ATOM     24  C   UNL     1      -0.061   9.808  20.829  0.00  0.00    +0.000 A 
ATOM     25  C   UNL     1      -1.213  10.318  20.207  0.00  0.00    +0.000 A 
BRANCH  20  27
ATOM     26  F   UNL     1      -3.280  11.791  18.965  0.00  0.00    +0.000 F 
ATOM     27  C   UNL     1      -2.541  10.979  18.158  0.00  0.00    +0.000 C 
ATOM     28  F   UNL     1      -3.374   9.974  17.774  0.00  0.00    +0.000 F 
ATOM     29  F   UNL     1      -2.284  11.705  17.036  0.00  0.00    +0.000 F 
ENDBRANCH  20  27
BRANCH  24  30
ATOM     30  C   UNL     1      -0.019   9.627  22.328  0.00  0.00    +0.000 C 
ATOM     31  F   UNL     1      -0.344  10.749  23.027  0.00  0.00    +0.000 F 
ATOM     32  F   UNL     1      -0.870   8.656  22.760  0.00  0.00    +0.000 F 
ATOM     33  F   UNL     1       1.219   9.262  22.767  0.00  0.00    +0.000 F 
ENDBRANCH  24  30
ENDBRANCH  19  22
ENDBRANCH  18  19
ENDBRANCH   1  18
TORSDOF 9
ENDMDL
MODEL 8
REMARK VINA RESULT:      -8.1      4.188      8.878
REMARK  Name = 
REMARK  9 active torsions:
REMARK  status: ('A' for Active; 'I' for Inactive)
REMARK    1  A    between atoms: C_2  and  C_5
REMARK    2  A    between atoms: C_7  and  C_8
REMARK    3  A    between atoms: C_8  and  O_9
REMARK    4  A    between atoms: O_9  and  C_10
REMARK    5  A    between atoms: C_10  and  C_11
REMARK    6  A    between atoms: C_11  and  C_12
REMARK    7  A    between atoms: C_20  and  N_21
REMARK    8  A    between atoms: N_21  and  C_22
REMARK    9  A    between atoms: C_27  and  C_28
REMARK                            x       y       z     vdW  Elec       q    Type
REMARK                         _______ _______ _______ _____ _____    ______ ____
ROOT
ATOM      1  C   UNL     1       1.537  10.230  18.884  0.00  0.00    +0.000 C 
ENDROOT
BRANCH   1   2
ATOM      2  C   UNL     1       0.141  10.876  19.023  0.00  0.00    +0.000 C 
ATOM      3  C   UNL     1       0.150  12.363  18.591  0.00  0.00    +0.000 C 
ATOM      4  C   UNL     1      -1.320  12.702  18.358  0.00  0.00    +0.000 C 
ATOM      5  C   UNL     1      -1.970  11.402  17.854  0.00  0.00    +0.000 C 
ATOM      6  C   UNL     1      -0.856  10.342  17.958  0.00  0.00    +0.000 C 
BRANCH   2   7
ATOM      7  C   UNL     1      -0.288  10.626  20.481  0.00  0.00    +0.000 A 
ATOM      8  C   UNL     1      -0.627  11.686  21.340  0.00  0.00    +0.000 A 
ATOM      9  C   UNL     1      -0.899  11.466  22.694  0.00  0.00    +0.000 A 
ATOM     10  C   UNL     1      -0.832  10.183  23.222  0.00  0.00    +0.000 A 
ATOM     11  C   UNL     1      -0.495   9.117  22.395  0.00  0.00    +0.000 A 
ATOM     12  C   UNL     1      -0.218   9.338  21.044  0.00  0.00    +0.000 A 
ENDBRANCH   2   7
BRANCH   5  13
ATOM     13  N   UNL     1      -3.146  10.990  18.627  0.00  0.00    +0.000 NA
ATOM     14  H   UNL     1      -2.935  11.040  19.626  0.00  0.00    +0.000 HD
BRANCH  13  15
ATOM     15  C   UNL     1      -4.362  11.753  18.337  0.00  0.00    +0.000 C 
ATOM     16  C   UNL     1      -4.982  11.748  16.970  0.00  0.00    +0.000 C 
ATOM     17  C   UNL     1      -5.627  10.984  18.087  0.00  0.00    +0.000 C 
ENDBRANCH  13  15
ENDBRANCH   5  13
ENDBRANCH   1   2
BRANCH   1  18
ATOM     18  O   UNL     1       1.470   8.957  18.245  0.00  0.00    +0.000 OA
BRANCH  18  19
ATOM     19  C   UNL     1       2.727   8.606  17.674  0.00  0.00    +0.000 C 
BRANCH  19  22
ATOM     20  C   UNL     1       2.614   5.187  19.358  0.00  0.00    +0.000 A 
ATOM     21  C   UNL     1       2.367   6.533  19.053  0.00  0.00    +0.000 A 
ATOM     22  C   UNL     1       3.073   7.184  18.033  0.00  0.00    +0.000 A 
ATOM     23  C   UNL     1       4.035   6.466  17.307  0.00  0.00    +0.000 A 
ATOM     24  C   UNL     1       4.311   5.122  17.596  0.00  0.00    +0.000 A 
ATOM     25  C   UNL     1       3.594   4.494  18.628  0.00  0.00    +0.000 A 
BRANCH  20  27
ATOM     26  F   UNL     1       2.494   4.377  21.618  0.00  0.00    +0.000 F 
ATOM     27  C   UNL     1       1.825   4.482  20.436  0.00  0.00    +0.000 C 
ATOM     28  F   UNL     1       1.482   3.212  20.087  0.00  0.00    +0.000 F 
ATOM     29  F   UNL     1       0.659   5.122  20.725  0.00  0.00    +0.000 F 
ENDBRANCH  20  27
BRANCH  24  30
ATOM     30  C   UNL     1       5.341   4.355  16.803  0.00  0.00    +0.000 C 
ATOM     31  F   UNL     1       6.546   4.246  17.428  0.00  0.00    +0.000 F 
ATOM     32  F   UNL     1       4.945   3.082  16.528  0.00  0.00    +0.000 F 
ATOM     33  F   UNL     1       5.599   4.934  15.597  0.00  0.00    +0.000 F 
ENDBRANCH  24  30
ENDBRANCH  19  22
ENDBRANCH  18  19
ENDBRANCH   1  18
TORSDOF 9
ENDMDL
MODEL 9
REMARK VINA RESULT:      -8.1      1.706      3.869
REMARK  Name = 
REMARK  9 active torsions:
REMARK  status: ('A' for Active; 'I' for Inactive)
REMARK    1  A    between atoms: C_2  and  C_5
REMARK    2  A    between atoms: C_7  and  C_8
REMARK    3  A    between atoms: C_8  and  O_9
REMARK    4  A    between atoms: O_9  and  C_10
REMARK    5  A    between atoms: C_10  and  C_11
REMARK    6  A    between atoms: C_11  and  C_12
REMARK    7  A    between atoms: C_20  and  N_21
REMARK    8  A    between atoms: N_21  and  C_22
REMARK    9  A    between atoms: C_27  and  C_28
REMARK                            x       y       z     vdW  Elec       q    Type
REMARK                         _______ _______ _______ _____ _____    ______ ____
ROOT
ATOM      1  C   UNL     1       3.371   7.641  17.602  0.00  0.00    +0.000 C 
ENDROOT
BRANCH   1   2
ATOM      2  C   UNL     1       3.269   6.213  18.182  0.00  0.00    +0.000 C 
ATOM      3  C   UNL     1       2.919   6.230  19.691  0.00  0.00    +0.000 C 
ATOM      4  C   UNL     1       2.424   4.816  19.984  0.00  0.00    +0.000 C 
ATOM      5  C   UNL     1       1.743   4.340  18.689  0.00  0.00    +0.000 C 
ATOM      6  C   UNL     1       2.008   5.465  17.671  0.00  0.00    +0.000 C 
BRANCH   2   7
ATOM      7  C   UNL     1       4.604   5.528  17.833  0.00  0.00    +0.000 A 
ATOM      8  C   UNL     1       5.726   5.631  18.675  0.00  0.00    +0.000 A 
ATOM      9  C   UNL     1       6.968   5.111  18.298  0.00  0.00    +0.000 A 
ATOM     10  C   UNL     1       7.120   4.481  17.069  0.00  0.00    +0.000 A 
ATOM     11  C   UNL     1       6.027   4.370  16.216  0.00  0.00    +0.000 A 
ATOM     12  C   UNL     1       4.788   4.895  16.590  0.00  0.00    +0.000 A 
ENDBRANCH   2   7
BRANCH   5  13
ATOM     13  N   UNL     1       2.255   3.060  18.188  0.00  0.00    +0.000 NA
ATOM     14  H   UNL     1       2.909   3.229  17.421  0.00  0.00    +0.000 HD
BRANCH  13  15
ATOM     15  C   UNL     1       2.888   2.217  19.204  0.00  0.00    +0.000 C 
ATOM     16  C   UNL     1       3.745   1.044  18.825  0.00  0.00    +0.000 C 
ATOM     17  C   UNL     1       4.381   2.298  19.349  0.00  0.00    +0.000 C 
ENDBRANCH  13  15
ENDBRANCH   5  13
ENDBRANCH   1   2
BRANCH   1  18
ATOM     18  O   UNL     1       2.103   8.294  17.581  0.00  0.00    +0.000 OA
BRANCH  18  19
ATOM     19  C   UNL     1       2.189   9.592  18.164  0.00  0.00    +0.000 C 
BRANCH  19  22
ATOM     20  C   UNL     1      -0.541  11.175  20.304  0.00  0.00    +0.000 A 
ATOM     21  C   UNL     1       0.699  10.688  19.870  0.00  0.00    +0.000 A 
ATOM     22  C   UNL     1       0.828  10.030  18.639  0.00  0.00    +0.000 A 
ATOM     23  C   UNL     1      -0.309   9.870  17.833  0.00  0.00    +0.000 A 
ATOM     24  C   UNL     1      -1.564  10.338  18.245  0.00  0.00    +0.000 A 
ATOM     25  C   UNL     1      -1.669  10.987  19.487  0.00  0.00    +0.000 A 
BRANCH  20  27
ATOM     26  F   UNL     1      -1.923  12.379  21.860  0.00  0.00    +0.000 F 
ATOM     27  C   UNL     1      -0.666  11.912  21.616  0.00  0.00    +0.000 C 
ATOM     28  F   UNL     1       0.155  12.995  21.689  0.00  0.00    +0.000 F 
ATOM     29  F   UNL     1      -0.350  11.127  22.682  0.00  0.00    +0.000 F 
ENDBRANCH  20  27
BRANCH  24  30
ATOM     30  C   UNL     1      -2.780  10.169  17.366  0.00  0.00    +0.000 C 
ATOM     31  F   UNL     1      -3.458  11.328  17.136  0.00  0.00    +0.000 F 
ATOM     32  F   UNL     1      -2.472   9.666  16.139  0.00  0.00    +0.000 F 
ATOM     33  F   UNL     1      -3.689   9.308  17.905  0.00  0.00    +0.000 F 
ENDBRANCH  24  30
ENDBRANCH  19  22
ENDBRANCH  18  19
ENDBRANCH   1  18
TORSDOF 9
ENDMDL
