MODEL 1
REMARK VINA RESULT:      -8.4      0.000      0.000
REMARK  Name = 
REMARK  6 active torsions:
REMARK  status: ('A' for Active; 'I' for Inactive)
REMARK    1  A    between atoms: C_1  and  C_2
REMARK    2  A    between atoms: C_7  and  C_8
REMARK    3  A    between atoms: C_15  and  C_16
REMARK    4  A    between atoms: C_16  and  C_17
REMARK    5  A    between atoms: C_17  and  C_18
REMARK    6  A    between atoms: N_20  and  C_21
REMARK                            x       y       z     vdW  Elec       q    Type
REMARK                         _______ _______ _______ _____ _____    ______ ____
ROOT
ATOM      1  C   UNL     1       2.710   7.038  18.543  0.00  0.00    +0.000 A 
ATOM      2  C   UNL     1       2.555   6.845  19.929  0.00  0.00    +0.000 A 
ATOM      3  C   UNL     1       1.713   7.664  20.699  0.00  0.00    +0.000 A 
ATOM      4  C   UNL     1       1.037   8.739  20.145  0.00  0.00    +0.000 A 
ATOM      5  N   UNL     1       0.276   9.531  20.922  0.00  0.00    +0.000 NA
ATOM      6  C   UNL     1      -0.344  10.587  20.363  0.00  0.00    +0.000 A 
ATOM      7  N   UNL     1      -1.081  11.361  21.255  0.00  0.00    +0.000 N 
ATOM      8  C   UNL     1      -0.228  10.921  19.013  0.00  0.00    +0.000 A 
ATOM      9  C   UNL     1       0.543  10.071  18.214  0.00  0.00    +0.000 A 
ATOM     10  C   UNL     1       1.188   8.961  18.771  0.00  0.00    +0.000 A 
ATOM     11  C   UNL     1       1.972   8.093  17.986  0.00  0.00    +0.000 A 
ATOM     12  H   UNL     1      -1.054  10.869  22.146  0.00  0.00    +0.000 HD
ATOM     13  H   UNL     1      -2.029  11.512  20.934  0.00  0.00    +0.000 HD
ENDROOT
BRANCH   1  20
ATOM     14  C   UNL     1       2.084   4.046  17.925  0.00  0.00    +0.000 C 
ATOM     15  C   UNL     1       3.310   4.780  17.442  0.00  0.00    +0.000 A 
ATOM     16  C   UNL     1       4.219   4.025  16.669  0.00  0.00    +0.000 A 
ATOM     17  C   UNL     1       5.366   4.599  16.132  0.00  0.00    +0.000 A 
ATOM     18  C   UNL     1       5.634   5.937  16.370  0.00  0.00    +0.000 A 
ATOM     19  C   UNL     1       4.764   6.691  17.159  0.00  0.00    +0.000 A 
ATOM     20  C   UNL     1       3.581   6.146  17.721  0.00  0.00    +0.000 A 
ENDBRANCH   1  20
BRANCH   8  21
ATOM     21  C   UNL     1      -0.916  12.106  18.375  0.00  0.00    +0.000 C 
BRANCH  21  22
ATOM     22  C   UNL     1      -1.910  11.743  17.272  0.00  0.00    +0.000 C 
BRANCH  22  23
ATOM     23  C   UNL     1      -3.174  11.128  17.834  0.00  0.00    +0.000 C 
ATOM     24  O   UNL     1      -3.398   9.920  17.843  0.00  0.00    +0.000 OA
ATOM     25  N   UNL     1      -4.037  12.072  18.350  0.00  0.00    +0.000 N 
ATOM     26  H   UNL     1      -3.846  13.046  18.150  0.00  0.00    +0.000 HD
BRANCH  25  27
ATOM     27  C   UNL     1      -5.339  11.716  18.901  0.00  0.00    +0.000 C 
ATOM     28  C   UNL     1      -5.729  12.672  20.036  0.00  0.00    +0.000 C 
ATOM     29  C   UNL     1      -6.126  14.061  19.537  0.00  0.00    +0.000 C 
ATOM     30  C   UNL     1      -7.202  13.989  18.459  0.00  0.00    +0.000 C 
ATOM     31  C   UNL     1      -6.787  13.077  17.309  0.00  0.00    +0.000 C 
ATOM     32  C   UNL     1      -6.413  11.681  17.805  0.00  0.00    +0.000 C 
ENDBRANCH  25  27
ENDBRANCH  22  23
ENDBRANCH  21  22
ENDBRANCH   8  21
TORSDOF 5
ENDMDL
MODEL 2
REMARK VINA RESULT:      -8.4      5.305     10.812
REMARK  Name = 
REMARK  6 active torsions:
REMARK  status: ('A' for Active; 'I' for Inactive)
REMARK    1  A    between atoms: C_1  and  C_2
REMARK    2  A    between atoms: C_7  and  C_8
REMARK    3  A    between atoms: C_15  and  C_16
REMARK    4  A    between atoms: C_16  and  C_17
REMARK    5  A    between atoms: C_17  and  C_18
REMARK    6  A    between atoms: N_20  and  C_21
REMARK                            x       y       z     vdW  Elec       q    Type
REMARK                         _______ _______ _______ _____ _____    ______ ____
ROOT
ATOM      1  C   UNL     1       1.825   7.089  20.050  0.00  0.00    +0.000 A 
ATOM      2  C   UNL     1       1.481   6.038  20.922  0.00  0.00    +0.000 A 
ATOM      3  C   UNL     1       1.931   4.725  20.708  0.00  0.00    +0.000 A 
ATOM      4  C   UNL     1       2.688   4.385  19.599  0.00  0.00    +0.000 A 
ATOM      5  N   UNL     1       3.062   3.109  19.401  0.00  0.00    +0.000 NA
ATOM      6  C   UNL     1       3.771   2.802  18.298  0.00  0.00    +0.000 A 
ATOM      7  N   UNL     1       4.083   1.452  18.170  0.00  0.00    +0.000 N 
ATOM      8  C   UNL     1       4.129   3.740  17.329  0.00  0.00    +0.000 A 
ATOM      9  C   UNL     1       3.756   5.067  17.564  0.00  0.00    +0.000 A 
ATOM     10  C   UNL     1       3.030   5.411  18.709  0.00  0.00    +0.000 A 
ATOM     11  C   UNL     1       2.642   6.741  18.965  0.00  0.00    +0.000 A 
ATOM     12  H   UNL     1       3.768   1.005  19.029  0.00  0.00    +0.000 HD
ATOM     13  H   UNL     1       5.070   1.303  18.005  0.00  0.00    +0.000 HD
ENDROOT
BRANCH   1  20
ATOM     14  C   UNL     1       1.469   9.246  17.825  0.00  0.00    +0.000 C 
ATOM     15  C   UNL     1       1.215   9.482  19.293  0.00  0.00    +0.000 A 
ATOM     16  C   UNL     1       0.800  10.784  19.648  0.00  0.00    +0.000 A 
ATOM     17  C   UNL     1       0.496  11.116  20.964  0.00  0.00    +0.000 A 
ATOM     18  C   UNL     1       0.616  10.155  21.954  0.00  0.00    +0.000 A 
ATOM     19  C   UNL     1       1.057   8.871  21.627  0.00  0.00    +0.000 A 
ATOM     20  C   UNL     1       1.371   8.490  20.297  0.00  0.00    +0.000 A 
ENDBRANCH   1  20
BRANCH   8  21
ATOM     21  C   UNL     1       4.920   3.408  16.085  0.00  0.00    +0.000 C 
BRANCH  21  22
ATOM     22  C   UNL     1       6.306   4.047  16.026  0.00  0.00    +0.000 C 
BRANCH  22  23
ATOM     23  C   UNL     1       6.656   4.505  14.627  0.00  0.00    +0.000 C 
ATOM     24  O   UNL     1       7.388   5.461  14.385  0.00  0.00    +0.000 OA
ATOM     25  N   UNL     1       6.077   3.718  13.652  0.00  0.00    +0.000 N 
ATOM     26  H   UNL     1       5.362   3.060  13.940  0.00  0.00    +0.000 HD
BRANCH  25  27
ATOM     27  C   UNL     1       6.235   3.998  12.230  0.00  0.00    +0.000 C 
ATOM     28  C   UNL     1       7.459   3.267  11.665  0.00  0.00    +0.000 C 
ATOM     29  C   UNL     1       7.243   1.761  11.521  0.00  0.00    +0.000 C 
ATOM     30  C   UNL     1       5.977   1.444  10.732  0.00  0.00    +0.000 C 
ATOM     31  C   UNL     1       4.754   2.133  11.330  0.00  0.00    +0.000 C 
ATOM     32  C   UNL     1       4.962   3.641  11.452  0.00  0.00    +0.000 C 
ENDBRANCH  25  27
ENDBRANCH  22  23
ENDBRANCH  21  22
ENDBRANCH   8  21
TORSDOF 5
ENDMDL
MODEL 3
REMARK VINA RESULT:      -8.3      2.453      3.735
REMARK  Name = 
REMARK  6 active torsions:
REMARK  status: ('A' for Active; 'I' for Inactive)
REMARK    1  A    between atoms: C_1  and  C_2
REMARK    2  A    between atoms: C_7  and  C_8
REMARK    3  A    between atoms: C_15  and  C_16
REMARK    4  A    between atoms: C_16  and  C_17
REMARK    5  A    between atoms: C_17  and  C_18
REMARK    6  A    between atoms: N_20  and  C_21
REMARK                            x       y       z     vdW  Elec       q    Type
REMARK                         _______ _______ _______ _____ _____    ______ ____
ROOT
ATOM      1  C   UNL     1       2.086   6.524  19.245  0.00  0.00    +0.000 A 
ATOM      2  C   UNL     1       2.806   6.797  18.066  0.00  0.00    +0.000 A 
ATOM      3  C   UNL     1       2.971   8.107  17.588  0.00  0.00    +0.000 A 
ATOM      4  C   UNL     1       2.386   9.193  18.220  0.00  0.00    +0.000 A 
ATOM      5  N   UNL     1       2.526  10.428  17.708  0.00  0.00    +0.000 NA
ATOM      6  C   UNL     1       1.920  11.460  18.326  0.00  0.00    +0.000 A 
ATOM      7  N   UNL     1       2.100  12.691  17.701  0.00  0.00    +0.000 N 
ATOM      8  C   UNL     1       1.133  11.318  19.468  0.00  0.00    +0.000 A 
ATOM      9  C   UNL     1       1.021  10.030  20.004  0.00  0.00    +0.000 A 
ATOM     10  C   UNL     1       1.652   8.945  19.386  0.00  0.00    +0.000 A 
ATOM     11  C   UNL     1       1.551   7.639  19.906  0.00  0.00    +0.000 A 
ATOM     12  H   UNL     1       2.756  12.530  16.940  0.00  0.00    +0.000 HD
ATOM     13  H   UNL     1       2.430  13.399  18.344  0.00  0.00    +0.000 HD
ENDROOT
BRANCH   1  20
ATOM     14  C   UNL     1       1.220   4.074  17.521  0.00  0.00    +0.000 C 
ATOM     15  C   UNL     1       1.537   4.013  18.994  0.00  0.00    +0.000 A 
ATOM     16  C   UNL     1       1.411   2.745  19.603  0.00  0.00    +0.000 A 
ATOM     17  C   UNL     1       1.715   2.551  20.946  0.00  0.00    +0.000 A 
ATOM     18  C   UNL     1       2.135   3.626  21.712  0.00  0.00    +0.000 A 
ATOM     19  C   UNL     1       2.234   4.894  21.135  0.00  0.00    +0.000 A 
ATOM     20  C   UNL     1       1.940   5.133  19.768  0.00  0.00    +0.000 A 
ENDBRANCH   1  20
BRANCH   8  21
ATOM     21  C   UNL     1       0.444  12.467  20.168  0.00  0.00    +0.000 C 
BRANCH  21  22
ATOM     22  C   UNL     1      -0.689  13.108  19.370  0.00  0.00    +0.000 C 
BRANCH  22  23
ATOM     23  C   UNL     1      -1.934  12.247  19.370  0.00  0.00    +0.000 C 
ATOM     24  O   UNL     1      -2.474  11.829  20.391  0.00  0.00    +0.000 OA
ATOM     25  N   UNL     1      -2.406  11.999  18.097  0.00  0.00    +0.000 N 
ATOM     26  H   UNL     1      -1.809  12.241  17.317  0.00  0.00    +0.000 HD
BRANCH  25  27
ATOM     27  C   UNL     1      -3.567  11.152  17.850  0.00  0.00    +0.000 C 
ATOM     28  C   UNL     1      -4.310  11.605  16.587  0.00  0.00    +0.000 C 
ATOM     29  C   UNL     1      -3.565  11.258  15.298  0.00  0.00    +0.000 C 
ATOM     30  C   UNL     1      -3.193   9.780  15.241  0.00  0.00    +0.000 C 
ATOM     31  C   UNL     1      -2.409   9.348  16.476  0.00  0.00    +0.000 C 
ATOM     32  C   UNL     1      -3.165   9.674  17.763  0.00  0.00    +0.000 C 
ENDBRANCH  25  27
ENDBRANCH  22  23
ENDBRANCH  21  22
ENDBRANCH   8  21
TORSDOF 5
ENDMDL
MODEL 4
REMARK VINA RESULT:      -8.3      2.301      3.588
REMARK  Name = 
REMARK  6 active torsions:
REMARK  status: ('A' for Active; 'I' for Inactive)
REMARK    1  A    between atoms: C_1  and  C_2
REMARK    2  A    between atoms: C_7  and  C_8
REMARK    3  A    between atoms: C_15  and  C_16
REMARK    4  A    between atoms: C_16  and  C_17
REMARK    5  A    between atoms: C_17  and  C_18
REMARK    6  A    between atoms: N_20  and  C_21
REMARK                            x       y       z     vdW  Elec       q    Type
REMARK                         _______ _______ _______ _____ _____    ______ ____
ROOT
ATOM      1  C   UNL     1       4.314   6.081  17.642  0.00  0.00    +0.000 A 
ATOM      2  C   UNL     1       4.146   5.487  18.907  0.00  0.00    +0.000 A 
ATOM      3  C   UNL     1       3.220   5.985  19.839  0.00  0.00    +0.000 A 
ATOM      4  C   UNL     1       2.466   7.119  19.583  0.00  0.00    +0.000 A 
ATOM      5  N   UNL     1       1.623   7.595  20.516  0.00  0.00    +0.000 NA
ATOM      6  C   UNL     1       0.927   8.717  20.252  0.00  0.00    +0.000 A 
ATOM      7  N   UNL     1       0.106   9.144  21.292  0.00  0.00    +0.000 N 
ATOM      8  C   UNL     1       1.043   9.431  19.059  0.00  0.00    +0.000 A 
ATOM      9  C   UNL     1       1.903   8.907  18.088  0.00  0.00    +0.000 A 
ATOM     10  C   UNL     1       2.627   7.736  18.336  0.00  0.00    +0.000 A 
ATOM     11  C   UNL     1       3.501   7.191  17.374  0.00  0.00    +0.000 A 
ATOM     12  H   UNL     1       0.156   8.422  22.008  0.00  0.00    +0.000 HD
ATOM     13  H   UNL     1      -0.843   9.309  20.984  0.00  0.00    +0.000 HD
ENDROOT
BRANCH   1  20
ATOM     14  C   UNL     1       7.338   6.833  17.504  0.00  0.00    +0.000 C 
ATOM     15  C   UNL     1       6.652   5.873  16.564  0.00  0.00    +0.000 A 
ATOM     16  C   UNL     1       7.464   5.304  15.559  0.00  0.00    +0.000 A 
ATOM     17  C   UNL     1       6.959   4.373  14.657  0.00  0.00    +0.000 A 
ATOM     18  C   UNL     1       5.626   4.006  14.734  0.00  0.00    +0.000 A 
ATOM     19  C   UNL     1       4.800   4.582  15.700  0.00  0.00    +0.000 A 
ATOM     20  C   UNL     1       5.276   5.530  16.641  0.00  0.00    +0.000 A 
ENDBRANCH   1  20
BRANCH   8  21
ATOM     21  C   UNL     1       0.271  10.693  18.752  0.00  0.00    +0.000 C 
BRANCH  21  22
ATOM     22  C   UNL     1      -1.147  10.458  18.234  0.00  0.00    +0.000 C 
BRANCH  22  23
ATOM     23  C   UNL     1      -2.126  11.465  18.797  0.00  0.00    +0.000 C 
ATOM     24  O   UNL     1      -3.113  11.870  18.189  0.00  0.00    +0.000 OA
ATOM     25  N   UNL     1      -1.797  11.866  20.076  0.00  0.00    +0.000 N 
ATOM     26  H   UNL     1      -0.883  11.610  20.430  0.00  0.00    +0.000 HD
BRANCH  25  27
ATOM     27  C   UNL     1      -2.570  12.868  20.800  0.00  0.00    +0.000 C 
ATOM     28  C   UNL     1      -2.800  12.431  22.252  0.00  0.00    +0.000 C 
ATOM     29  C   UNL     1      -1.541  12.528  23.113  0.00  0.00    +0.000 C 
ATOM     30  C   UNL     1      -0.904  13.911  23.029  0.00  0.00    +0.000 C 
ATOM     31  C   UNL     1      -0.629  14.319  21.585  0.00  0.00    +0.000 C 
ATOM     32  C   UNL     1      -1.894  14.244  20.731  0.00  0.00    +0.000 C 
ENDBRANCH  25  27
ENDBRANCH  22  23
ENDBRANCH  21  22
ENDBRANCH   8  21
TORSDOF 5
ENDMDL
MODEL 5
REMARK VINA RESULT:      -8.2      3.067      3.938
REMARK  Name = 
REMARK  6 active torsions:
REMARK  status: ('A' for Active; 'I' for Inactive)
REMARK    1  A    between atoms: C_1  and  C_2
REMARK    2  A    between atoms: C_7  and  C_8
REMARK    3  A    between atoms: C_15  and  C_16
REMARK    4  A    between atoms: C_16  and  C_17
REMARK    5  A    between atoms: C_17  and  C_18
REMARK    6  A    between atoms: N_20  and  C_21
REMARK                            x       y       z     vdW  Elec       q    Type
REMARK                         _______ _______ _______ _____ _____    ______ ____
ROOT
ATOM      1  C   UNL     1       4.092   6.100  17.887  0.00  0.00    +0.000 A 
ATOM      2  C   UNL     1       3.817   5.466  19.114  0.00  0.00    +0.000 A 
ATOM      3  C   UNL     1       2.884   5.992  20.023  0.00  0.00    +0.000 A 
ATOM      4  C   UNL     1       2.230   7.189  19.785  0.00  0.00    +0.000 A 
ATOM      5  N   UNL     1       1.378   7.687  20.699  0.00  0.00    +0.000 NA
ATOM      6  C   UNL     1       0.780   8.869  20.455  0.00  0.00    +0.000 A 
ATOM      7  N   UNL     1      -0.058   9.311  21.474  0.00  0.00    +0.000 N 
ATOM      8  C   UNL     1       1.009   9.623  19.304  0.00  0.00    +0.000 A 
ATOM      9  C   UNL     1       1.875   9.078  18.351  0.00  0.00    +0.000 A 
ATOM     10  C   UNL     1       2.499   7.846  18.578  0.00  0.00    +0.000 A 
ATOM     11  C   UNL     1       3.377   7.279  17.634  0.00  0.00    +0.000 A 
ATOM     12  H   UNL     1      -0.098   8.557  22.157  0.00  0.00    +0.000 HD
ATOM     13  H   UNL     1      -0.977   9.560  21.130  0.00  0.00    +0.000 HD
ENDROOT
BRANCH   1  20
ATOM     14  C   UNL     1       7.000   7.144  17.456  0.00  0.00    +0.000 C 
ATOM     15  C   UNL     1       6.383   5.995  16.698  0.00  0.00    +0.000 A 
ATOM     16  C   UNL     1       7.204   5.383  15.727  0.00  0.00    +0.000 A 
ATOM     17  C   UNL     1       6.765   4.288  14.990  0.00  0.00    +0.000 A 
ATOM     18  C   UNL     1       5.488   3.794  15.200  0.00  0.00    +0.000 A 
ATOM     19  C   UNL     1       4.650   4.407  16.132  0.00  0.00    +0.000 A 
ATOM     20  C   UNL     1       5.061   5.522  16.908  0.00  0.00    +0.000 A 
ENDBRANCH   1  20
BRANCH   8  21
ATOM     21  C   UNL     1       0.347  10.952  19.020  0.00  0.00    +0.000 C 
BRANCH  21  22
ATOM     22  C   UNL     1       1.258  12.165  19.200  0.00  0.00    +0.000 C 
BRANCH  22  23
ATOM     23  C   UNL     1       1.127  12.767  20.582  0.00  0.00    +0.000 C 
ATOM     24  O   UNL     1       2.065  13.261  21.202  0.00  0.00    +0.000 OA
ATOM     25  N   UNL     1      -0.166  12.716  21.061  0.00  0.00    +0.000 N 
ATOM     26  H   UNL     1      -0.834  12.146  20.556  0.00  0.00    +0.000 HD
BRANCH  25  27
ATOM     27  C   UNL     1      -0.522  13.194  22.392  0.00  0.00    +0.000 C 
ATOM     28  C   UNL     1      -1.011  14.646  22.335  0.00  0.00    +0.000 C 
ATOM     29  C   UNL     1      -2.404  14.785  21.722  0.00  0.00    +0.000 C 
ATOM     30  C   UNL     1      -3.416  13.872  22.405  0.00  0.00    +0.000 C 
ATOM     31  C   UNL     1      -2.949  12.419  22.413  0.00  0.00    +0.000 C 
ATOM     32  C   UNL     1      -1.565  12.278  23.047  0.00  0.00    +0.000 C 
ENDBRANCH  25  27
ENDBRANCH  22  23
ENDBRANCH  21  22
ENDBRANCH   8  21
TORSDOF 5
ENDMDL
MODEL 6
REMARK VINA RESULT:      -8.2      2.138      3.023
REMARK  Name = 
REMARK  6 active torsions:
REMARK  status: ('A' for Active; 'I' for Inactive)
REMARK    1  A    between atoms: C_1  and  C_2
REMARK    2  A    between atoms: C_7  and  C_8
REMARK    3  A    between atoms: C_15  and  C_16
REMARK    4  A    between atoms: C_16  and  C_17
REMARK    5  A    between atoms: C_17  and  C_18
REMARK    6  A    between atoms: N_20  and  C_21
REMARK                            x       y       z     vdW  Elec       q    Type
REMARK                         _______ _______ _______ _____ _____    ______ ____
ROOT
ATOM      1  C   UNL     1       3.740   6.257  18.197  0.00  0.00    +0.000 A 
ATOM      2  C   UNL     1       3.482   5.760  19.490  0.00  0.00    +0.000 A 
ATOM      3  C   UNL     1       2.567   6.386  20.352  0.00  0.00    +0.000 A 
ATOM      4  C   UNL     1       1.915   7.556  19.998  0.00  0.00    +0.000 A 
ATOM      5  N   UNL     1       1.081   8.155  20.867  0.00  0.00    +0.000 NA
ATOM      6  C   UNL     1       0.486   9.308  20.508  0.00  0.00    +0.000 A 
ATOM      7  N   UNL     1      -0.333   9.862  21.487  0.00  0.00    +0.000 N 
ATOM      8  C   UNL     1       0.699   9.933  19.279  0.00  0.00    +0.000 A 
ATOM      9  C   UNL     1       1.546   9.283  18.376  0.00  0.00    +0.000 A 
ATOM     10  C   UNL     1       2.167   8.078  18.723  0.00  0.00    +0.000 A 
ATOM     11  C   UNL     1       3.027   7.407  17.831  0.00  0.00    +0.000 A 
ATOM     12  H   UNL     1      -0.365   9.185  22.247  0.00  0.00    +0.000 HD
ATOM     13  H   UNL     1      -1.256  10.079  21.133  0.00  0.00    +0.000 HD
ENDROOT
BRANCH   1  20
ATOM     14  C   UNL     1       3.275   3.424  16.977  0.00  0.00    +0.000 C 
ATOM     15  C   UNL     1       4.491   4.278  16.717  0.00  0.00    +0.000 A 
ATOM     16  C   UNL     1       5.470   3.718  15.868  0.00  0.00    +0.000 A 
ATOM     17  C   UNL     1       6.617   4.423  15.519  0.00  0.00    +0.000 A 
ATOM     18  C   UNL     1       6.816   5.696  16.027  0.00  0.00    +0.000 A 
ATOM     19  C   UNL     1       5.875   6.252  16.895  0.00  0.00    +0.000 A 
ATOM     20  C   UNL     1       4.689   5.570  17.271  0.00  0.00    +0.000 A 
ENDBRANCH   1  20
BRANCH   8  21
ATOM     21  C   UNL     1       0.039  11.228  18.865  0.00  0.00    +0.000 C 
BRANCH  21  22
ATOM     22  C   UNL     1      -1.321  11.059  18.191  0.00  0.00    +0.000 C 
BRANCH  22  23
ATOM     23  C   UNL     1      -2.410  11.815  18.923  0.00  0.00    +0.000 C 
ATOM     24  O   UNL     1      -3.600  11.752  18.628  0.00  0.00    +0.000 OA
ATOM     25  N   UNL     1      -1.918  12.569  19.969  0.00  0.00    +0.000 N 
ATOM     26  H   UNL     1      -0.915  12.691  20.033  0.00  0.00    +0.000 HD
BRANCH  25  27
ATOM     27  C   UNL     1      -2.777  13.419  20.786  0.00  0.00    +0.000 C 
ATOM     28  C   UNL     1      -3.304  12.648  22.003  0.00  0.00    +0.000 C 
ATOM     29  C   UNL     1      -2.233  12.409  23.068  0.00  0.00    +0.000 C 
ATOM     30  C   UNL     1      -1.538  13.704  23.472  0.00  0.00    +0.000 C 
ATOM     31  C   UNL     1      -0.970  14.440  22.262  0.00  0.00    +0.000 C 
ATOM     32  C   UNL     1      -2.046  14.700  21.208  0.00  0.00    +0.000 C 
ENDBRANCH  25  27
ENDBRANCH  22  23
ENDBRANCH  21  22
ENDBRANCH   8  21
TORSDOF 5
ENDMDL
MODEL 7
REMARK VINA RESULT:      -8.2      1.929      2.948
REMARK  Name = 
REMARK  6 active torsions:
REMARK  status: ('A' for Active; 'I' for Inactive)
REMARK    1  A    between atoms: C_1  and  C_2
REMARK    2  A    between atoms: C_7  and  C_8
REMARK    3  A    between atoms: C_15  and  C_16
REMARK    4  A    between atoms: C_16  and  C_17
REMARK    5  A    between atoms: C_17  and  C_18
REMARK    6  A    between atoms: N_20  and  C_21
REMARK                            x       y       z     vdW  Elec       q    Type
REMARK                         _______ _______ _______ _____ _____    ______ ____
ROOT
ATOM      1  C   UNL     1       2.182   6.939  18.999  0.00  0.00    +0.000 A 
ATOM      2  C   UNL     1       2.047   6.868  20.399  0.00  0.00    +0.000 A 
ATOM      3  C   UNL     1       1.559   7.950  21.150  0.00  0.00    +0.000 A 
ATOM      4  C   UNL     1       1.240   9.162  20.559  0.00  0.00    +0.000 A 
ATOM      5  N   UNL     1       0.820  10.192  21.314  0.00  0.00    +0.000 NA
ATOM      6  C   UNL     1       0.548  11.368  20.716  0.00  0.00    +0.000 A 
ATOM      7  N   UNL     1       0.150  12.378  21.587  0.00  0.00    +0.000 N 
ATOM      8  C   UNL     1       0.694  11.586  19.347  0.00  0.00    +0.000 A 
ATOM      9  C   UNL     1       1.104  10.497  18.572  0.00  0.00    +0.000 A 
ATOM     10  C   UNL     1       1.381   9.262  19.169  0.00  0.00    +0.000 A 
ATOM     11  C   UNL     1       1.799   8.152  18.409  0.00  0.00    +0.000 A 
ATOM     12  H   UNL     1       0.063  11.945  22.505  0.00  0.00    +0.000 HD
ATOM     13  H   UNL     1      -0.713  12.817  21.292  0.00  0.00    +0.000 HD
ENDROOT
BRANCH   1  20
ATOM     14  C   UNL     1       4.905   6.864  17.479  0.00  0.00    +0.000 C 
ATOM     15  C   UNL     1       3.904   5.735  17.497  0.00  0.00    +0.000 A 
ATOM     16  C   UNL     1       4.253   4.586  16.755  0.00  0.00    +0.000 A 
ATOM     17  C   UNL     1       3.434   3.463  16.727  0.00  0.00    +0.000 A 
ATOM     18  C   UNL     1       2.239   3.473  17.428  0.00  0.00    +0.000 A 
ATOM     19  C   UNL     1       1.862   4.613  18.141  0.00  0.00    +0.000 A 
ATOM     20  C   UNL     1       2.671   5.776  18.201  0.00  0.00    +0.000 A 
ENDBRANCH   1  20
BRANCH   8  21
ATOM     21  C   UNL     1       0.395  12.902  18.665  0.00  0.00    +0.000 C 
BRANCH  21  22
ATOM     22  C   UNL     1      -0.881  13.589  19.145  0.00  0.00    +0.000 C 
BRANCH  22  23
ATOM     23  C   UNL     1      -2.052  12.631  19.194  0.00  0.00    +0.000 C 
ATOM     24  O   UNL     1      -2.630  12.313  20.231  0.00  0.00    +0.000 OA
ATOM     25  N   UNL     1      -2.410  12.169  17.944  0.00  0.00    +0.000 N 
ATOM     26  H   UNL     1      -1.778  12.352  17.175  0.00  0.00    +0.000 HD
BRANCH  25  27
ATOM     27  C   UNL     1      -3.480  11.197  17.752  0.00  0.00    +0.000 C 
ATOM     28  C   UNL     1      -4.230  11.469  16.442  0.00  0.00    +0.000 C 
ATOM     29  C   UNL     1      -3.424  11.087  15.201  0.00  0.00    +0.000 C 
ATOM     30  C   UNL     1      -2.914   9.652  15.277  0.00  0.00    +0.000 C 
ATOM     31  C   UNL     1      -2.124   9.402  16.558  0.00  0.00    +0.000 C 
ATOM     32  C   UNL     1      -2.939   9.762  17.800  0.00  0.00    +0.000 C 
ENDBRANCH  25  27
ENDBRANCH  22  23
ENDBRANCH  21  22
ENDBRANCH   8  21
TORSDOF 5
ENDMDL
MODEL 8
REMARK VINA RESULT:      -8.2      1.157      1.335
REMARK  Name = 
REMARK  6 active torsions:
REMARK  status: ('A' for Active; 'I' for Inactive)
REMARK    1  A    between atoms: C_1  and  C_2
REMARK    2  A    between atoms: C_7  and  C_8
REMARK    3  A    between atoms: C_15  and  C_16
REMARK    4  A    between atoms: C_16  and  C_17
REMARK    5  A    between atoms: C_17  and  C_18
REMARK    6  A    between atoms: N_20  and  C_21
REMARK                            x       y       z     vdW  Elec       q    Type
REMARK                         _______ _______ _______ _____ _____    ______ ____
ROOT
ATOM      1  C   UNL     1       2.653   6.945  18.815  0.00  0.00    +0.000 A 
ATOM      2  C   UNL     1       2.378   6.453  20.106  0.00  0.00    +0.000 A 
ATOM      3  C   UNL     1       1.579   7.168  21.013  0.00  0.00    +0.000 A 
ATOM      4  C   UNL     1       1.069   8.419  20.707  0.00  0.00    +0.000 A 
ATOM      5  N   UNL     1       0.347   9.096  21.617  0.00  0.00    +0.000 NA
ATOM      6  C   UNL     1      -0.110  10.324  21.303  0.00  0.00    +0.000 A 
ATOM      7  N   UNL     1      -0.818  10.953  22.322  0.00  0.00    +0.000 N 
ATOM      8  C   UNL     1       0.140  10.947  20.080  0.00  0.00    +0.000 A 
ATOM      9  C   UNL     1       0.868  10.217  19.134  0.00  0.00    +0.000 A 
ATOM     10  C   UNL     1       1.342   8.936  19.434  0.00  0.00    +0.000 A 
ATOM     11  C   UNL     1       2.080   8.184  18.498  0.00  0.00    +0.000 A 
ATOM     12  H   UNL     1      -0.910  10.267  23.069  0.00  0.00    +0.000 HD
ATOM     13  H   UNL     1      -1.717  11.293  22.006  0.00  0.00    +0.000 HD
ENDROOT
BRANCH   1  20
ATOM     14  C   UNL     1       2.092   3.987  17.998  0.00  0.00    +0.000 C 
ATOM     15  C   UNL     1       3.235   4.818  17.470  0.00  0.00    +0.000 A 
ATOM     16  C   UNL     1       4.095   4.176  16.553  0.00  0.00    +0.000 A 
ATOM     17  C   UNL     1       5.161   4.848  15.964  0.00  0.00    +0.000 A 
ATOM     18  C   UNL     1       5.396   6.173  16.293  0.00  0.00    +0.000 A 
ATOM     19  C   UNL     1       4.576   6.814  17.223  0.00  0.00    +0.000 A 
ATOM     20  C   UNL     1       3.476   6.167  17.842  0.00  0.00    +0.000 A 
ENDBRANCH   1  20
BRANCH   8  21
ATOM     21  C   UNL     1      -0.364  12.325  19.717  0.00  0.00    +0.000 C 
BRANCH  21  22
ATOM     22  C   UNL     1      -1.684  12.335  18.948  0.00  0.00    +0.000 C 
BRANCH  22  23
ATOM     23  C   UNL     1      -2.871  12.510  19.871  0.00  0.00    +0.000 C 
ATOM     24  O   UNL     1      -2.771  12.716  21.077  0.00  0.00    +0.000 OA
ATOM     25  N   UNL     1      -4.076  12.429  19.204  0.00  0.00    +0.000 N 
ATOM     26  H   UNL     1      -4.065  12.093  18.248  0.00  0.00    +0.000 HD
BRANCH  25  27
ATOM     27  C   UNL     1      -5.356  12.519  19.896  0.00  0.00    +0.000 C 
ATOM     28  C   UNL     1      -6.019  13.877  19.636  0.00  0.00    +0.000 C 
ATOM     29  C   UNL     1      -6.579  14.008  18.220  0.00  0.00    +0.000 C 
ATOM     30  C   UNL     1      -7.503  12.847  17.868  0.00  0.00    +0.000 C 
ATOM     31  C   UNL     1      -6.819  11.499  18.079  0.00  0.00    +0.000 C 
ATOM     32  C   UNL     1      -6.281  11.360  19.502  0.00  0.00    +0.000 C 
ENDBRANCH  25  27
ENDBRANCH  22  23
ENDBRANCH  21  22
ENDBRANCH   8  21
TORSDOF 5
ENDMDL
MODEL 9
REMARK VINA RESULT:      -8.1      2.561      3.594
REMARK  Name = 
REMARK  6 active torsions:
REMARK  status: ('A' for Active; 'I' for Inactive)
REMARK    1  A    between atoms: C_1  and  C_2
REMARK    2  A    between atoms: C_7  and  C_8
REMARK    3  A    between atoms: C_15  and  C_16
REMARK    4  A    between atoms: C_16  and  C_17
REMARK    5  A    between atoms: C_17  and  C_18
REMARK    6  A    between atoms: N_20  and  C_21
REMARK                            x       y       z     vdW  Elec       q    Type
REMARK                         _______ _______ _______ _____ _____    ______ ____
ROOT
ATOM      1  C   UNL     1       2.330   7.054  19.374  0.00  0.00    +0.000 A 
ATOM      2  C   UNL     1       2.172   7.694  18.129  0.00  0.00    +0.000 A 
ATOM      3  C   UNL     1       1.585   8.966  18.023  0.00  0.00    +0.000 A 
ATOM      4  C   UNL     1       1.081   9.631  19.128  0.00  0.00    +0.000 A 
ATOM      5  N   UNL     1       0.483  10.827  18.983  0.00  0.00    +0.000 NA
ATOM      6  C   UNL     1      -0.026  11.436  20.071  0.00  0.00    +0.000 A 
ATOM      7  N   UNL     1      -0.650  12.652  19.811  0.00  0.00    +0.000 N 
ATOM      8  C   UNL     1       0.016  10.884  21.351  0.00  0.00    +0.000 A 
ATOM      9  C   UNL     1       0.666   9.653  21.489  0.00  0.00    +0.000 A 
ATOM     10  C   UNL     1       1.213   9.007  20.375  0.00  0.00    +0.000 A 
ATOM     11  C   UNL     1       1.869   7.766  20.490  0.00  0.00    +0.000 A 
ATOM     12  H   UNL     1      -0.484  12.851  18.826  0.00  0.00    +0.000 HD
ATOM     13  H   UNL     1      -0.306  13.392  20.410  0.00  0.00    +0.000 HD
ENDROOT
BRANCH   1  20
ATOM     14  C   UNL     1       0.892   4.468  20.358  0.00  0.00    +0.000 C 
ATOM     15  C   UNL     1       2.340   4.535  19.943  0.00  0.00    +0.000 A 
ATOM     16  C   UNL     1       3.065   3.327  20.031  0.00  0.00    +0.000 A 
ATOM     17  C   UNL     1       4.398   3.250  19.638  0.00  0.00    +0.000 A 
ATOM     18  C   UNL     1       5.035   4.385  19.165  0.00  0.00    +0.000 A 
ATOM     19  C   UNL     1       4.343   5.596  19.103  0.00  0.00    +0.000 A 
ATOM     20  C   UNL     1       2.983   5.716  19.487  0.00  0.00    +0.000 A 
ENDBRANCH   1  20
BRANCH   8  21
ATOM     21  C   UNL     1      -0.555  11.555  22.579  0.00  0.00    +0.000 C 
BRANCH  21  22
ATOM     22  C   UNL     1      -2.052  11.330  22.786  0.00  0.00    +0.000 C 
BRANCH  22  23
ATOM     23  C   UNL     1      -2.853  12.583  22.504  0.00  0.00    +0.000 C 
ATOM     24  O   UNL     1      -2.347  13.679  22.278  0.00  0.00    +0.000 OA
ATOM     25  N   UNL     1      -4.214  12.354  22.513  0.00  0.00    +0.000 N 
ATOM     26  H   UNL     1      -4.541  11.465  22.871  0.00  0.00    +0.000 HD
BRANCH  25  27
ATOM     27  C   UNL     1      -5.184  13.425  22.315  0.00  0.00    +0.000 C 
ATOM     28  C   UNL     1      -6.209  13.037  21.243  0.00  0.00    +0.000 C 
ATOM     29  C   UNL     1      -7.208  11.984  21.724  0.00  0.00    +0.000 C 
ATOM     30  C   UNL     1      -7.879  12.397  23.030  0.00  0.00    +0.000 C 
ATOM     31  C   UNL     1      -6.854  12.732  24.109  0.00  0.00    +0.000 C 
ATOM     32  C   UNL     1      -5.870  13.801  23.635  0.00  0.00    +0.000 C 
ENDBRANCH  25  27
ENDBRANCH  22  23
ENDBRANCH  21  22
ENDBRANCH   8  21
TORSDOF 5
ENDMDL
