MODEL 1
REMARK VINA RESULT:      -7.0      0.000      0.000
REMARK  Name = 
REMARK  12 active torsions:
REMARK  status: ('A' for Active; 'I' for Inactive)
REMARK    1  A    between atoms: C_1  and  O_2
REMARK    2  A    between atoms: O_2  and  C_3
REMARK    3  A    between atoms: C_3  and  C_4
REMARK    4  A    between atoms: C_4  and  N_5
REMARK    5  A    between atoms: N_5  and  C_6
REMARK    6  A    between atoms: C_9  and  N_10
REMARK    7  A    between atoms: C_14  and  C_15
REMARK    8  A    between atoms: N_17  and  C_18
REMARK    9  A    between atoms: C_18  and  C_19
REMARK   10  A    between atoms: C_22  and  O_23
REMARK   11  A    between atoms: O_23  and  C_24
REMARK   12  A    between atoms: C_25  and  O_26
REMARK                            x       y       z     vdW  Elec       q    Type
REMARK                         _______ _______ _______ _____ _____    ______ ____
ROOT
ATOM      1  C   UNL     1       4.026   3.995  17.359  0.00  0.00    +0.000 A 
ATOM      2  C   UNL     1       4.034   2.668  17.846  0.00  0.00    +0.000 A 
ATOM      3  C   UNL     1       3.411   2.290  19.033  0.00  0.00    +0.000 A 
ATOM      4  C   UNL     1       2.789   3.261  19.799  0.00  0.00    +0.000 A 
ATOM      5  C   UNL     1       2.788   4.600  19.389  0.00  0.00    +0.000 A 
ATOM      6  C   UNL     1       3.389   4.984  18.165  0.00  0.00    +0.000 A 
ENDROOT
BRANCH   6   7
ATOM      7  C   UNL     1       3.374   6.454  17.814  0.00  0.00    +0.000 C 
ATOM      8  O   UNL     1       4.287   6.970  17.183  0.00  0.00    +0.000 OA
ATOM      9  N   UNL     1       2.269   7.181  18.245  0.00  0.00    +0.000 N 
ATOM     10  H   UNL     1       1.415   6.696  18.479  0.00  0.00    +0.000 HD
BRANCH   9  11
ATOM     11  C   UNL     1       2.140   8.603  17.981  0.00  0.00    +0.000 C 
BRANCH  11  12
ATOM     12  C   UNL     1       1.320   9.316  19.035  0.00  0.00    +0.000 A 
ATOM     13  C   UNL     1       0.406  10.320  18.673  0.00  0.00    +0.000 A 
ATOM     14  C   UNL     1      -0.419  10.932  19.634  0.00  0.00    +0.000 A 
ATOM     15  C   UNL     1      -0.349  10.539  20.970  0.00  0.00    +0.000 A 
ATOM     16  C   UNL     1       0.542   9.522  21.320  0.00  0.00    +0.000 A 
ATOM     17  C   UNL     1       1.386   8.929  20.380  0.00  0.00    +0.000 A 
BRANCH  15  18
ATOM     18  O   UNL     1      -1.118  11.044  21.987  0.00  0.00    +0.000 OA
ATOM     19  C   UNL     1      -0.823  12.385  22.374  0.00  0.00    +0.000 C 
ENDBRANCH  15  18
BRANCH  16  20
ATOM     20  O   UNL     1       0.592   9.060  22.609  0.00  0.00    +0.000 OA
ATOM     21  H   UNL     1       1.544   8.995  22.821  0.00  0.00    +0.000 HD
ENDBRANCH  16  20
ENDBRANCH  11  12
ENDBRANCH   9  11
ENDBRANCH   6   7
BRANCH   4  22
ATOM     22  N   UNL     1       2.135   2.867  21.052  0.00  0.00    +0.000 N 
ATOM     23  O   UNL     1       0.903   2.953  21.118  0.00  0.00    +0.000 OA
ATOM     24  O   UNL     1       2.869   2.487  21.974  0.00  0.00    +0.000 OA
ENDBRANCH   4  22
BRANCH   1  25
ATOM     25  N   UNL     1       4.746   4.299  16.188  0.00  0.00    +0.000 N 
ATOM     26  H   UNL     1       4.209   4.206  15.323  0.00  0.00    +0.000 HD
BRANCH  25  27
ATOM     27  C   UNL     1       6.184   4.017  16.134  0.00  0.00    +0.000 C 
BRANCH  27  28
ATOM     28  C   UNL     1       7.099   5.053  16.781  0.00  0.00    +0.000 C 
BRANCH  28  30
ATOM     29  C   UNL     1       7.358   5.616  19.083  0.00  0.00    +0.000 C 
ATOM     30  O   UNL     1       7.357   4.582  18.114  0.00  0.00    +0.000 OA
ENDBRANCH  28  30
ENDBRANCH  27  28
ENDBRANCH  25  27
ENDBRANCH   1  25
TORSDOF 10
ENDMDL
MODEL 2
REMARK VINA RESULT:      -6.9      1.898      4.120
REMARK  Name = 
REMARK  12 active torsions:
REMARK  status: ('A' for Active; 'I' for Inactive)
REMARK    1  A    between atoms: C_1  and  O_2
REMARK    2  A    between atoms: O_2  and  C_3
REMARK    3  A    between atoms: C_3  and  C_4
REMARK    4  A    between atoms: C_4  and  N_5
REMARK    5  A    between atoms: N_5  and  C_6
REMARK    6  A    between atoms: C_9  and  N_10
REMARK    7  A    between atoms: C_14  and  C_15
REMARK    8  A    between atoms: N_17  and  C_18
REMARK    9  A    between atoms: C_18  and  C_19
REMARK   10  A    between atoms: C_22  and  O_23
REMARK   11  A    between atoms: O_23  and  C_24
REMARK   12  A    between atoms: C_25  and  O_26
REMARK                            x       y       z     vdW  Elec       q    Type
REMARK                         _______ _______ _______ _____ _____    ______ ____
ROOT
ATOM      1  C   UNL     1       4.114   4.127  17.324  0.00  0.00    +0.000 A 
ATOM      2  C   UNL     1       5.353   3.975  16.662  0.00  0.00    +0.000 A 
ATOM      3  C   UNL     1       6.404   4.878  16.797  0.00  0.00    +0.000 A 
ATOM      4  C   UNL     1       6.219   6.005  17.582  0.00  0.00    +0.000 A 
ATOM      5  C   UNL     1       4.996   6.231  18.225  0.00  0.00    +0.000 A 
ATOM      6  C   UNL     1       3.937   5.297  18.120  0.00  0.00    +0.000 A 
ENDROOT
BRANCH   6   7
ATOM      7  C   UNL     1       2.640   5.637  18.818  0.00  0.00    +0.000 C 
ATOM      8  O   UNL     1       1.558   5.298  18.355  0.00  0.00    +0.000 OA
ATOM      9  N   UNL     1       2.746   6.348  20.009  0.00  0.00    +0.000 N 
ATOM     10  H   UNL     1       3.620   6.344  20.514  0.00  0.00    +0.000 HD
BRANCH   9  11
ATOM     11  C   UNL     1       1.574   6.743  20.770  0.00  0.00    +0.000 C 
BRANCH  11  12
ATOM     12  C   UNL     1       1.310   8.232  20.695  0.00  0.00    +0.000 A 
ATOM     13  C   UNL     1       1.426   8.918  19.474  0.00  0.00    +0.000 A 
ATOM     14  C   UNL     1       1.104  10.284  19.376  0.00  0.00    +0.000 A 
ATOM     15  C   UNL     1       0.652  10.981  20.496  0.00  0.00    +0.000 A 
ATOM     16  C   UNL     1       0.514  10.287  21.701  0.00  0.00    +0.000 A 
ATOM     17  C   UNL     1       0.857   8.939  21.816  0.00  0.00    +0.000 A 
BRANCH  15  18
ATOM     18  O   UNL     1       0.287  12.302  20.516  0.00  0.00    +0.000 OA
ATOM     19  C   UNL     1       1.200  13.202  19.891  0.00  0.00    +0.000 C 
ENDBRANCH  15  18
BRANCH  16  20
ATOM     20  O   UNL     1       0.008  10.917  22.807  0.00  0.00    +0.000 OA
ATOM     21  H   UNL     1      -0.511  10.235  23.276  0.00  0.00    +0.000 HD
ENDBRANCH  16  20
ENDBRANCH  11  12
ENDBRANCH   9  11
ENDBRANCH   6   7
BRANCH   4  22
ATOM     22  N   UNL     1       7.324   6.960  17.723  0.00  0.00    +0.000 N 
ATOM     23  O   UNL     1       7.433   7.855  16.876  0.00  0.00    +0.000 OA
ATOM     24  O   UNL     1       8.091   6.794  18.681  0.00  0.00    +0.000 OA
ENDBRANCH   4  22
BRANCH   1  25
ATOM     25  N   UNL     1       3.082   3.204  17.069  0.00  0.00    +0.000 N 
ATOM     26  H   UNL     1       2.210   3.621  16.741  0.00  0.00    +0.000 HD
BRANCH  25  27
ATOM     27  C   UNL     1       2.997   1.982  17.875  0.00  0.00    +0.000 C 
BRANCH  27  28
ATOM     28  C   UNL     1       1.952   1.979  18.988  0.00  0.00    +0.000 C 
BRANCH  28  30
ATOM     29  C   UNL     1       1.725   2.772  21.224  0.00  0.00    +0.000 C 
ATOM     30  O   UNL     1       2.614   2.486  20.158  0.00  0.00    +0.000 OA
ENDBRANCH  28  30
ENDBRANCH  27  28
ENDBRANCH  25  27
ENDBRANCH   1  25
TORSDOF 10
ENDMDL
MODEL 3
REMARK VINA RESULT:      -6.9      1.295      1.705
REMARK  Name = 
REMARK  12 active torsions:
REMARK  status: ('A' for Active; 'I' for Inactive)
REMARK    1  A    between atoms: C_1  and  O_2
REMARK    2  A    between atoms: O_2  and  C_3
REMARK    3  A    between atoms: C_3  and  C_4
REMARK    4  A    between atoms: C_4  and  N_5
REMARK    5  A    between atoms: N_5  and  C_6
REMARK    6  A    between atoms: C_9  and  N_10
REMARK    7  A    between atoms: C_14  and  C_15
REMARK    8  A    between atoms: N_17  and  C_18
REMARK    9  A    between atoms: C_18  and  C_19
REMARK   10  A    between atoms: C_22  and  O_23
REMARK   11  A    between atoms: O_23  and  C_24
REMARK   12  A    between atoms: C_25  and  O_26
REMARK                            x       y       z     vdW  Elec       q    Type
REMARK                         _______ _______ _______ _____ _____    ______ ____
ROOT
ATOM      1  C   UNL     1       4.459   5.122  18.349  0.00  0.00    +0.000 A 
ATOM      2  C   UNL     1       4.748   3.850  18.893  0.00  0.00    +0.000 A 
ATOM      3  C   UNL     1       3.926   3.214  19.819  0.00  0.00    +0.000 A 
ATOM      4  C   UNL     1       2.792   3.870  20.267  0.00  0.00    +0.000 A 
ATOM      5  C   UNL     1       2.478   5.151  19.797  0.00  0.00    +0.000 A 
ATOM      6  C   UNL     1       3.292   5.787  18.828  0.00  0.00    +0.000 A 
ENDROOT
BRANCH   6   7
ATOM      7  C   UNL     1       2.901   7.184  18.402  0.00  0.00    +0.000 C 
ATOM      8  O   UNL     1       3.393   7.711  17.412  0.00  0.00    +0.000 OA
ATOM      9  N   UNL     1       1.954   7.830  19.191  0.00  0.00    +0.000 N 
ATOM     10  H   UNL     1       1.354   7.285  19.793  0.00  0.00    +0.000 HD
BRANCH   9  11
ATOM     11  C   UNL     1       1.503   9.177  18.893  0.00  0.00    +0.000 C 
BRANCH  11  12
ATOM     12  C   UNL     1       0.859   9.849  20.088  0.00  0.00    +0.000 A 
ATOM     13  C   UNL     1       0.370  11.163  19.991  0.00  0.00    +0.000 A 
ATOM     14  C   UNL     1      -0.303  11.768  21.068  0.00  0.00    +0.000 A 
ATOM     15  C   UNL     1      -0.505  11.062  22.254  0.00  0.00    +0.000 A 
ATOM     16  C   UNL     1      -0.040   9.748  22.335  0.00  0.00    +0.000 A 
ATOM     17  C   UNL     1       0.654   9.148  21.283  0.00  0.00    +0.000 A 
BRANCH  15  18
ATOM     18  O   UNL     1      -1.165  11.537  23.358  0.00  0.00    +0.000 OA
ATOM     19  C   UNL     1      -2.323  12.326  23.090  0.00  0.00    +0.000 C 
ENDBRANCH  15  18
BRANCH  16  20
ATOM     20  O   UNL     1      -0.278   8.998  23.457  0.00  0.00    +0.000 OA
ATOM     21  H   UNL     1      -1.038   9.428  23.896  0.00  0.00    +0.000 HD
ENDBRANCH  16  20
ENDBRANCH  11  12
ENDBRANCH   9  11
ENDBRANCH   6   7
BRANCH   4  22
ATOM     22  N   UNL     1       1.925   3.203  21.246  0.00  0.00    +0.000 N 
ATOM     23  O   UNL     1       0.813   2.814  20.869  0.00  0.00    +0.000 OA
ATOM     24  O   UNL     1       2.363   3.090  22.399  0.00  0.00    +0.000 OA
ENDBRANCH   4  22
BRANCH   1  25
ATOM     25  N   UNL     1       5.386   5.720  17.475  0.00  0.00    +0.000 N 
ATOM     26  H   UNL     1       4.984   6.065  16.601  0.00  0.00    +0.000 HD
BRANCH  25  27
ATOM     27  C   UNL     1       6.768   5.230  17.447  0.00  0.00    +0.000 C 
BRANCH  27  28
ATOM     28  C   UNL     1       7.263   4.682  16.112  0.00  0.00    +0.000 C 
BRANCH  28  30
ATOM     29  C   UNL     1       5.982   4.022  14.213  0.00  0.00    +0.000 C 
ATOM     30  O   UNL     1       6.204   3.855  15.603  0.00  0.00    +0.000 OA
ENDBRANCH  28  30
ENDBRANCH  27  28
ENDBRANCH  25  27
ENDBRANCH   1  25
TORSDOF 10
ENDMDL
MODEL 4
REMARK VINA RESULT:      -6.8      1.222      1.698
REMARK  Name = 
REMARK  12 active torsions:
REMARK  status: ('A' for Active; 'I' for Inactive)
REMARK    1  A    between atoms: C_1  and  O_2
REMARK    2  A    between atoms: O_2  and  C_3
REMARK    3  A    between atoms: C_3  and  C_4
REMARK    4  A    between atoms: C_4  and  N_5
REMARK    5  A    between atoms: N_5  and  C_6
REMARK    6  A    between atoms: C_9  and  N_10
REMARK    7  A    between atoms: C_14  and  C_15
REMARK    8  A    between atoms: N_17  and  C_18
REMARK    9  A    between atoms: C_18  and  C_19
REMARK   10  A    between atoms: C_22  and  O_23
REMARK   11  A    between atoms: O_23  and  C_24
REMARK   12  A    between atoms: C_25  and  O_26
REMARK                            x       y       z     vdW  Elec       q    Type
REMARK                         _______ _______ _______ _____ _____    ______ ____
ROOT
ATOM      1  C   UNL     1       3.926   4.066  17.310  0.00  0.00    +0.000 A 
ATOM      2  C   UNL     1       3.907   2.724  17.753  0.00  0.00    +0.000 A 
ATOM      3  C   UNL     1       3.330   2.328  18.956  0.00  0.00    +0.000 A 
ATOM      4  C   UNL     1       2.786   3.295  19.786  0.00  0.00    +0.000 A 
ATOM      5  C   UNL     1       2.817   4.646  19.420  0.00  0.00    +0.000 A 
ATOM      6  C   UNL     1       3.370   5.049  18.180  0.00  0.00    +0.000 A 
ENDROOT
BRANCH   6   7
ATOM      7  C   UNL     1       3.395   6.530  17.880  0.00  0.00    +0.000 C 
ATOM      8  O   UNL     1       4.399   7.077  17.443  0.00  0.00    +0.000 OA
ATOM      9  N   UNL     1       2.217   7.231  18.123  0.00  0.00    +0.000 N 
ATOM     10  H   UNL     1       1.343   6.729  18.182  0.00  0.00    +0.000 HD
BRANCH   9  11
ATOM     11  C   UNL     1       2.115   8.660  17.885  0.00  0.00    +0.000 C 
BRANCH  11  12
ATOM     12  C   UNL     1       1.296   9.366  18.944  0.00  0.00    +0.000 A 
ATOM     13  C   UNL     1       0.455  10.438  18.601  0.00  0.00    +0.000 A 
ATOM     14  C   UNL     1      -0.372  11.048  19.561  0.00  0.00    +0.000 A 
ATOM     15  C   UNL     1      -0.377  10.587  20.877  0.00  0.00    +0.000 A 
ATOM     16  C   UNL     1       0.441   9.504  21.207  0.00  0.00    +0.000 A 
ATOM     17  C   UNL     1       1.287   8.910  20.269  0.00  0.00    +0.000 A 
BRANCH  15  18
ATOM     18  O   UNL     1      -1.156  11.085  21.890  0.00  0.00    +0.000 OA
ATOM     19  C   UNL     1      -0.762  12.358  22.400  0.00  0.00    +0.000 C 
ENDBRANCH  15  18
BRANCH  16  20
ATOM     20  O   UNL     1       0.415   8.977  22.472  0.00  0.00    +0.000 OA
ATOM     21  H   UNL     1       1.095   8.276  22.471  0.00  0.00    +0.000 HD
ENDBRANCH  16  20
ENDBRANCH  11  12
ENDBRANCH   9  11
ENDBRANCH   6   7
BRANCH   4  22
ATOM     22  N   UNL     1       2.181   2.881  21.058  0.00  0.00    +0.000 N 
ATOM     23  O   UNL     1       0.953   2.969  21.174  0.00  0.00    +0.000 OA
ATOM     24  O   UNL     1       2.951   2.485  21.943  0.00  0.00    +0.000 OA
ENDBRANCH   4  22
BRANCH   1  25
ATOM     25  N   UNL     1       4.596   4.383  16.114  0.00  0.00    +0.000 N 
ATOM     26  H   UNL     1       4.012   4.345  15.276  0.00  0.00    +0.000 HD
BRANCH  25  27
ATOM     27  C   UNL     1       6.017   4.045  15.974  0.00  0.00    +0.000 C 
BRANCH  27  28
ATOM     28  C   UNL     1       6.667   4.396  14.639  0.00  0.00    +0.000 C 
BRANCH  28  30
ATOM     29  C   UNL     1       6.572   3.723  12.354  0.00  0.00    +0.000 C 
ATOM     30  O   UNL     1       6.033   3.562  13.655  0.00  0.00    +0.000 OA
ENDBRANCH  28  30
ENDBRANCH  27  28
ENDBRANCH  25  27
ENDBRANCH   1  25
TORSDOF 10
ENDMDL
MODEL 5
REMARK VINA RESULT:      -6.8      0.979      1.649
REMARK  Name = 
REMARK  12 active torsions:
REMARK  status: ('A' for Active; 'I' for Inactive)
REMARK    1  A    between atoms: C_1  and  O_2
REMARK    2  A    between atoms: O_2  and  C_3
REMARK    3  A    between atoms: C_3  and  C_4
REMARK    4  A    between atoms: C_4  and  N_5
REMARK    5  A    between atoms: N_5  and  C_6
REMARK    6  A    between atoms: C_9  and  N_10
REMARK    7  A    between atoms: C_14  and  C_15
REMARK    8  A    between atoms: N_17  and  C_18
REMARK    9  A    between atoms: C_18  and  C_19
REMARK   10  A    between atoms: C_22  and  O_23
REMARK   11  A    between atoms: O_23  and  C_24
REMARK   12  A    between atoms: C_25  and  O_26
REMARK                            x       y       z     vdW  Elec       q    Type
REMARK                         _______ _______ _______ _____ _____    ______ ____
ROOT
ATOM      1  C   UNL     1       4.016   4.349  17.343  0.00  0.00    +0.000 A 
ATOM      2  C   UNL     1       4.032   3.012  17.800  0.00  0.00    +0.000 A 
ATOM      3  C   UNL     1       3.401   2.602  18.971  0.00  0.00    +0.000 A 
ATOM      4  C   UNL     1       2.762   3.550  19.753  0.00  0.00    +0.000 A 
ATOM      5  C   UNL     1       2.753   4.898  19.373  0.00  0.00    +0.000 A 
ATOM      6  C   UNL     1       3.362   5.314  18.164  0.00  0.00    +0.000 A 
ENDROOT
BRANCH   6   7
ATOM      7  C   UNL     1       3.337   6.792  17.847  0.00  0.00    +0.000 C 
ATOM      8  O   UNL     1       4.252   7.330  17.238  0.00  0.00    +0.000 OA
ATOM      9  N   UNL     1       2.219   7.499  18.281  0.00  0.00    +0.000 N 
ATOM     10  H   UNL     1       1.368   7.000  18.494  0.00  0.00    +0.000 HD
BRANCH   9  11
ATOM     11  C   UNL     1       2.080   8.925  18.047  0.00  0.00    +0.000 C 
BRANCH  11  12
ATOM     12  C   UNL     1       1.078   9.569  18.982  0.00  0.00    +0.000 A 
ATOM     13  C   UNL     1       0.925   9.102  20.298  0.00  0.00    +0.000 A 
ATOM     14  C   UNL     1       0.058   9.745  21.200  0.00  0.00    +0.000 A 
ATOM     15  C   UNL     1      -0.662  10.870  20.800  0.00  0.00    +0.000 A 
ATOM     16  C   UNL     1      -0.486  11.346  19.499  0.00  0.00    +0.000 A 
ATOM     17  C   UNL     1       0.350  10.700  18.587  0.00  0.00    +0.000 A 
BRANCH  15  18
ATOM     18  O   UNL     1      -1.515  11.591  21.596  0.00  0.00    +0.000 OA
ATOM     19  C   UNL     1      -1.125  11.716  22.962  0.00  0.00    +0.000 C 
ENDBRANCH  15  18
BRANCH  16  20
ATOM     20  O   UNL     1      -1.121  12.488  19.089  0.00  0.00    +0.000 OA
ATOM     21  H   UNL     1      -1.530  12.260  18.231  0.00  0.00    +0.000 HD
ENDBRANCH  16  20
ENDBRANCH  11  12
ENDBRANCH   9  11
ENDBRANCH   6   7
BRANCH   4  22
ATOM     22  N   UNL     1       2.098   3.121  20.990  0.00  0.00    +0.000 N 
ATOM     23  O   UNL     1       2.800   2.661  21.898  0.00  0.00    +0.000 OA
ATOM     24  O   UNL     1       0.866   3.232  21.033  0.00  0.00    +0.000 OA
ENDBRANCH   4  22
BRANCH   1  25
ATOM     25  N   UNL     1       4.745   4.687  16.186  0.00  0.00    +0.000 N 
ATOM     26  H   UNL     1       4.181   5.066  15.424  0.00  0.00    +0.000 HD
BRANCH  25  27
ATOM     27  C   UNL     1       5.936   3.906  15.834  0.00  0.00    +0.000 C 
BRANCH  27  28
ATOM     28  C   UNL     1       7.278   4.493  16.262  0.00  0.00    +0.000 C 
BRANCH  28  30
ATOM     29  C   UNL     1       7.444   6.559  17.440  0.00  0.00    +0.000 C 
ATOM     30  O   UNL     1       7.122   5.921  16.216  0.00  0.00    +0.000 OA
ENDBRANCH  28  30
ENDBRANCH  27  28
ENDBRANCH  25  27
ENDBRANCH   1  25
TORSDOF 10
ENDMDL
MODEL 6
REMARK VINA RESULT:      -6.7      2.084      4.343
REMARK  Name = 
REMARK  12 active torsions:
REMARK  status: ('A' for Active; 'I' for Inactive)
REMARK    1  A    between atoms: C_1  and  O_2
REMARK    2  A    between atoms: O_2  and  C_3
REMARK    3  A    between atoms: C_3  and  C_4
REMARK    4  A    between atoms: C_4  and  N_5
REMARK    5  A    between atoms: N_5  and  C_6
REMARK    6  A    between atoms: C_9  and  N_10
REMARK    7  A    between atoms: C_14  and  C_15
REMARK    8  A    between atoms: N_17  and  C_18
REMARK    9  A    between atoms: C_18  and  C_19
REMARK   10  A    between atoms: C_22  and  O_23
REMARK   11  A    between atoms: O_23  and  C_24
REMARK   12  A    between atoms: C_25  and  O_26
REMARK                            x       y       z     vdW  Elec       q    Type
REMARK                         _______ _______ _______ _____ _____    ______ ____
ROOT
ATOM      1  C   UNL     1       4.103   3.975  17.461  0.00  0.00    +0.000 A 
ATOM      2  C   UNL     1       5.350   3.693  16.860  0.00  0.00    +0.000 A 
ATOM      3  C   UNL     1       6.441   4.555  16.933  0.00  0.00    +0.000 A 
ATOM      4  C   UNL     1       6.292   5.767  17.587  0.00  0.00    +0.000 A 
ATOM      5  C   UNL     1       5.065   6.119  18.163  0.00  0.00    +0.000 A 
ATOM      6  C   UNL     1       3.963   5.231  18.122  0.00  0.00    +0.000 A 
ENDROOT
BRANCH   6   7
ATOM      7  C   UNL     1       2.667   5.704  18.738  0.00  0.00    +0.000 C 
ATOM      8  O   UNL     1       1.586   5.459  18.217  0.00  0.00    +0.000 OA
ATOM      9  N   UNL     1       2.771   6.426  19.923  0.00  0.00    +0.000 N 
ATOM     10  H   UNL     1       3.610   6.350  20.478  0.00  0.00    +0.000 HD
BRANCH   9  11
ATOM     11  C   UNL     1       1.600   6.944  20.607  0.00  0.00    +0.000 C 
BRANCH  11  12
ATOM     12  C   UNL     1       1.289   8.374  20.219  0.00  0.00    +0.000 A 
ATOM     13  C   UNL     1       0.678   9.247  21.135  0.00  0.00    +0.000 A 
ATOM     14  C   UNL     1       0.459  10.599  20.814  0.00  0.00    +0.000 A 
ATOM     15  C   UNL     1       0.857  11.099  19.575  0.00  0.00    +0.000 A 
ATOM     16  C   UNL     1       1.488  10.234  18.678  0.00  0.00    +0.000 A 
ATOM     17  C   UNL     1       1.685   8.884  18.975  0.00  0.00    +0.000 A 
BRANCH  15  18
ATOM     18  O   UNL     1       0.719  12.400  19.162  0.00  0.00    +0.000 OA
ATOM     19  C   UNL     1       1.584  13.341  19.792  0.00  0.00    +0.000 C 
ENDBRANCH  15  18
BRANCH  16  20
ATOM     20  O   UNL     1       1.956  10.702  17.479  0.00  0.00    +0.000 OA
ATOM     21  H   UNL     1       2.066   9.908  16.919  0.00  0.00    +0.000 HD
ENDBRANCH  16  20
ENDBRANCH  11  12
ENDBRANCH   9  11
ENDBRANCH   6   7
BRANCH   4  22
ATOM     22  N   UNL     1       7.440   6.679  17.663  0.00  0.00    +0.000 N 
ATOM     23  O   UNL     1       7.668   7.409  16.692  0.00  0.00    +0.000 OA
ATOM     24  O   UNL     1       8.119   6.642  18.698  0.00  0.00    +0.000 OA
ENDBRANCH   4  22
BRANCH   1  25
ATOM     25  N   UNL     1       3.033   3.079  17.272  0.00  0.00    +0.000 N 
ATOM     26  H   UNL     1       2.262   3.450  16.715  0.00  0.00    +0.000 HD
BRANCH  25  27
ATOM     27  C   UNL     1       2.714   2.109  18.324  0.00  0.00    +0.000 C 
BRANCH  27  28
ATOM     28  C   UNL     1       1.296   2.165  18.886  0.00  0.00    +0.000 C 
BRANCH  28  30
ATOM     29  C   UNL     1       2.780   2.620  20.695  0.00  0.00    +0.000 C 
ATOM     30  O   UNL     1       1.431   2.478  20.282  0.00  0.00    +0.000 OA
ENDBRANCH  28  30
ENDBRANCH  27  28
ENDBRANCH  25  27
ENDBRANCH   1  25
TORSDOF 10
ENDMDL
MODEL 7
REMARK VINA RESULT:      -6.7      1.541      1.965
REMARK  Name = 
REMARK  12 active torsions:
REMARK  status: ('A' for Active; 'I' for Inactive)
REMARK    1  A    between atoms: C_1  and  O_2
REMARK    2  A    between atoms: O_2  and  C_3
REMARK    3  A    between atoms: C_3  and  C_4
REMARK    4  A    between atoms: C_4  and  N_5
REMARK    5  A    between atoms: N_5  and  C_6
REMARK    6  A    between atoms: C_9  and  N_10
REMARK    7  A    between atoms: C_14  and  C_15
REMARK    8  A    between atoms: N_17  and  C_18
REMARK    9  A    between atoms: C_18  and  C_19
REMARK   10  A    between atoms: C_22  and  O_23
REMARK   11  A    between atoms: O_23  and  C_24
REMARK   12  A    between atoms: C_25  and  O_26
REMARK                            x       y       z     vdW  Elec       q    Type
REMARK                         _______ _______ _______ _____ _____    ______ ____
ROOT
ATOM      1  C   UNL     1       4.281   4.823  17.275  0.00  0.00    +0.000 A 
ATOM      2  C   UNL     1       4.237   3.421  17.448  0.00  0.00    +0.000 A 
ATOM      3  C   UNL     1       3.174   2.763  18.059  0.00  0.00    +0.000 A 
ATOM      4  C   UNL     1       2.125   3.514  18.563  0.00  0.00    +0.000 A 
ATOM      5  C   UNL     1       2.135   4.910  18.462  0.00  0.00    +0.000 A 
ATOM      6  C   UNL     1       3.198   5.582  17.809  0.00  0.00    +0.000 A 
ENDROOT
BRANCH   6   7
ATOM      7  C   UNL     1       3.148   7.092  17.774  0.00  0.00    +0.000 C 
ATOM      8  O   UNL     1       4.166   7.763  17.669  0.00  0.00    +0.000 OA
ATOM      9  N   UNL     1       1.886   7.672  17.864  0.00  0.00    +0.000 N 
ATOM     10  H   UNL     1       1.069   7.121  17.642  0.00  0.00    +0.000 HD
BRANCH   9  11
ATOM     11  C   UNL     1       1.704   9.112  17.852  0.00  0.00    +0.000 C 
BRANCH  11  12
ATOM     12  C   UNL     1       1.011   9.619  19.099  0.00  0.00    +0.000 A 
ATOM     13  C   UNL     1      -0.207  10.313  19.009  0.00  0.00    +0.000 A 
ATOM     14  C   UNL     1      -0.901  10.716  20.164  0.00  0.00    +0.000 A 
ATOM     15  C   UNL     1      -0.390  10.420  21.427  0.00  0.00    +0.000 A 
ATOM     16  C   UNL     1       0.807   9.706  21.512  0.00  0.00    +0.000 A 
ATOM     17  C   UNL     1       1.518   9.326  20.372  0.00  0.00    +0.000 A 
BRANCH  15  18
ATOM     18  O   UNL     1      -0.987  10.739  22.620  0.00  0.00    +0.000 OA
ATOM     19  C   UNL     1      -1.172  12.133  22.862  0.00  0.00    +0.000 C 
ENDBRANCH  15  18
BRANCH  16  20
ATOM     20  O   UNL     1       1.307   9.336  22.733  0.00  0.00    +0.000 OA
ATOM     21  H   UNL     1       1.337  10.159  23.258  0.00  0.00    +0.000 HD
ENDBRANCH  16  20
ENDBRANCH  11  12
ENDBRANCH   9  11
ENDBRANCH   6   7
BRANCH   4  22
ATOM     22  N   UNL     1       1.004   2.823  19.211  0.00  0.00    +0.000 N 
ATOM     23  O   UNL     1       0.182   2.244  18.491  0.00  0.00    +0.000 OA
ATOM     24  O   UNL     1       0.947   2.882  20.447  0.00  0.00    +0.000 OA
ENDBRANCH   4  22
BRANCH   1  25
ATOM     25  N   UNL     1       5.431   5.409  16.712  0.00  0.00    +0.000 N 
ATOM     26  H   UNL     1       5.825   6.179  17.256  0.00  0.00    +0.000 HD
BRANCH  25  27
ATOM     27  C   UNL     1       5.572   5.458  15.254  0.00  0.00    +0.000 C 
BRANCH  27  28
ATOM     28  C   UNL     1       6.819   4.796  14.673  0.00  0.00    +0.000 C 
BRANCH  28  30
ATOM     29  C   UNL     1       5.987   3.598  12.788  0.00  0.00    +0.000 C 
ATOM     30  O   UNL     1       6.390   3.531  14.145  0.00  0.00    +0.000 OA
ENDBRANCH  28  30
ENDBRANCH  27  28
ENDBRANCH  25  27
ENDBRANCH   1  25
TORSDOF 10
ENDMDL
MODEL 8
REMARK VINA RESULT:      -6.7      2.318      4.816
REMARK  Name = 
REMARK  12 active torsions:
REMARK  status: ('A' for Active; 'I' for Inactive)
REMARK    1  A    between atoms: C_1  and  O_2
REMARK    2  A    between atoms: O_2  and  C_3
REMARK    3  A    between atoms: C_3  and  C_4
REMARK    4  A    between atoms: C_4  and  N_5
REMARK    5  A    between atoms: N_5  and  C_6
REMARK    6  A    between atoms: C_9  and  N_10
REMARK    7  A    between atoms: C_14  and  C_15
REMARK    8  A    between atoms: N_17  and  C_18
REMARK    9  A    between atoms: C_18  and  C_19
REMARK   10  A    between atoms: C_22  and  O_23
REMARK   11  A    between atoms: O_23  and  C_24
REMARK   12  A    between atoms: C_25  and  O_26
REMARK                            x       y       z     vdW  Elec       q    Type
REMARK                         _______ _______ _______ _____ _____    ______ ____
ROOT
ATOM      1  C   UNL     1       2.393   5.173  18.918  0.00  0.00    +0.000 A 
ATOM      2  C   UNL     1       3.039   4.282  18.031  0.00  0.00    +0.000 A 
ATOM      3  C   UNL     1       3.998   4.690  17.109  0.00  0.00    +0.000 A 
ATOM      4  C   UNL     1       4.308   6.037  17.019  0.00  0.00    +0.000 A 
ATOM      5  C   UNL     1       3.667   6.972  17.841  0.00  0.00    +0.000 A 
ATOM      6  C   UNL     1       2.717   6.557  18.807  0.00  0.00    +0.000 A 
ENDROOT
BRANCH   6   7
ATOM      7  C   UNL     1       2.046   7.634  19.629  0.00  0.00    +0.000 C 
ATOM      8  O   UNL     1       1.762   7.455  20.806  0.00  0.00    +0.000 OA
ATOM      9  N   UNL     1       1.776   8.832  18.975  0.00  0.00    +0.000 N 
ATOM     10  H   UNL     1       2.279   9.064  18.132  0.00  0.00    +0.000 HD
BRANCH   9  11
ATOM     11  C   UNL     1       1.126   9.941  19.652  0.00  0.00    +0.000 C 
BRANCH  11  12
ATOM     12  C   UNL     1      -0.113  10.418  18.923  0.00  0.00    +0.000 A 
ATOM     13  C   UNL     1      -0.662   9.660  17.875  0.00  0.00    +0.000 A 
ATOM     14  C   UNL     1      -1.858  10.050  17.246  0.00  0.00    +0.000 A 
ATOM     15  C   UNL     1      -2.526  11.201  17.663  0.00  0.00    +0.000 A 
ATOM     16  C   UNL     1      -1.990  11.936  18.722  0.00  0.00    +0.000 A 
ATOM     17  C   UNL     1      -0.789  11.573  19.335  0.00  0.00    +0.000 A 
BRANCH  15  18
ATOM     18  O   UNL     1      -3.707  11.666  17.143  0.00  0.00    +0.000 OA
ATOM     19  C   UNL     1      -4.863  10.892  17.454  0.00  0.00    +0.000 C 
ENDBRANCH  15  18
BRANCH  16  20
ATOM     20  O   UNL     1      -2.651  13.034  19.207  0.00  0.00    +0.000 OA
ATOM     21  H   UNL     1      -2.186  13.803  18.825  0.00  0.00    +0.000 HD
ENDBRANCH  16  20
ENDBRANCH  11  12
ENDBRANCH   9  11
ENDBRANCH   6   7
BRANCH   4  22
ATOM     22  N   UNL     1       5.316   6.471  16.045  0.00  0.00    +0.000 N 
ATOM     23  O   UNL     1       4.943   7.158  15.087  0.00  0.00    +0.000 OA
ATOM     24  O   UNL     1       6.482   6.101  16.240  0.00  0.00    +0.000 OA
ENDBRANCH   4  22
BRANCH   1  25
ATOM     25  N   UNL     1       1.382   4.682  19.767  0.00  0.00    +0.000 N 
ATOM     26  H   UNL     1       0.462   5.099  19.616  0.00  0.00    +0.000 HD
BRANCH  25  27
ATOM     27  C   UNL     1       1.728   4.260  21.128  0.00  0.00    +0.000 C 
BRANCH  27  28
ATOM     28  C   UNL     1       1.649   2.762  21.411  0.00  0.00    +0.000 C 
BRANCH  28  30
ATOM     29  C   UNL     1       3.904   2.235  20.846  0.00  0.00    +0.000 C 
ATOM     30  O   UNL     1       2.950   2.377  21.884  0.00  0.00    +0.000 OA
ENDBRANCH  28  30
ENDBRANCH  27  28
ENDBRANCH  25  27
ENDBRANCH   1  25
TORSDOF 10
ENDMDL
MODEL 9
REMARK VINA RESULT:      -6.6      1.449      2.156
REMARK  Name = 
REMARK  12 active torsions:
REMARK  status: ('A' for Active; 'I' for Inactive)
REMARK    1  A    between atoms: C_1  and  O_2
REMARK    2  A    between atoms: O_2  and  C_3
REMARK    3  A    between atoms: C_3  and  C_4
REMARK    4  A    between atoms: C_4  and  N_5
REMARK    5  A    between atoms: N_5  and  C_6
REMARK    6  A    between atoms: C_9  and  N_10
REMARK    7  A    between atoms: C_14  and  C_15
REMARK    8  A    between atoms: N_17  and  C_18
REMARK    9  A    between atoms: C_18  and  C_19
REMARK   10  A    between atoms: C_22  and  O_23
REMARK   11  A    between atoms: O_23  and  C_24
REMARK   12  A    between atoms: C_25  and  O_26
REMARK                            x       y       z     vdW  Elec       q    Type
REMARK                         _______ _______ _______ _____ _____    ______ ____
ROOT
ATOM      1  C   UNL     1       4.894   5.056  18.611  0.00  0.00    +0.000 A 
ATOM      2  C   UNL     1       4.969   3.759  19.168  0.00  0.00    +0.000 A 
ATOM      3  C   UNL     1       3.845   2.997  19.472  0.00  0.00    +0.000 A 
ATOM      4  C   UNL     1       2.590   3.544  19.265  0.00  0.00    +0.000 A 
ATOM      5  C   UNL     1       2.455   4.843  18.758  0.00  0.00    +0.000 A 
ATOM      6  C   UNL     1       3.594   5.609  18.413  0.00  0.00    +0.000 A 
ENDROOT
BRANCH   6   7
ATOM      7  C   UNL     1       3.360   7.013  17.906  0.00  0.00    +0.000 C 
ATOM      8  O   UNL     1       4.093   7.520  17.066  0.00  0.00    +0.000 OA
ATOM      9  N   UNL     1       2.269   7.691  18.443  0.00  0.00    +0.000 N 
ATOM     10  H   UNL     1       1.525   7.168  18.880  0.00  0.00    +0.000 HD
BRANCH   9  11
ATOM     11  C   UNL     1       1.943   9.049  18.046  0.00  0.00    +0.000 C 
BRANCH  11  12
ATOM     12  C   UNL     1       0.970   9.712  18.998  0.00  0.00    +0.000 A 
ATOM     13  C   UNL     1       0.838   9.254  20.320  0.00  0.00    +0.000 A 
ATOM     14  C   UNL     1      -0.001   9.913  21.236  0.00  0.00    +0.000 A 
ATOM     15  C   UNL     1      -0.713  11.047  20.845  0.00  0.00    +0.000 A 
ATOM     16  C   UNL     1      -0.557  11.514  19.538  0.00  0.00    +0.000 A 
ATOM     17  C   UNL     1       0.250  10.851  18.612  0.00  0.00    +0.000 A 
BRANCH  15  18
ATOM     18  O   UNL     1      -1.539  11.784  21.654  0.00  0.00    +0.000 OA
ATOM     19  C   UNL     1      -1.513  11.439  23.037  0.00  0.00    +0.000 C 
ENDBRANCH  15  18
BRANCH  16  20
ATOM     20  O   UNL     1      -1.185  12.663  19.134  0.00  0.00    +0.000 OA
ATOM     21  H   UNL     1      -0.465  13.293  18.940  0.00  0.00    +0.000 HD
ENDBRANCH  16  20
ENDBRANCH  11  12
ENDBRANCH   9  11
ENDBRANCH   6   7
BRANCH   4  22
ATOM     22  N   UNL     1       1.403   2.744  19.588  0.00  0.00    +0.000 N 
ATOM     23  O   UNL     1       0.906   2.050  18.693  0.00  0.00    +0.000 OA
ATOM     24  O   UNL     1       0.964   2.832  20.743  0.00  0.00    +0.000 OA
ENDBRANCH   4  22
BRANCH   1  25
ATOM     25  N   UNL     1       6.082   5.783  18.405  0.00  0.00    +0.000 N 
ATOM     26  H   UNL     1       5.947   6.715  18.008  0.00  0.00    +0.000 HD
BRANCH  25  27
ATOM     27  C   UNL     1       7.314   5.065  18.061  0.00  0.00    +0.000 C 
BRANCH  27  28
ATOM     28  C   UNL     1       7.342   4.391  16.692  0.00  0.00    +0.000 C 
BRANCH  28  30
ATOM     29  C   UNL     1       6.928   5.008  14.427  0.00  0.00    +0.000 C 
ATOM     30  O   UNL     1       7.286   5.452  15.724  0.00  0.00    +0.000 OA
ENDBRANCH  28  30
ENDBRANCH  27  28
ENDBRANCH  25  27
ENDBRANCH   1  25
TORSDOF 10
ENDMDL
