MODEL 1
REMARK VINA RESULT:      -6.6      0.000      0.000
REMARK  Name = 
REMARK  3 active torsions:
REMARK  status: ('A' for Active; 'I' for Inactive)
REMARK    1  A    between atoms: C_2  and  C_3
REMARK    2  A    between atoms: C_3  and  S_4
REMARK    3  A    between atoms: S_4  and  C_5
REMARK                            x       y       z     vdW  Elec       q    Type
REMARK                         _______ _______ _______ _____ _____    ______ ____
ROOT
ATOM      1  O   UNL     1       1.980   3.604  17.163  0.00  0.00    +0.000 OA
ATOM      2  C   UNL     1       2.940   3.553  17.934  0.00  0.00    +0.000 C 
ATOM      3  N   UNL     1       2.746   3.544  19.307  0.00  0.00    +0.000 N 
ATOM      4  C   UNL     1       1.446   3.833  19.885  0.00  0.00    +0.000 C 
ATOM      5  C   UNL     1       1.367   2.909  21.086  0.00  0.00    +0.000 C 
ATOM      6  N   UNL     1       2.741   2.629  21.378  0.00  0.00    +0.000 N 
ATOM      7  C   UNL     1       3.516   2.829  20.240  0.00  0.00    +0.000 C 
ATOM      8  O   UNL     1       4.661   2.427  20.129  0.00  0.00    +0.000 OA
ATOM      9  H   UNL     1       3.068   1.956  22.060  0.00  0.00    +0.000 HD
ENDROOT
BRANCH   2  10
ATOM     10  C   UNL     1       4.387   3.428  17.455  0.00  0.00    +0.000 C 
BRANCH  10  11
ATOM     11  S   UNL     1       4.756   4.785  16.291  0.00  0.00    +0.000 S 
BRANCH  11  12
ATOM     12  C   UNL     1       6.082   5.624  17.135  0.00  0.00    +0.000 A 
ATOM     13  C   UNL     1       6.659   4.983  18.226  0.00  0.00    +0.000 A 
ATOM     14  C   UNL     1       7.650   5.640  18.949  0.00  0.00    +0.000 A 
ATOM     15  C   UNL     1       8.040   6.913  18.556  0.00  0.00    +0.000 A 
ATOM     16  C   UNL     1       7.430   7.468  17.441  0.00  0.00    +0.000 A 
ATOM     17  N   UNL     1       6.462   6.852  16.725  0.00  0.00    +0.000 NA
ENDBRANCH  11  12
ENDBRANCH  10  11
ENDBRANCH   2  10
TORSDOF 3
ENDMDL
MODEL 2
REMARK VINA RESULT:      -6.6      0.758      1.217
REMARK  Name = 
REMARK  3 active torsions:
REMARK  status: ('A' for Active; 'I' for Inactive)
REMARK    1  A    between atoms: C_2  and  C_3
REMARK    2  A    between atoms: C_3  and  S_4
REMARK    3  A    between atoms: S_4  and  C_5
REMARK                            x       y       z     vdW  Elec       q    Type
REMARK                         _______ _______ _______ _____ _____    ______ ____
ROOT
ATOM      1  O   UNL     1       2.025   3.354  17.149  0.00  0.00    +0.000 OA
ATOM      2  C   UNL     1       2.983   3.326  17.924  0.00  0.00    +0.000 C 
ATOM      3  N   UNL     1       2.787   3.421  19.294  0.00  0.00    +0.000 N 
ATOM      4  C   UNL     1       1.497   3.794  19.845  0.00  0.00    +0.000 C 
ATOM      5  C   UNL     1       1.386   2.962  21.109  0.00  0.00    +0.000 C 
ATOM      6  N   UNL     1       2.750   2.658  21.424  0.00  0.00    +0.000 N 
ATOM      7  C   UNL     1       3.532   2.750  20.278  0.00  0.00    +0.000 C 
ATOM      8  O   UNL     1       4.663   2.303  20.199  0.00  0.00    +0.000 OA
ATOM      9  H   UNL     1       3.054   2.025  22.154  0.00  0.00    +0.000 HD
ENDROOT
BRANCH   2  10
ATOM     10  C   UNL     1       4.425   3.118  17.460  0.00  0.00    +0.000 C 
BRANCH  10  11
ATOM     11  S   UNL     1       4.894   4.472  16.328  0.00  0.00    +0.000 S 
BRANCH  11  12
ATOM     12  C   UNL     1       6.104   5.343  17.302  0.00  0.00    +0.000 A 
ATOM     13  C   UNL     1       6.443   6.633  16.908  0.00  0.00    +0.000 A 
ATOM     14  C   UNL     1       7.434   7.316  17.605  0.00  0.00    +0.000 A 
ATOM     15  C   UNL     1       8.052   6.693  18.682  0.00  0.00    +0.000 A 
ATOM     16  C   UNL     1       7.636   5.415  19.024  0.00  0.00    +0.000 A 
ATOM     17  N   UNL     1       6.678   4.730  18.359  0.00  0.00    +0.000 NA
ENDBRANCH  11  12
ENDBRANCH  10  11
ENDBRANCH   2  10
TORSDOF 3
ENDMDL
MODEL 3
REMARK VINA RESULT:      -6.5      2.395      5.982
REMARK  Name = 
REMARK  3 active torsions:
REMARK  status: ('A' for Active; 'I' for Inactive)
REMARK    1  A    between atoms: C_2  and  C_3
REMARK    2  A    between atoms: C_3  and  S_4
REMARK    3  A    between atoms: S_4  and  C_5
REMARK                            x       y       z     vdW  Elec       q    Type
REMARK                         _______ _______ _______ _____ _____    ______ ____
ROOT
ATOM      1  O   UNL     1       4.121   3.547  16.814  0.00  0.00    +0.000 OA
ATOM      2  C   UNL     1       5.235   3.977  17.122  0.00  0.00    +0.000 C 
ATOM      3  N   UNL     1       6.207   4.182  16.155  0.00  0.00    +0.000 N 
ATOM      4  C   UNL     1       6.041   3.681  14.803  0.00  0.00    +0.000 C 
ATOM      5  C   UNL     1       6.672   4.753  13.936  0.00  0.00    +0.000 C 
ATOM      6  N   UNL     1       7.567   5.420  14.835  0.00  0.00    +0.000 N 
ATOM      7  C   UNL     1       7.150   5.223  16.148  0.00  0.00    +0.000 C 
ATOM      8  O   UNL     1       7.566   5.876  17.088  0.00  0.00    +0.000 OA
ATOM      9  H   UNL     1       8.085   6.264  14.625  0.00  0.00    +0.000 HD
ENDROOT
BRANCH   2  10
ATOM     10  C   UNL     1       5.606   4.377  18.550  0.00  0.00    +0.000 C 
BRANCH  10  11
ATOM     11  S   UNL     1       4.378   5.573  19.180  0.00  0.00    +0.000 S 
BRANCH  11  12
ATOM     12  C   UNL     1       3.145   4.484  19.865  0.00  0.00    +0.000 A 
ATOM     13  C   UNL     1       1.830   4.937  19.897  0.00  0.00    +0.000 A 
ATOM     14  C   UNL     1       0.855   4.140  20.488  0.00  0.00    +0.000 A 
ATOM     15  C   UNL     1       1.219   2.911  21.022  0.00  0.00    +0.000 A 
ATOM     16  C   UNL     1       2.548   2.526  20.925  0.00  0.00    +0.000 A 
ATOM     17  N   UNL     1       3.515   3.284  20.359  0.00  0.00    +0.000 NA
ENDBRANCH  11  12
ENDBRANCH  10  11
ENDBRANCH   2  10
TORSDOF 3
ENDMDL
MODEL 4
REMARK VINA RESULT:      -6.5      2.761      3.761
REMARK  Name = 
REMARK  3 active torsions:
REMARK  status: ('A' for Active; 'I' for Inactive)
REMARK    1  A    between atoms: C_2  and  C_3
REMARK    2  A    between atoms: C_3  and  S_4
REMARK    3  A    between atoms: S_4  and  C_5
REMARK                            x       y       z     vdW  Elec       q    Type
REMARK                         _______ _______ _______ _____ _____    ______ ____
ROOT
ATOM      1  O   UNL     1       5.710   4.025  18.895  0.00  0.00    +0.000 OA
ATOM      2  C   UNL     1       4.807   3.655  18.141  0.00  0.00    +0.000 C 
ATOM      3  N   UNL     1       3.709   2.967  18.636  0.00  0.00    +0.000 N 
ATOM      4  C   UNL     1       3.693   2.453  19.993  0.00  0.00    +0.000 C 
ATOM      5  C   UNL     1       2.254   2.637  20.437  0.00  0.00    +0.000 C 
ATOM      6  N   UNL     1       1.533   2.699  19.200  0.00  0.00    +0.000 N 
ATOM      7  C   UNL     1       2.388   3.090  18.174  0.00  0.00    +0.000 C 
ATOM      8  O   UNL     1       1.997   3.468  17.084  0.00  0.00    +0.000 OA
ATOM      9  H   UNL     1       0.550   2.923  19.108  0.00  0.00    +0.000 HD
ENDROOT
BRANCH   2  10
ATOM     10  C   UNL     1       4.786   3.976  16.646  0.00  0.00    +0.000 C 
BRANCH  10  11
ATOM     11  S   UNL     1       6.042   5.252  16.287  0.00  0.00    +0.000 S 
BRANCH  11  12
ATOM     12  C   UNL     1       6.473   4.858  14.604  0.00  0.00    +0.000 A 
ATOM     13  C   UNL     1       5.680   3.933  13.934  0.00  0.00    +0.000 A 
ATOM     14  C   UNL     1       6.029   3.552  12.642  0.00  0.00    +0.000 A 
ATOM     15  C   UNL     1       7.155   4.112  12.054  0.00  0.00    +0.000 A 
ATOM     16  C   UNL     1       7.876   5.047  12.784  0.00  0.00    +0.000 A 
ATOM     17  N   UNL     1       7.559   5.430  14.042  0.00  0.00    +0.000 NA
ENDBRANCH  11  12
ENDBRANCH  10  11
ENDBRANCH   2  10
TORSDOF 3
ENDMDL
MODEL 5
REMARK VINA RESULT:      -6.4      1.306      1.959
REMARK  Name = 
REMARK  3 active torsions:
REMARK  status: ('A' for Active; 'I' for Inactive)
REMARK    1  A    between atoms: C_2  and  C_3
REMARK    2  A    between atoms: C_3  and  S_4
REMARK    3  A    between atoms: S_4  and  C_5
REMARK                            x       y       z     vdW  Elec       q    Type
REMARK                         _______ _______ _______ _____ _____    ______ ____
ROOT
ATOM      1  O   UNL     1       4.084   5.481  19.815  0.00  0.00    +0.000 OA
ATOM      2  C   UNL     1       3.467   4.832  18.967  0.00  0.00    +0.000 C 
ATOM      3  N   UNL     1       2.622   3.800  19.343  0.00  0.00    +0.000 N 
ATOM      4  C   UNL     1       2.614   3.290  20.702  0.00  0.00    +0.000 C 
ATOM      5  C   UNL     1       1.156   2.958  20.959  0.00  0.00    +0.000 C 
ATOM      6  N   UNL     1       0.620   2.786  19.641  0.00  0.00    +0.000 N 
ATOM      7  C   UNL     1       1.409   3.464  18.718  0.00  0.00    +0.000 C 
ATOM      8  O   UNL     1       1.053   3.701  17.577  0.00  0.00    +0.000 OA
ATOM      9  H   UNL     1      -0.360   2.656  19.421  0.00  0.00    +0.000 HD
ENDROOT
BRANCH   2  10
ATOM     10  C   UNL     1       3.526   5.150  17.472  0.00  0.00    +0.000 C 
BRANCH  10  11
ATOM     11  S   UNL     1       5.051   4.438  16.764  0.00  0.00    +0.000 S 
BRANCH  11  12
ATOM     12  C   UNL     1       6.281   5.585  17.351  0.00  0.00    +0.000 A 
ATOM     13  C   UNL     1       7.087   5.180  18.410  0.00  0.00    +0.000 A 
ATOM     14  C   UNL     1       8.011   6.077  18.937  0.00  0.00    +0.000 A 
ATOM     15  C   UNL     1       8.109   7.348  18.386  0.00  0.00    +0.000 A 
ATOM     16  C   UNL     1       7.285   7.660  17.316  0.00  0.00    +0.000 A 
ATOM     17  N   UNL     1       6.376   6.808  16.788  0.00  0.00    +0.000 NA
ENDBRANCH  11  12
ENDBRANCH  10  11
ENDBRANCH   2  10
TORSDOF 3
ENDMDL
MODEL 6
REMARK VINA RESULT:      -6.4      1.948      5.583
REMARK  Name = 
REMARK  3 active torsions:
REMARK  status: ('A' for Active; 'I' for Inactive)
REMARK    1  A    between atoms: C_2  and  C_3
REMARK    2  A    between atoms: C_3  and  S_4
REMARK    3  A    between atoms: S_4  and  C_5
REMARK                            x       y       z     vdW  Elec       q    Type
REMARK                         _______ _______ _______ _____ _____    ______ ____
ROOT
ATOM      1  O   UNL     1       4.722   7.031  16.423  0.00  0.00    +0.000 OA
ATOM      2  C   UNL     1       4.923   5.986  17.044  0.00  0.00    +0.000 C 
ATOM      3  N   UNL     1       6.151   5.740  17.638  0.00  0.00    +0.000 N 
ATOM      4  C   UNL     1       7.304   6.574  17.354  0.00  0.00    +0.000 C 
ATOM      5  C   UNL     1       8.039   6.645  18.679  0.00  0.00    +0.000 C 
ATOM      6  N   UNL     1       7.581   5.477  19.372  0.00  0.00    +0.000 N 
ATOM      7  C   UNL     1       6.354   5.074  18.858  0.00  0.00    +0.000 C 
ATOM      8  O   UNL     1       5.622   4.277  19.418  0.00  0.00    +0.000 OA
ATOM      9  H   UNL     1       7.786   5.255  20.339  0.00  0.00    +0.000 HD
ENDROOT
BRANCH   2  10
ATOM     10  C   UNL     1       3.839   4.929  17.267  0.00  0.00    +0.000 C 
BRANCH  10  11
ATOM     11  S   UNL     1       2.428   5.689  18.141  0.00  0.00    +0.000 S 
BRANCH  11  12
ATOM     12  C   UNL     1       2.050   4.439  19.354  0.00  0.00    +0.000 A 
ATOM     13  C   UNL     1       2.334   4.725  20.685  0.00  0.00    +0.000 A 
ATOM     14  C   UNL     1       2.116   3.746  21.648  0.00  0.00    +0.000 A 
ATOM     15  C   UNL     1       1.612   2.513  21.256  0.00  0.00    +0.000 A 
ATOM     16  C   UNL     1       1.332   2.321  19.911  0.00  0.00    +0.000 A 
ATOM     17  N   UNL     1       1.540   3.255  18.955  0.00  0.00    +0.000 NA
ENDBRANCH  11  12
ENDBRANCH  10  11
ENDBRANCH   2  10
TORSDOF 3
ENDMDL
MODEL 7
REMARK VINA RESULT:      -6.4      1.967      5.636
REMARK  Name = 
REMARK  3 active torsions:
REMARK  status: ('A' for Active; 'I' for Inactive)
REMARK    1  A    between atoms: C_2  and  C_3
REMARK    2  A    between atoms: C_3  and  S_4
REMARK    3  A    between atoms: S_4  and  C_5
REMARK                            x       y       z     vdW  Elec       q    Type
REMARK                         _______ _______ _______ _____ _____    ______ ____
ROOT
ATOM      1  O   UNL     1       4.758   7.119  16.505  0.00  0.00    +0.000 OA
ATOM      2  C   UNL     1       4.962   6.064  17.110  0.00  0.00    +0.000 C 
ATOM      3  N   UNL     1       6.196   5.807  17.688  0.00  0.00    +0.000 N 
ATOM      4  C   UNL     1       7.349   6.642  17.405  0.00  0.00    +0.000 C 
ATOM      5  C   UNL     1       8.097   6.692  18.723  0.00  0.00    +0.000 C 
ATOM      6  N   UNL     1       7.643   5.516  19.405  0.00  0.00    +0.000 N 
ATOM      7  C   UNL     1       6.409   5.123  18.897  0.00  0.00    +0.000 C 
ATOM      8  O   UNL     1       5.680   4.321  19.453  0.00  0.00    +0.000 OA
ATOM      9  H   UNL     1       7.856   5.280  20.366  0.00  0.00    +0.000 HD
ENDROOT
BRANCH   2  10
ATOM     10  C   UNL     1       3.878   5.007  17.329  0.00  0.00    +0.000 C 
BRANCH  10  11
ATOM     11  S   UNL     1       2.453   5.773  18.175  0.00  0.00    +0.000 S 
BRANCH  11  12
ATOM     12  C   UNL     1       2.084   4.554  19.420  0.00  0.00    +0.000 A 
ATOM     13  C   UNL     1       1.277   3.482  19.055  0.00  0.00    +0.000 A 
ATOM     14  C   UNL     1       0.914   2.549  20.021  0.00  0.00    +0.000 A 
ATOM     15  C   UNL     1       1.374   2.709  21.321  0.00  0.00    +0.000 A 
ATOM     16  C   UNL     1       2.196   3.793  21.593  0.00  0.00    +0.000 A 
ATOM     17  N   UNL     1       2.560   4.715  20.673  0.00  0.00    +0.000 NA
ENDBRANCH  11  12
ENDBRANCH  10  11
ENDBRANCH   2  10
TORSDOF 3
ENDMDL
MODEL 8
REMARK VINA RESULT:      -6.4      2.319      5.842
REMARK  Name = 
REMARK  3 active torsions:
REMARK  status: ('A' for Active; 'I' for Inactive)
REMARK    1  A    between atoms: C_2  and  C_3
REMARK    2  A    between atoms: C_3  and  S_4
REMARK    3  A    between atoms: S_4  and  C_5
REMARK                            x       y       z     vdW  Elec       q    Type
REMARK                         _______ _______ _______ _____ _____    ______ ____
ROOT
ATOM      1  O   UNL     1       3.845   5.740  17.418  0.00  0.00    +0.000 OA
ATOM      2  C   UNL     1       4.840   5.101  17.766  0.00  0.00    +0.000 C 
ATOM      3  N   UNL     1       5.746   4.635  16.826  0.00  0.00    +0.000 N 
ATOM      4  C   UNL     1       5.443   4.668  15.407  0.00  0.00    +0.000 C 
ATOM      5  C   UNL     1       6.775   4.985  14.756  0.00  0.00    +0.000 C 
ATOM      6  N   UNL     1       7.730   4.567  15.739  0.00  0.00    +0.000 N 
ATOM      7  C   UNL     1       7.139   4.556  16.997  0.00  0.00    +0.000 C 
ATOM      8  O   UNL     1       7.773   4.490  18.036  0.00  0.00    +0.000 OA
ATOM      9  H   UNL     1       8.729   4.726  15.687  0.00  0.00    +0.000 HD
ENDROOT
BRANCH   2  10
ATOM     10  C   UNL     1       5.188   4.836  19.232  0.00  0.00    +0.000 C 
BRANCH  10  11
ATOM     11  S   UNL     1       4.819   3.094  19.633  0.00  0.00    +0.000 S 
BRANCH  11  12
ATOM     12  C   UNL     1       3.038   3.111  19.674  0.00  0.00    +0.000 A 
ATOM     13  C   UNL     1       2.365   2.242  18.821  0.00  0.00    +0.000 A 
ATOM     14  C   UNL     1       0.975   2.279  18.779  0.00  0.00    +0.000 A 
ATOM     15  C   UNL     1       0.297   3.176  19.594  0.00  0.00    +0.000 A 
ATOM     16  C   UNL     1       1.046   3.988  20.433  0.00  0.00    +0.000 A 
ATOM     17  N   UNL     1       2.397   3.974  20.490  0.00  0.00    +0.000 NA
ENDBRANCH  11  12
ENDBRANCH  10  11
ENDBRANCH   2  10
TORSDOF 3
ENDMDL
MODEL 9
REMARK VINA RESULT:      -6.4      2.372      5.972
REMARK  Name = 
REMARK  3 active torsions:
REMARK  status: ('A' for Active; 'I' for Inactive)
REMARK    1  A    between atoms: C_2  and  C_3
REMARK    2  A    between atoms: C_3  and  S_4
REMARK    3  A    between atoms: S_4  and  C_5
REMARK                            x       y       z     vdW  Elec       q    Type
REMARK                         _______ _______ _______ _____ _____    ______ ____
ROOT
ATOM      1  O   UNL     1       3.958   3.549  16.980  0.00  0.00    +0.000 OA
ATOM      2  C   UNL     1       4.833   4.384  17.219  0.00  0.00    +0.000 C 
ATOM      3  N   UNL     1       5.923   4.529  16.374  0.00  0.00    +0.000 N 
ATOM      4  C   UNL     1       6.198   3.562  15.328  0.00  0.00    +0.000 C 
ATOM      5  C   UNL     1       6.734   4.402  14.185  0.00  0.00    +0.000 C 
ATOM      6  N   UNL     1       7.209   5.585  14.841  0.00  0.00    +0.000 N 
ATOM      7  C   UNL     1       6.562   5.740  16.062  0.00  0.00    +0.000 C 
ATOM      8  O   UNL     1       6.580   6.776  16.703  0.00  0.00    +0.000 OA
ATOM      9  H   UNL     1       7.542   6.418  14.372  0.00  0.00    +0.000 HD
ENDROOT
BRANCH   2  10
ATOM     10  C   UNL     1       4.757   5.353  18.400  0.00  0.00    +0.000 C 
BRANCH  10  11
ATOM     11  S   UNL     1       3.064   6.025  18.520  0.00  0.00    +0.000 S 
BRANCH  11  12
ATOM     12  C   UNL     1       2.257   4.776  19.500  0.00  0.00    +0.000 A 
ATOM     13  C   UNL     1       2.671   4.623  20.819  0.00  0.00    +0.000 A 
ATOM     14  C   UNL     1       2.110   3.611  21.591  0.00  0.00    +0.000 A 
ATOM     15  C   UNL     1       1.145   2.787  21.027  0.00  0.00    +0.000 A 
ATOM     16  C   UNL     1       0.772   3.025  19.712  0.00  0.00    +0.000 A 
ATOM     17  N   UNL     1       1.306   3.999  18.940  0.00  0.00    +0.000 NA
ENDBRANCH  11  12
ENDBRANCH  10  11
ENDBRANCH   2  10
TORSDOF 3
ENDMDL
