MODEL 1
REMARK VINA RESULT:      -7.7      0.000      0.000
REMARK  Name = 
REMARK  7 active torsions:
REMARK  status: ('A' for Active; 'I' for Inactive)
REMARK    1  A    between atoms: C_1  and  C_2
REMARK    2  A    between atoms: C_4  and  N_5
REMARK    3  A    between atoms: N_5  and  C_6
REMARK    4  A    between atoms: N_5  and  C_7
REMARK    5  A    between atoms: N_10  and  C_11
REMARK    6  A    between atoms: C_15  and  C_17
REMARK    7  A    between atoms: C_17  and  C_18
REMARK                            x       y       z     vdW  Elec       q    Type
REMARK                         _______ _______ _______ _____ _____    ______ ____
ROOT
ATOM      1  C   UNL     1       0.623  10.630  19.446  0.00  0.00    +0.000 C 
ATOM      2  C   UNL     1       1.677  10.723  18.321  0.00  0.00    +0.000 C 
ATOM      3  C   UNL     1       2.039   9.374  17.697  0.00  0.00    +0.000 C 
ATOM      4  N   UNL     1       2.339   8.355  18.698  0.00  0.00    +0.000 N 
ATOM      5  C   UNL     1       3.162   7.301  18.306  0.00  0.00    +0.000 C 
ATOM      6  O   UNL     1       3.704   7.262  17.196  0.00  0.00    +0.000 OA
ATOM      7  C   UNL     1       1.350   8.226  19.770  0.00  0.00    +0.000 C 
ATOM      8  C   UNL     1       1.056   9.557  20.444  0.00  0.00    +0.000 C 
ENDROOT
BRANCH   1  15
ATOM      9  C   UNL     1      -5.068  11.242  17.450  0.00  0.00    +0.000 C 
ATOM     10  C   UNL     1      -3.949  11.534  18.407  0.00  0.00    +0.000 A 
ATOM     11  C   UNL     1      -4.129  12.435  19.437  0.00  0.00    +0.000 A 
ATOM     12  C   UNL     1      -3.054  12.687  20.276  0.00  0.00    +0.000 A 
ATOM     13  N   UNL     1      -1.888  12.028  20.062  0.00  0.00    +0.000 NA
ATOM     14  C   UNL     1      -1.796  11.134  19.063  0.00  0.00    +0.000 A 
ATOM     15  N   UNL     1      -0.687  10.331  18.884  0.00  0.00    +0.000 N 
ATOM     16  N   UNL     1      -2.791  10.880  18.209  0.00  0.00    +0.000 NA
ATOM     17  H   UNL     1      -0.738   9.919  17.960  0.00  0.00    +0.000 HD
BRANCH  12  18
ATOM     18  N   UNL     1      -3.132  13.621  21.297  0.00  0.00    +0.000 N 
ATOM     19  C   UNL     1      -1.900  14.022  21.969  0.00  0.00    +0.000 C 
ATOM     20  C   UNL     1      -4.358  14.024  21.978  0.00  0.00    +0.000 C 
ENDBRANCH  12  18
ENDBRANCH   1  15
BRANCH   5  21
ATOM     21  C   UNL     1       3.423   6.177  19.304  0.00  0.00    +0.000 C 
BRANCH  21  22
ATOM     22  C   UNL     1       2.574   4.953  19.066  0.00  0.00    +0.000 A 
ATOM     23  C   UNL     1       2.726   4.182  17.904  0.00  0.00    +0.000 A 
ATOM     24  C   UNL     1       1.949   3.037  17.714  0.00  0.00    +0.000 A 
ATOM     25  C   UNL     1       1.024   2.662  18.681  0.00  0.00    +0.000 A 
ATOM     26  F   UNL     1       0.284   1.560  18.494  0.00  0.00    +0.000 F 
ATOM     27  C   UNL     1       0.854   3.407  19.835  0.00  0.00    +0.000 A 
ATOM     28  C   UNL     1       1.634   4.546  20.020  0.00  0.00    +0.000 A 
ATOM     29  F   UNL     1       1.462   5.260  21.140  0.00  0.00    +0.000 F 
ENDBRANCH  21  22
ENDBRANCH   5  21
TORSDOF 4
ENDMDL
MODEL 2
REMARK VINA RESULT:      -7.5      1.581      1.849
REMARK  Name = 
REMARK  7 active torsions:
REMARK  status: ('A' for Active; 'I' for Inactive)
REMARK    1  A    between atoms: C_1  and  C_2
REMARK    2  A    between atoms: C_4  and  N_5
REMARK    3  A    between atoms: N_5  and  C_6
REMARK    4  A    between atoms: N_5  and  C_7
REMARK    5  A    between atoms: N_10  and  C_11
REMARK    6  A    between atoms: C_15  and  C_17
REMARK    7  A    between atoms: C_17  and  C_18
REMARK                            x       y       z     vdW  Elec       q    Type
REMARK                         _______ _______ _______ _____ _____    ______ ____
ROOT
ATOM      1  C   UNL     1       0.332  11.391  19.791  0.00  0.00    +0.000 C 
ATOM      2  C   UNL     1       1.355  11.280  18.639  0.00  0.00    +0.000 C 
ATOM      3  C   UNL     1       1.507   9.863  18.081  0.00  0.00    +0.000 C 
ATOM      4  N   UNL     1       1.694   8.864  19.128  0.00  0.00    +0.000 N 
ATOM      5  C   UNL     1       2.350   7.687  18.774  0.00  0.00    +0.000 C 
ATOM      6  O   UNL     1       2.848   7.517  17.656  0.00  0.00    +0.000 OA
ATOM      7  C   UNL     1       0.729   8.928  20.227  0.00  0.00    +0.000 C 
ATOM      8  C   UNL     1       0.643  10.320  20.836  0.00  0.00    +0.000 C 
ENDROOT
BRANCH   1  15
ATOM      9  C   UNL     1      -5.533  12.408  18.649  0.00  0.00    +0.000 C 
ATOM     10  C   UNL     1      -4.330  12.392  19.546  0.00  0.00    +0.000 A 
ATOM     11  C   UNL     1      -4.419  12.862  20.841  0.00  0.00    +0.000 A 
ATOM     12  C   UNL     1      -3.269  12.850  21.618  0.00  0.00    +0.000 A 
ATOM     13  N   UNL     1      -2.122  12.364  21.082  0.00  0.00    +0.000 NA
ATOM     14  C   UNL     1      -2.118  11.886  19.826  0.00  0.00    +0.000 A 
ATOM     15  N   UNL     1      -1.022  11.250  19.276  0.00  0.00    +0.000 N 
ATOM     16  N   UNL     1      -3.189  11.905  19.027  0.00  0.00    +0.000 NA
ATOM     17  H   UNL     1      -1.159  11.190  18.274  0.00  0.00    +0.000 HD
BRANCH  12  18
ATOM     18  N   UNL     1      -3.258  13.357  22.907  0.00  0.00    +0.000 N 
ATOM     19  C   UNL     1      -3.823  12.545  23.980  0.00  0.00    +0.000 C 
ATOM     20  C   UNL     1      -3.012  14.751  23.263  0.00  0.00    +0.000 C 
ENDBRANCH  12  18
ENDBRANCH   1  15
BRANCH   5  21
ATOM     21  C   UNL     1       2.483   6.589  19.825  0.00  0.00    +0.000 C 
BRANCH  21  22
ATOM     22  C   UNL     1       2.788   5.232  19.241  0.00  0.00    +0.000 A 
ATOM     23  C   UNL     1       1.774   4.442  18.680  0.00  0.00    +0.000 A 
ATOM     24  C   UNL     1       2.079   3.199  18.120  0.00  0.00    +0.000 A 
ATOM     25  C   UNL     1       3.393   2.746  18.121  0.00  0.00    +0.000 A 
ATOM     26  F   UNL     1       3.680   1.554  17.579  0.00  0.00    +0.000 F 
ATOM     27  C   UNL     1       4.411   3.506  18.670  0.00  0.00    +0.000 A 
ATOM     28  C   UNL     1       4.100   4.745  19.224  0.00  0.00    +0.000 A 
ATOM     29  F   UNL     1       5.093   5.473  19.753  0.00  0.00    +0.000 F 
ENDBRANCH  21  22
ENDBRANCH   5  21
TORSDOF 4
ENDMDL
MODEL 3
REMARK VINA RESULT:      -7.5      0.946      1.379
REMARK  Name = 
REMARK  7 active torsions:
REMARK  status: ('A' for Active; 'I' for Inactive)
REMARK    1  A    between atoms: C_1  and  C_2
REMARK    2  A    between atoms: C_4  and  N_5
REMARK    3  A    between atoms: N_5  and  C_6
REMARK    4  A    between atoms: N_5  and  C_7
REMARK    5  A    between atoms: N_10  and  C_11
REMARK    6  A    between atoms: C_15  and  C_17
REMARK    7  A    between atoms: C_17  and  C_18
REMARK                            x       y       z     vdW  Elec       q    Type
REMARK                         _______ _______ _______ _____ _____    ______ ____
ROOT
ATOM      1  C   UNL     1       0.570  10.676  19.485  0.00  0.00    +0.000 C 
ATOM      2  C   UNL     1       1.613  10.740  18.348  0.00  0.00    +0.000 C 
ATOM      3  C   UNL     1       1.972   9.373  17.760  0.00  0.00    +0.000 C 
ATOM      4  N   UNL     1       2.284   8.384  18.787  0.00  0.00    +0.000 N 
ATOM      5  C   UNL     1       3.106   7.322  18.418  0.00  0.00    +0.000 C 
ATOM      6  O   UNL     1       3.638   7.252  17.304  0.00  0.00    +0.000 OA
ATOM      7  C   UNL     1       1.306   8.284  19.872  0.00  0.00    +0.000 C 
ATOM      8  C   UNL     1       1.015   9.634  20.510  0.00  0.00    +0.000 C 
ENDROOT
BRANCH   1  15
ATOM      9  C   UNL     1      -5.151  11.212  17.553  0.00  0.00    +0.000 C 
ATOM     10  C   UNL     1      -4.023  11.527  18.492  0.00  0.00    +0.000 A 
ATOM     11  C   UNL     1      -4.197  12.442  19.510  0.00  0.00    +0.000 A 
ATOM     12  C   UNL     1      -3.113  12.716  20.331  0.00  0.00    +0.000 A 
ATOM     13  N   UNL     1      -1.945  12.063  20.112  0.00  0.00    +0.000 NA
ATOM     14  C   UNL     1      -1.858  11.155  19.126  0.00  0.00    +0.000 A 
ATOM     15  N   UNL     1      -0.745  10.359  18.944  0.00  0.00    +0.000 N 
ATOM     16  N   UNL     1      -2.862  10.879  18.288  0.00  0.00    +0.000 NA
ATOM     17  H   UNL     1      -0.804   9.932  18.028  0.00  0.00    +0.000 HD
BRANCH  12  18
ATOM     18  N   UNL     1      -3.186  13.664  21.339  0.00  0.00    +0.000 N 
ATOM     19  C   UNL     1      -3.629  15.011  20.997  0.00  0.00    +0.000 C 
ATOM     20  C   UNL     1      -2.576  13.539  22.659  0.00  0.00    +0.000 C 
ENDBRANCH  12  18
ENDBRANCH   1  15
BRANCH   5  21
ATOM     21  C   UNL     1       3.379   6.227  19.445  0.00  0.00    +0.000 C 
BRANCH  21  22
ATOM     22  C   UNL     1       2.554   4.983  19.233  0.00  0.00    +0.000 A 
ATOM     23  C   UNL     1       1.490   4.666  20.090  0.00  0.00    +0.000 A 
ATOM     24  C   UNL     1       0.720   3.523  19.861  0.00  0.00    +0.000 A 
ATOM     25  C   UNL     1       1.012   2.699  18.780  0.00  0.00    +0.000 A 
ATOM     26  F   UNL     1       0.267   1.605  18.565  0.00  0.00    +0.000 F 
ATOM     27  C   UNL     1       2.058   2.989  17.922  0.00  0.00    +0.000 A 
ATOM     28  C   UNL     1       2.819   4.132  18.154  0.00  0.00    +0.000 A 
ATOM     29  F   UNL     1       3.829   4.404  17.317  0.00  0.00    +0.000 F 
ENDBRANCH  21  22
ENDBRANCH   5  21
TORSDOF 4
ENDMDL
MODEL 4
REMARK VINA RESULT:      -7.4      1.232      1.319
REMARK  Name = 
REMARK  7 active torsions:
REMARK  status: ('A' for Active; 'I' for Inactive)
REMARK    1  A    between atoms: C_1  and  C_2
REMARK    2  A    between atoms: C_4  and  N_5
REMARK    3  A    between atoms: N_5  and  C_6
REMARK    4  A    between atoms: N_5  and  C_7
REMARK    5  A    between atoms: N_10  and  C_11
REMARK    6  A    between atoms: C_15  and  C_17
REMARK    7  A    between atoms: C_17  and  C_18
REMARK                            x       y       z     vdW  Elec       q    Type
REMARK                         _______ _______ _______ _____ _____    ______ ____
ROOT
ATOM      1  C   UNL     1       0.507  11.026  19.413  0.00  0.00    +0.000 C 
ATOM      2  C   UNL     1       1.614  10.791  18.363  0.00  0.00    +0.000 C 
ATOM      3  C   UNL     1       1.787   9.325  17.961  0.00  0.00    +0.000 C 
ATOM      4  N   UNL     1       1.875   8.434  19.114  0.00  0.00    +0.000 N 
ATOM      5  C   UNL     1       2.538   7.222  18.932  0.00  0.00    +0.000 C 
ATOM      6  O   UNL     1       3.119   6.937  17.878  0.00  0.00    +0.000 OA
ATOM      7  C   UNL     1       0.829   8.616  20.122  0.00  0.00    +0.000 C 
ATOM      8  C   UNL     1       0.718  10.062  20.580  0.00  0.00    +0.000 C 
ENDROOT
BRANCH   1  15
ATOM      9  C   UNL     1      -5.245  11.957  17.743  0.00  0.00    +0.000 C 
ATOM     10  C   UNL     1      -4.114  12.014  18.728  0.00  0.00    +0.000 A 
ATOM     11  C   UNL     1      -4.297  12.591  19.968  0.00  0.00    +0.000 A 
ATOM     12  C   UNL     1      -3.211  12.641  20.830  0.00  0.00    +0.000 A 
ATOM     13  N   UNL     1      -2.030  12.109  20.426  0.00  0.00    +0.000 NA
ATOM     14  C   UNL     1      -1.934  11.528  19.219  0.00  0.00    +0.000 A 
ATOM     15  N   UNL     1      -0.805  10.846  18.809  0.00  0.00    +0.000 N 
ATOM     16  N   UNL     1      -2.941  11.482  18.341  0.00  0.00    +0.000 NA
ATOM     17  H   UNL     1      -0.865  10.702  17.809  0.00  0.00    +0.000 HD
BRANCH  12  18
ATOM     18  N   UNL     1      -3.294  13.255  22.069  0.00  0.00    +0.000 N 
ATOM     19  C   UNL     1      -2.840  12.516  23.243  0.00  0.00    +0.000 C 
ATOM     20  C   UNL     1      -4.070  14.454  22.366  0.00  0.00    +0.000 C 
ENDBRANCH  12  18
ENDBRANCH   1  15
BRANCH   5  21
ATOM     21  C   UNL     1       2.571   6.234  20.093  0.00  0.00    +0.000 C 
BRANCH  21  22
ATOM     22  C   UNL     1       2.848   4.814  19.666  0.00  0.00    +0.000 A 
ATOM     23  C   UNL     1       4.144   4.401  19.325  0.00  0.00    +0.000 A 
ATOM     24  C   UNL     1       4.386   3.075  18.958  0.00  0.00    +0.000 A 
ATOM     25  C   UNL     1       3.336   2.164  18.931  0.00  0.00    +0.000 A 
ATOM     26  F   UNL     1       3.576   0.892  18.581  0.00  0.00    +0.000 F 
ATOM     27  C   UNL     1       2.049   2.547  19.261  0.00  0.00    +0.000 A 
ATOM     28  C   UNL     1       1.815   3.870  19.630  0.00  0.00    +0.000 A 
ATOM     29  F   UNL     1       0.565   4.231  19.948  0.00  0.00    +0.000 F 
ENDBRANCH  21  22
ENDBRANCH   5  21
TORSDOF 4
ENDMDL
MODEL 5
REMARK VINA RESULT:      -7.3      1.999      2.630
REMARK  Name = 
REMARK  7 active torsions:
REMARK  status: ('A' for Active; 'I' for Inactive)
REMARK    1  A    between atoms: C_1  and  C_2
REMARK    2  A    between atoms: C_4  and  N_5
REMARK    3  A    between atoms: N_5  and  C_6
REMARK    4  A    between atoms: N_5  and  C_7
REMARK    5  A    between atoms: N_10  and  C_11
REMARK    6  A    between atoms: C_15  and  C_17
REMARK    7  A    between atoms: C_17  and  C_18
REMARK                            x       y       z     vdW  Elec       q    Type
REMARK                         _______ _______ _______ _____ _____    ______ ____
ROOT
ATOM      1  C   UNL     1       0.156  11.635  20.304  0.00  0.00    +0.000 C 
ATOM      2  C   UNL     1       1.146  11.856  19.140  0.00  0.00    +0.000 C 
ATOM      3  C   UNL     1       1.318  10.636  18.232  0.00  0.00    +0.000 C 
ATOM      4  N   UNL     1       1.561   9.408  18.982  0.00  0.00    +0.000 N 
ATOM      5  C   UNL     1       2.236   8.383  18.322  0.00  0.00    +0.000 C 
ATOM      6  O   UNL     1       2.704   8.523  17.187  0.00  0.00    +0.000 OA
ATOM      7  C   UNL     1       0.628   9.157  20.082  0.00  0.00    +0.000 C 
ATOM      8  C   UNL     1       0.525  10.342  21.030  0.00  0.00    +0.000 C 
ENDROOT
BRANCH   1  15
ATOM      9  C   UNL     1      -5.711  12.884  19.434  0.00  0.00    +0.000 C 
ATOM     10  C   UNL     1      -4.493  12.724  20.296  0.00  0.00    +0.000 A 
ATOM     11  C   UNL     1      -4.552  13.004  21.646  0.00  0.00    +0.000 A 
ATOM     12  C   UNL     1      -3.389  12.866  22.391  0.00  0.00    +0.000 A 
ATOM     13  N   UNL     1      -2.260  12.446  21.768  0.00  0.00    +0.000 NA
ATOM     14  C   UNL     1      -2.285  12.153  20.457  0.00  0.00    +0.000 A 
ATOM     15  N   UNL     1      -1.209  11.588  19.801  0.00  0.00    +0.000 N 
ATOM     16  N   UNL     1      -3.369  12.301  19.690  0.00  0.00    +0.000 NA
ATOM     17  H   UNL     1      -1.364  11.674  18.804  0.00  0.00    +0.000 HD
BRANCH  12  18
ATOM     18  N   UNL     1      -3.348  13.182  23.739  0.00  0.00    +0.000 N 
ATOM     19  C   UNL     1      -4.266  12.499  24.643  0.00  0.00    +0.000 C 
ATOM     20  C   UNL     1      -2.686  14.351  24.310  0.00  0.00    +0.000 C 
ENDBRANCH  12  18
ENDBRANCH   1  15
BRANCH   5  21
ATOM     21  C   UNL     1       2.428   7.057  19.051  0.00  0.00    +0.000 C 
BRANCH  21  22
ATOM     22  C   UNL     1       3.233   6.051  18.267  0.00  0.00    +0.000 A 
ATOM     23  C   UNL     1       4.593   6.265  17.999  0.00  0.00    +0.000 A 
ATOM     24  C   UNL     1       5.329   5.309  17.294  0.00  0.00    +0.000 A 
ATOM     25  C   UNL     1       4.708   4.144  16.858  0.00  0.00    +0.000 A 
ATOM     26  F   UNL     1       5.422   3.230  16.185  0.00  0.00    +0.000 F 
ATOM     27  C   UNL     1       3.368   3.911  17.108  0.00  0.00    +0.000 A 
ATOM     28  C   UNL     1       2.641   4.866  17.814  0.00  0.00    +0.000 A 
ATOM     29  F   UNL     1       1.343   4.631  18.051  0.00  0.00    +0.000 F 
ENDBRANCH  21  22
ENDBRANCH   5  21
TORSDOF 4
ENDMDL
MODEL 6
REMARK VINA RESULT:      -7.2      3.789      5.332
REMARK  Name = 
REMARK  7 active torsions:
REMARK  status: ('A' for Active; 'I' for Inactive)
REMARK    1  A    between atoms: C_1  and  C_2
REMARK    2  A    between atoms: C_4  and  N_5
REMARK    3  A    between atoms: N_5  and  C_6
REMARK    4  A    between atoms: N_5  and  C_7
REMARK    5  A    between atoms: N_10  and  C_11
REMARK    6  A    between atoms: C_15  and  C_17
REMARK    7  A    between atoms: C_17  and  C_18
REMARK                            x       y       z     vdW  Elec       q    Type
REMARK                         _______ _______ _______ _____ _____    ______ ____
ROOT
ATOM      1  C   UNL     1       2.208   7.655  18.061  0.00  0.00    +0.000 C 
ATOM      2  C   UNL     1       1.558   6.285  17.771  0.00  0.00    +0.000 C 
ATOM      3  C   UNL     1       2.324   5.099  18.360  0.00  0.00    +0.000 C 
ATOM      4  N   UNL     1       3.751   5.146  18.057  0.00  0.00    +0.000 N 
ATOM      5  C   UNL     1       4.441   3.936  18.057  0.00  0.00    +0.000 C 
ATOM      6  O   UNL     1       3.872   2.849  18.206  0.00  0.00    +0.000 OA
ATOM      7  C   UNL     1       4.404   6.426  18.337  0.00  0.00    +0.000 C 
ATOM      8  C   UNL     1       3.686   7.594  17.679  0.00  0.00    +0.000 C 
ENDROOT
BRANCH   1  15
ATOM      9  C   UNL     1      -0.181   9.710  23.239  0.00  0.00    +0.000 C 
ATOM     10  C   UNL     1       0.070   9.785  21.761  0.00  0.00    +0.000 A 
ATOM     11  C   UNL     1      -0.510  10.784  21.005  0.00  0.00    +0.000 A 
ATOM     12  C   UNL     1      -0.267  10.789  19.639  0.00  0.00    +0.000 A 
ATOM     13  N   UNL     1       0.538   9.833  19.113  0.00  0.00    +0.000 NA
ATOM     14  C   UNL     1       1.100   8.914  19.916  0.00  0.00    +0.000 A 
ATOM     15  N   UNL     1       2.038   8.006  19.464  0.00  0.00    +0.000 N 
ATOM     16  N   UNL     1       0.873   8.846  21.231  0.00  0.00    +0.000 NA
ATOM     17  H   UNL     1       2.142   7.281  20.163  0.00  0.00    +0.000 HD
BRANCH  12  18
ATOM     18  N   UNL     1      -0.857  11.721  18.800  0.00  0.00    +0.000 N 
ATOM     19  C   UNL     1      -0.193  13.006  18.610  0.00  0.00    +0.000 C 
ATOM     20  C   UNL     1      -2.234  11.669  18.317  0.00  0.00    +0.000 C 
ENDBRANCH  12  18
ENDBRANCH   1  15
BRANCH   5  21
ATOM     21  C   UNL     1       5.950   3.963  17.828  0.00  0.00    +0.000 C 
BRANCH  21  22
ATOM     22  C   UNL     1       6.336   4.227  16.395  0.00  0.00    +0.000 A 
ATOM     23  C   UNL     1       5.842   3.427  15.354  0.00  0.00    +0.000 A 
ATOM     24  C   UNL     1       6.190   3.702  14.029  0.00  0.00    +0.000 A 
ATOM     25  C   UNL     1       7.029   4.774  13.745  0.00  0.00    +0.000 A 
ATOM     26  F   UNL     1       7.356   5.034  12.471  0.00  0.00    +0.000 F 
ATOM     27  C   UNL     1       7.531   5.576  14.754  0.00  0.00    +0.000 A 
ATOM     28  C   UNL     1       7.177   5.298  16.072  0.00  0.00    +0.000 A 
ATOM     29  F   UNL     1       7.669   6.081  17.042  0.00  0.00    +0.000 F 
ENDBRANCH  21  22
ENDBRANCH   5  21
TORSDOF 4
ENDMDL
MODEL 7
REMARK VINA RESULT:      -7.2      1.375      1.801
REMARK  Name = 
REMARK  7 active torsions:
REMARK  status: ('A' for Active; 'I' for Inactive)
REMARK    1  A    between atoms: C_1  and  C_2
REMARK    2  A    between atoms: C_4  and  N_5
REMARK    3  A    between atoms: N_5  and  C_6
REMARK    4  A    between atoms: N_5  and  C_7
REMARK    5  A    between atoms: N_10  and  C_11
REMARK    6  A    between atoms: C_15  and  C_17
REMARK    7  A    between atoms: C_17  and  C_18
REMARK                            x       y       z     vdW  Elec       q    Type
REMARK                         _______ _______ _______ _____ _____    ______ ____
ROOT
ATOM      1  C   UNL     1       0.434  11.536  20.111  0.00  0.00    +0.000 C 
ATOM      2  C   UNL     1       1.284  11.439  18.825  0.00  0.00    +0.000 C 
ATOM      3  C   UNL     1       1.331  10.035  18.218  0.00  0.00    +0.000 C 
ATOM      4  N   UNL     1       1.643   9.006  19.205  0.00  0.00    +0.000 N 
ATOM      5  C   UNL     1       2.223   7.830  18.736  0.00  0.00    +0.000 C 
ATOM      6  O   UNL     1       2.557   7.681  17.555  0.00  0.00    +0.000 OA
ATOM      7  C   UNL     1       0.843   9.057  20.430  0.00  0.00    +0.000 C 
ATOM      8  C   UNL     1       0.868  10.434  21.076  0.00  0.00    +0.000 C 
ENDROOT
BRANCH   1  15
ATOM      9  C   UNL     1      -5.472  12.799  19.599  0.00  0.00    +0.000 C 
ATOM     10  C   UNL     1      -4.164  12.801  20.336  0.00  0.00    +0.000 A 
ATOM     11  C   UNL     1      -4.060  13.409  21.570  0.00  0.00    +0.000 A 
ATOM     12  C   UNL     1      -2.821  13.406  22.195  0.00  0.00    +0.000 A 
ATOM     13  N   UNL     1      -1.780  12.793  21.579  0.00  0.00    +0.000 NA
ATOM     14  C   UNL     1      -1.963  12.187  20.394  0.00  0.00    +0.000 A 
ATOM     15  N   UNL     1      -0.981  11.429  19.787  0.00  0.00    +0.000 N 
ATOM     16  N   UNL     1      -3.127  12.190  19.737  0.00  0.00    +0.000 NA
ATOM     17  H   UNL     1      -1.250  11.272  18.823  0.00  0.00    +0.000 HD
BRANCH  12  18
ATOM     18  N   UNL     1      -2.617  14.044  23.408  0.00  0.00    +0.000 N 
ATOM     19  C   UNL     1      -3.765  14.639  24.083  0.00  0.00    +0.000 C 
ATOM     20  C   UNL     1      -1.319  14.448  23.939  0.00  0.00    +0.000 C 
ENDBRANCH  12  18
ENDBRANCH   1  15
BRANCH   5  21
ATOM     21  C   UNL     1       2.481   6.703  19.731  0.00  0.00    +0.000 C 
BRANCH  21  22
ATOM     22  C   UNL     1       2.530   5.337  19.094  0.00  0.00    +0.000 A 
ATOM     23  C   UNL     1       3.539   5.001  18.179  0.00  0.00    +0.000 A 
ATOM     24  C   UNL     1       3.583   3.722  17.619  0.00  0.00    +0.000 A 
ATOM     25  C   UNL     1       2.622   2.781  17.971  0.00  0.00    +0.000 A 
ATOM     26  F   UNL     1       2.673   1.555  17.433  0.00  0.00    +0.000 F 
ATOM     27  C   UNL     1       1.616   3.089  18.870  0.00  0.00    +0.000 A 
ATOM     28  C   UNL     1       1.579   4.365  19.426  0.00  0.00    +0.000 A 
ATOM     29  F   UNL     1       0.601   4.652  20.295  0.00  0.00    +0.000 F 
ENDBRANCH  21  22
ENDBRANCH   5  21
TORSDOF 4
ENDMDL
MODEL 8
REMARK VINA RESULT:      -7.1      2.868      4.041
REMARK  Name = 
REMARK  7 active torsions:
REMARK  status: ('A' for Active; 'I' for Inactive)
REMARK    1  A    between atoms: C_1  and  C_2
REMARK    2  A    between atoms: C_4  and  N_5
REMARK    3  A    between atoms: N_5  and  C_6
REMARK    4  A    between atoms: N_5  and  C_7
REMARK    5  A    between atoms: N_10  and  C_11
REMARK    6  A    between atoms: C_15  and  C_17
REMARK    7  A    between atoms: C_17  and  C_18
REMARK                            x       y       z     vdW  Elec       q    Type
REMARK                         _______ _______ _______ _____ _____    ______ ____
ROOT
ATOM      1  C   UNL     1       0.420  11.032  19.622  0.00  0.00    +0.000 C 
ATOM      2  C   UNL     1       0.032   9.937  20.640  0.00  0.00    +0.000 C 
ATOM      3  C   UNL     1       1.095   8.851  20.816  0.00  0.00    +0.000 C 
ATOM      4  N   UNL     1       1.576   8.323  19.543  0.00  0.00    +0.000 N 
ATOM      5  C   UNL     1       2.107   7.035  19.548  0.00  0.00    +0.000 C 
ATOM      6  O   UNL     1       2.090   6.316  20.554  0.00  0.00    +0.000 OA
ATOM      7  C   UNL     1       1.970   9.334  18.561  0.00  0.00    +0.000 C 
ATOM      8  C   UNL     1       0.876  10.365  18.325  0.00  0.00    +0.000 C 
ENDROOT
BRANCH   1  15
ATOM      9  C   UNL     1       3.239  15.586  22.461  0.00  0.00    +0.000 C 
ATOM     10  C   UNL     1       2.161  15.023  21.581  0.00  0.00    +0.000 A 
ATOM     11  C   UNL     1       1.167  15.842  21.086  0.00  0.00    +0.000 A 
ATOM     12  C   UNL     1       0.180  15.265  20.300  0.00  0.00    +0.000 A 
ATOM     13  N   UNL     1       0.245  13.936  20.038  0.00  0.00    +0.000 NA
ATOM     14  C   UNL     1       1.264  13.207  20.522  0.00  0.00    +0.000 A 
ATOM     15  N   UNL     1       1.463  11.885  20.174  0.00  0.00    +0.000 N 
ATOM     16  N   UNL     1       2.221  13.708  21.309  0.00  0.00    +0.000 NA
ATOM     17  H   UNL     1       2.129  11.482  20.822  0.00  0.00    +0.000 HD
BRANCH  12  18
ATOM     18  N   UNL     1      -0.886  16.005  19.812  0.00  0.00    +0.000 N 
ATOM     19  C   UNL     1      -0.664  16.868  18.657  0.00  0.00    +0.000 C 
ATOM     20  C   UNL     1      -2.140  16.243  20.519  0.00  0.00    +0.000 C 
ENDBRANCH  12  18
ENDBRANCH   1  15
BRANCH   5  21
ATOM     21  C   UNL     1       2.695   6.490  18.251  0.00  0.00    +0.000 C 
BRANCH  21  22
ATOM     22  C   UNL     1       2.938   5.002  18.279  0.00  0.00    +0.000 A 
ATOM     23  C   UNL     1       2.025   4.109  17.699  0.00  0.00    +0.000 A 
ATOM     24  C   UNL     1       2.280   2.736  17.712  0.00  0.00    +0.000 A 
ATOM     25  C   UNL     1       3.443   2.255  18.303  0.00  0.00    +0.000 A 
ATOM     26  F   UNL     1       3.683   0.936  18.308  0.00  0.00    +0.000 F 
ATOM     27  C   UNL     1       4.358   3.115  18.883  0.00  0.00    +0.000 A 
ATOM     28  C   UNL     1       4.100   4.483  18.864  0.00  0.00    +0.000 A 
ATOM     29  F   UNL     1       4.992   5.308  19.428  0.00  0.00    +0.000 F 
ENDBRANCH  21  22
ENDBRANCH   5  21
TORSDOF 4
ENDMDL
MODEL 9
REMARK VINA RESULT:      -7.1      2.527      3.633
REMARK  Name = 
REMARK  7 active torsions:
REMARK  status: ('A' for Active; 'I' for Inactive)
REMARK    1  A    between atoms: C_1  and  C_2
REMARK    2  A    between atoms: C_4  and  N_5
REMARK    3  A    between atoms: N_5  and  C_6
REMARK    4  A    between atoms: N_5  and  C_7
REMARK    5  A    between atoms: N_10  and  C_11
REMARK    6  A    between atoms: C_15  and  C_17
REMARK    7  A    between atoms: C_17  and  C_18
REMARK                            x       y       z     vdW  Elec       q    Type
REMARK                         _______ _______ _______ _____ _____    ______ ____
ROOT
ATOM      1  C   UNL     1       0.195  10.686  19.232  0.00  0.00    +0.000 C 
ATOM      2  C   UNL     1       0.079   9.671  20.389  0.00  0.00    +0.000 C 
ATOM      3  C   UNL     1       1.305   8.769  20.547  0.00  0.00    +0.000 C 
ATOM      4  N   UNL     1       1.731   8.173  19.284  0.00  0.00    +0.000 N 
ATOM      5  C   UNL     1       2.447   6.980  19.353  0.00  0.00    +0.000 C 
ATOM      6  O   UNL     1       2.639   6.384  20.419  0.00  0.00    +0.000 OA
ATOM      7  C   UNL     1       1.869   9.112  18.169  0.00  0.00    +0.000 C 
ATOM      8  C   UNL     1       0.615   9.947  17.962  0.00  0.00    +0.000 C 
ENDROOT
BRANCH   1  15
ATOM      9  C   UNL     1       2.988  15.208  22.147  0.00  0.00    +0.000 C 
ATOM     10  C   UNL     1       1.765  14.481  21.668  0.00  0.00    +0.000 A 
ATOM     11  C   UNL     1       0.507  14.928  22.016  0.00  0.00    +0.000 A 
ATOM     12  C   UNL     1      -0.588  14.203  21.569  0.00  0.00    +0.000 A 
ATOM     13  N   UNL     1      -0.377  13.106  20.800  0.00  0.00    +0.000 NA
ATOM     14  C   UNL     1       0.876  12.751  20.467  0.00  0.00    +0.000 A 
ATOM     15  N   UNL     1       1.148  11.733  19.575  0.00  0.00    +0.000 N 
ATOM     16  N   UNL     1       1.964  13.397  20.898  0.00  0.00    +0.000 NA
ATOM     17  H   UNL     1       2.128  11.491  19.656  0.00  0.00    +0.000 HD
BRANCH  12  18
ATOM     18  N   UNL     1      -1.882  14.549  21.922  0.00  0.00    +0.000 N 
ATOM     19  C   UNL     1      -2.521  15.659  21.223  0.00  0.00    +0.000 C 
ATOM     20  C   UNL     1      -2.572  14.113  23.132  0.00  0.00    +0.000 C 
ENDBRANCH  12  18
ENDBRANCH   1  15
BRANCH   5  21
ATOM     21  C   UNL     1       2.979   6.379  18.056  0.00  0.00    +0.000 C 
BRANCH  21  22
ATOM     22  C   UNL     1       3.167   4.883  18.119  0.00  0.00    +0.000 A 
ATOM     23  C   UNL     1       4.367   4.325  18.582  0.00  0.00    +0.000 A 
ATOM     24  C   UNL     1       4.513   2.937  18.658  0.00  0.00    +0.000 A 
ATOM     25  C   UNL     1       3.463   2.111  18.273  0.00  0.00    +0.000 A 
ATOM     26  F   UNL     1       3.609   0.781  18.352  0.00  0.00    +0.000 F 
ATOM     27  C   UNL     1       2.270   2.638  17.812  0.00  0.00    +0.000 A 
ATOM     28  C   UNL     1       2.130   4.022  17.741  0.00  0.00    +0.000 A 
ATOM     29  F   UNL     1       0.971   4.522  17.293  0.00  0.00    +0.000 F 
ENDBRANCH  21  22
ENDBRANCH   5  21
TORSDOF 4
ENDMDL
