MODEL 1
REMARK VINA RESULT:      -7.7      0.000      0.000
REMARK  Name = 
REMARK  6 active torsions:
REMARK  status: ('A' for Active; 'I' for Inactive)
REMARK    1  A    between atoms: C_1  and  C_2
REMARK    2  A    between atoms: C_2  and  N_3
REMARK    3  A    between atoms: C_6  and  N_7
REMARK    4  A    between atoms: C_10  and  N_11
REMARK    5  A    between atoms: N_14  and  C_15
REMARK    6  A    between atoms: C_15  and  C_16
REMARK                            x       y       z     vdW  Elec       q    Type
REMARK                         _______ _______ _______ _____ _____    ______ ____
ROOT
ATOM      1  N   UNL     1      -3.045  12.607  20.012  0.00  0.00    +0.000 N 
ATOM      2  C   UNL     1      -1.924  12.633  20.840  0.00  0.00    +0.000 A 
ATOM      3  O   UNL     1      -1.840  13.387  21.811  0.00  0.00    +0.000 OA
ATOM      4  C   UNL     1      -0.861  11.678  20.514  0.00  0.00    +0.000 A 
ATOM      5  C   UNL     1      -0.864  10.800  19.495  0.00  0.00    +0.000 A 
ATOM      6  C   UNL     1      -2.070  10.835  18.613  0.00  0.00    +0.000 A 
ATOM      7  C   UNL     1      -2.254   9.913  17.565  0.00  0.00    +0.000 A 
ATOM      8  C   UNL     1      -3.342   9.984  16.697  0.00  0.00    +0.000 A 
ATOM      9  C   UNL     1      -4.295  10.972  16.878  0.00  0.00    +0.000 A 
ATOM     10  C   UNL     1      -4.181  11.853  17.952  0.00  0.00    +0.000 A 
ATOM     11  C   UNL     1      -3.097  11.778  18.848  0.00  0.00    +0.000 A 
ENDROOT
BRANCH   5  12
ATOM     12  N   UNL     1       0.142   9.848  19.232  0.00  0.00    +0.000 N 
ATOM     13  C   UNL     1       1.021   9.904  18.032  0.00  0.00    +0.000 C 
ATOM     14  C   UNL     1       2.455   9.416  18.324  0.00  0.00    +0.000 C 
ATOM     15  N   UNL     1       2.526   8.124  19.051  0.00  0.00    +0.000 NA
ATOM     16  C   UNL     1       1.777   8.299  20.313  0.00  0.00    +0.000 C 
ATOM     17  C   UNL     1       0.294   8.644  20.085  0.00  0.00    +0.000 C 
BRANCH  15  18
ATOM     18  C   UNL     1       1.972   6.990  18.281  0.00  0.00    +0.000 C 
BRANCH  18  19
ATOM     19  C   UNL     1       3.052   6.059  17.796  0.00  0.00    +0.000 A 
ATOM     20  C   UNL     1       2.846   4.658  17.755  0.00  0.00    +0.000 A 
ATOM     21  C   UNL     1       3.783   3.822  17.148  0.00  0.00    +0.000 A 
ATOM     22  C   UNL     1       4.890   4.417  16.583  0.00  0.00    +0.000 A 
ATOM     23  C   UNL     1       5.115   5.772  16.668  0.00  0.00    +0.000 A 
ATOM     24  C   UNL     1       4.233   6.617  17.288  0.00  0.00    +0.000 A 
ATOM     25  O   UNL     1       6.237   6.156  16.004  0.00  0.00    +0.000 OA
ATOM     26  C   UNL     1       6.504   4.946  15.272  0.00  0.00    +0.000 C 
ATOM     27  O   UNL     1       5.844   3.792  15.839  0.00  0.00    +0.000 OA
ENDBRANCH  18  19
ENDBRANCH  15  18
ENDBRANCH   5  12
BRANCH   4  28
ATOM     28  N   UNL     1       0.259  11.688  21.412  0.00  0.00    +0.000 N 
ATOM     29  O   UNL     1       0.154  11.016  22.450  0.00  0.00    +0.000 OA
ATOM     30  O   UNL     1       1.256  12.344  21.078  0.00  0.00    +0.000 OA
ENDBRANCH   4  28
BRANCH   1  32
ATOM     31  C   UNL     1      -5.143  12.487  21.364  0.00  0.00    +0.000 C 
ATOM     32  C   UNL     1      -4.228  13.324  20.489  0.00  0.00    +0.000 C 
ENDBRANCH   1  32
TORSDOF 5
ENDMDL
MODEL 2
REMARK VINA RESULT:      -7.6      1.614      1.945
REMARK  Name = 
REMARK  6 active torsions:
REMARK  status: ('A' for Active; 'I' for Inactive)
REMARK    1  A    between atoms: C_1  and  C_2
REMARK    2  A    between atoms: C_2  and  N_3
REMARK    3  A    between atoms: C_6  and  N_7
REMARK    4  A    between atoms: C_10  and  N_11
REMARK    5  A    between atoms: N_14  and  C_15
REMARK    6  A    between atoms: C_15  and  C_16
REMARK                            x       y       z     vdW  Elec       q    Type
REMARK                         _______ _______ _______ _____ _____    ______ ____
ROOT
ATOM      1  N   UNL     1      -3.040  12.669  20.034  0.00  0.00    +0.000 N 
ATOM      2  C   UNL     1      -1.899  12.696  20.834  0.00  0.00    +0.000 A 
ATOM      3  O   UNL     1      -1.787  13.458  21.796  0.00  0.00    +0.000 OA
ATOM      4  C   UNL     1      -0.850  11.732  20.490  0.00  0.00    +0.000 A 
ATOM      5  C   UNL     1      -0.883  10.845  19.480  0.00  0.00    +0.000 A 
ATOM      6  C   UNL     1      -2.110  10.880  18.627  0.00  0.00    +0.000 A 
ATOM      7  C   UNL     1      -2.326   9.949  17.592  0.00  0.00    +0.000 A 
ATOM      8  C   UNL     1      -3.435  10.020  16.751  0.00  0.00    +0.000 A 
ATOM      9  C   UNL     1      -4.377  11.016  16.946  0.00  0.00    +0.000 A 
ATOM     10  C   UNL     1      -4.231  11.905  18.009  0.00  0.00    +0.000 A 
ATOM     11  C   UNL     1      -3.126  11.831  18.879  0.00  0.00    +0.000 A 
ENDROOT
BRANCH   5  12
ATOM     12  N   UNL     1       0.110   9.884  19.200  0.00  0.00    +0.000 N 
ATOM     13  C   UNL     1       1.005   9.961  18.013  0.00  0.00    +0.000 C 
ATOM     14  C   UNL     1       2.426   9.440  18.308  0.00  0.00    +0.000 C 
ATOM     15  N   UNL     1       2.467   8.127  18.996  0.00  0.00    +0.000 NA
ATOM     16  C   UNL     1       1.706   8.276  20.254  0.00  0.00    +0.000 C 
ATOM     17  C   UNL     1       0.231   8.653  20.018  0.00  0.00    +0.000 C 
BRANCH  15  18
ATOM     18  C   UNL     1       1.904   7.025  18.186  0.00  0.00    +0.000 C 
BRANCH  18  19
ATOM     19  C   UNL     1       2.725   5.767  18.299  0.00  0.00    +0.000 A 
ATOM     20  C   UNL     1       3.954   5.758  19.003  0.00  0.00    +0.000 A 
ATOM     21  C   UNL     1       4.621   4.556  19.248  0.00  0.00    +0.000 A 
ATOM     22  C   UNL     1       4.024   3.399  18.796  0.00  0.00    +0.000 A 
ATOM     23  C   UNL     1       2.857   3.414  18.069  0.00  0.00    +0.000 A 
ATOM     24  C   UNL     1       2.196   4.578  17.780  0.00  0.00    +0.000 A 
ATOM     25  O   UNL     1       2.417   2.164  17.765  0.00  0.00    +0.000 OA
ATOM     26  C   UNL     1       3.276   1.395  18.626  0.00  0.00    +0.000 C 
ATOM     27  O   UNL     1       4.447   2.130  19.046  0.00  0.00    +0.000 OA
ENDBRANCH  18  19
ENDBRANCH  15  18
ENDBRANCH   5  12
BRANCH   4  28
ATOM     28  N   UNL     1       0.291  11.743  21.360  0.00  0.00    +0.000 N 
ATOM     29  O   UNL     1       0.218  11.059  22.393  0.00  0.00    +0.000 OA
ATOM     30  O   UNL     1       1.275  12.410  21.009  0.00  0.00    +0.000 OA
ENDBRANCH   4  28
BRANCH   1  32
ATOM     31  C   UNL     1      -5.109  12.572  21.432  0.00  0.00    +0.000 C 
ATOM     32  C   UNL     1      -4.207  13.399  20.533  0.00  0.00    +0.000 C 
ENDBRANCH   1  32
TORSDOF 5
ENDMDL
MODEL 3
REMARK VINA RESULT:      -7.3      1.004      1.123
REMARK  Name = 
REMARK  6 active torsions:
REMARK  status: ('A' for Active; 'I' for Inactive)
REMARK    1  A    between atoms: C_1  and  C_2
REMARK    2  A    between atoms: C_2  and  N_3
REMARK    3  A    between atoms: C_6  and  N_7
REMARK    4  A    between atoms: C_10  and  N_11
REMARK    5  A    between atoms: N_14  and  C_15
REMARK    6  A    between atoms: C_15  and  C_16
REMARK                            x       y       z     vdW  Elec       q    Type
REMARK                         _______ _______ _______ _____ _____    ______ ____
ROOT
ATOM      1  N   UNL     1      -3.827  13.124  20.723  0.00  0.00    +0.000 N 
ATOM      2  C   UNL     1      -2.694  13.144  21.535  0.00  0.00    +0.000 A 
ATOM      3  O   UNL     1      -2.643  13.800  22.577  0.00  0.00    +0.000 OA
ATOM      4  C   UNL     1      -1.576  12.303  21.099  0.00  0.00    +0.000 A 
ATOM      5  C   UNL     1      -1.539  11.534  19.996  0.00  0.00    +0.000 A 
ATOM      6  C   UNL     1      -2.762  11.575  19.137  0.00  0.00    +0.000 A 
ATOM      7  C   UNL     1      -2.903  10.753  18.002  0.00  0.00    +0.000 A 
ATOM      8  C   UNL     1      -4.010  10.836  17.161  0.00  0.00    +0.000 A 
ATOM      9  C   UNL     1      -5.025  11.732  17.453  0.00  0.00    +0.000 A 
ATOM     10  C   UNL     1      -4.949  12.506  18.611  0.00  0.00    +0.000 A 
ATOM     11  C   UNL     1      -3.845  12.415  19.481  0.00  0.00    +0.000 A 
ENDROOT
BRANCH   5  12
ATOM     12  N   UNL     1      -0.476  10.686  19.624  0.00  0.00    +0.000 N 
ATOM     13  C   UNL     1       0.493  11.022  18.546  0.00  0.00    +0.000 C 
ATOM     14  C   UNL     1       1.918  10.516  18.851  0.00  0.00    +0.000 C 
ATOM     15  N   UNL     1       1.984   9.099  19.287  0.00  0.00    +0.000 NA
ATOM     16  C   UNL     1       1.130   8.978  20.487  0.00  0.00    +0.000 C 
ATOM     17  C   UNL     1      -0.343   9.329  20.209  0.00  0.00    +0.000 C 
BRANCH  15  18
ATOM     18  C   UNL     1       1.542   8.146  18.246  0.00  0.00    +0.000 C 
BRANCH  18  19
ATOM     19  C   UNL     1       2.588   7.101  17.960  0.00  0.00    +0.000 A 
ATOM     20  C   UNL     1       2.312   5.723  18.138  0.00  0.00    +0.000 A 
ATOM     21  C   UNL     1       3.224   4.757  17.710  0.00  0.00    +0.000 A 
ATOM     22  C   UNL     1       4.377   5.202  17.100  0.00  0.00    +0.000 A 
ATOM     23  C   UNL     1       4.667   6.541  16.974  0.00  0.00    +0.000 A 
ATOM     24  C   UNL     1       3.811   7.515  17.415  0.00  0.00    +0.000 A 
ATOM     25  O   UNL     1       5.827   6.761  16.300  0.00  0.00    +0.000 OA
ATOM     26  C   UNL     1       6.055   5.437  15.784  0.00  0.00    +0.000 C 
ATOM     27  O   UNL     1       5.320   4.423  16.504  0.00  0.00    +0.000 OA
ENDBRANCH  18  19
ENDBRANCH  15  18
ENDBRANCH   5  12
BRANCH   4  28
ATOM     28  N   UNL     1      -0.442  12.300  21.979  0.00  0.00    +0.000 N 
ATOM     29  O   UNL     1      -0.468  11.499  22.927  0.00  0.00    +0.000 OA
ATOM     30  O   UNL     1       0.490  13.075  21.718  0.00  0.00    +0.000 OA
ENDBRANCH   4  28
BRANCH   1  32
ATOM     31  C   UNL     1      -5.883  12.723  22.086  0.00  0.00    +0.000 C 
ATOM     32  C   UNL     1      -5.047  13.706  21.285  0.00  0.00    +0.000 C 
ENDBRANCH   1  32
TORSDOF 5
ENDMDL
MODEL 4
REMARK VINA RESULT:      -7.2      1.479      2.047
REMARK  Name = 
REMARK  6 active torsions:
REMARK  status: ('A' for Active; 'I' for Inactive)
REMARK    1  A    between atoms: C_1  and  C_2
REMARK    2  A    between atoms: C_2  and  N_3
REMARK    3  A    between atoms: C_6  and  N_7
REMARK    4  A    between atoms: C_10  and  N_11
REMARK    5  A    between atoms: N_14  and  C_15
REMARK    6  A    between atoms: C_15  and  C_16
REMARK                            x       y       z     vdW  Elec       q    Type
REMARK                         _______ _______ _______ _____ _____    ______ ____
ROOT
ATOM      1  N   UNL     1      -3.960  12.968  20.879  0.00  0.00    +0.000 N 
ATOM      2  C   UNL     1      -2.816  13.001  21.675  0.00  0.00    +0.000 A 
ATOM      3  O   UNL     1      -2.784  13.592  22.757  0.00  0.00    +0.000 OA
ATOM      4  C   UNL     1      -1.660  12.256  21.171  0.00  0.00    +0.000 A 
ATOM      5  C   UNL     1      -1.599  11.563  20.020  0.00  0.00    +0.000 A 
ATOM      6  C   UNL     1      -2.836  11.587  19.183  0.00  0.00    +0.000 A 
ATOM      7  C   UNL     1      -2.951  10.832  17.999  0.00  0.00    +0.000 A 
ATOM      8  C   UNL     1      -4.076  10.905  17.180  0.00  0.00    +0.000 A 
ATOM      9  C   UNL     1      -5.134  11.721  17.544  0.00  0.00    +0.000 A 
ATOM     10  C   UNL     1      -5.082  12.422  18.748  0.00  0.00    +0.000 A 
ATOM     11  C   UNL     1      -3.960  12.340  19.595  0.00  0.00    +0.000 A 
ENDROOT
BRANCH   5  12
ATOM     12  N   UNL     1      -0.496  10.802  19.579  0.00  0.00    +0.000 N 
ATOM     13  C   UNL     1       0.423  11.254  18.500  0.00  0.00    +0.000 C 
ATOM     14  C   UNL     1       1.883  10.821  18.745  0.00  0.00    +0.000 C 
ATOM     15  N   UNL     1       2.047   9.391  19.104  0.00  0.00    +0.000 NA
ATOM     16  C   UNL     1       1.232   9.154  20.314  0.00  0.00    +0.000 C 
ATOM     17  C   UNL     1      -0.267   9.428  20.088  0.00  0.00    +0.000 C 
BRANCH  15  18
ATOM     18  C   UNL     1       1.637   8.468  18.023  0.00  0.00    +0.000 C 
BRANCH  18  19
ATOM     19  C   UNL     1       2.560   7.282  17.915  0.00  0.00    +0.000 A 
ATOM     20  C   UNL     1       3.878   7.426  17.419  0.00  0.00    +0.000 A 
ATOM     21  C   UNL     1       4.779   6.362  17.481  0.00  0.00    +0.000 A 
ATOM     22  C   UNL     1       4.334   5.191  18.058  0.00  0.00    +0.000 A 
ATOM     23  C   UNL     1       3.039   5.036  18.493  0.00  0.00    +0.000 A 
ATOM     24  C   UNL     1       2.120   6.049  18.413  0.00  0.00    +0.000 A 
ATOM     25  O   UNL     1       2.825   3.825  19.071  0.00  0.00    +0.000 OA
ATOM     26  C   UNL     1       4.188   3.381  19.200  0.00  0.00    +0.000 C 
ATOM     27  O   UNL     1       5.093   4.093  18.326  0.00  0.00    +0.000 OA
ENDBRANCH  18  19
ENDBRANCH  15  18
ENDBRANCH   5  12
BRANCH   4  28
ATOM     28  N   UNL     1      -0.512  12.262  22.033  0.00  0.00    +0.000 N 
ATOM     29  O   UNL     1      -0.494  11.428  22.952  0.00  0.00    +0.000 OA
ATOM     30  O   UNL     1       0.387  13.079  21.787  0.00  0.00    +0.000 OA
ENDBRANCH   4  28
BRANCH   1  32
ATOM     31  C   UNL     1      -5.523  14.893  21.188  0.00  0.00    +0.000 C 
ATOM     32  C   UNL     1      -5.201  13.442  21.495  0.00  0.00    +0.000 C 
ENDBRANCH   1  32
TORSDOF 5
ENDMDL
MODEL 5
REMARK VINA RESULT:      -7.1      3.518      4.739
REMARK  Name = 
REMARK  6 active torsions:
REMARK  status: ('A' for Active; 'I' for Inactive)
REMARK    1  A    between atoms: C_1  and  C_2
REMARK    2  A    between atoms: C_2  and  N_3
REMARK    3  A    between atoms: C_6  and  N_7
REMARK    4  A    between atoms: C_10  and  N_11
REMARK    5  A    between atoms: N_14  and  C_15
REMARK    6  A    between atoms: C_15  and  C_16
REMARK                            x       y       z     vdW  Elec       q    Type
REMARK                         _______ _______ _______ _____ _____    ______ ____
ROOT
ATOM      1  N   UNL     1      -0.032  16.740  19.396  0.00  0.00    +0.000 N 
ATOM      2  C   UNL     1      -0.977  15.970  20.071  0.00  0.00    +0.000 A 
ATOM      3  O   UNL     1      -1.997  16.459  20.559  0.00  0.00    +0.000 OA
ATOM      4  C   UNL     1      -0.707  14.531  20.133  0.00  0.00    +0.000 A 
ATOM      5  C   UNL     1       0.360  13.897  19.615  0.00  0.00    +0.000 A 
ATOM      6  C   UNL     1       1.364  14.770  18.934  0.00  0.00    +0.000 A 
ATOM      7  C   UNL     1       2.483  14.236  18.265  0.00  0.00    +0.000 A 
ATOM      8  C   UNL     1       3.457  15.048  17.688  0.00  0.00    +0.000 A 
ATOM      9  C   UNL     1       3.318  16.425  17.742  0.00  0.00    +0.000 A 
ATOM     10  C   UNL     1       2.184  16.981  18.330  0.00  0.00    +0.000 A 
ATOM     11  C   UNL     1       1.182  16.171  18.898  0.00  0.00    +0.000 A 
ENDROOT
BRANCH   5  12
ATOM     12  N   UNL     1       0.573  12.503  19.633  0.00  0.00    +0.000 N 
ATOM     13  C   UNL     1       1.454  11.828  20.624  0.00  0.00    +0.000 C 
ATOM     14  C   UNL     1       0.925  10.439  21.038  0.00  0.00    +0.000 C 
ATOM     15  N   UNL     1       0.535   9.569  19.901  0.00  0.00    +0.000 NA
ATOM     16  C   UNL     1      -0.493  10.300  19.132  0.00  0.00    +0.000 C 
ATOM     17  C   UNL     1       0.023  11.635  18.564  0.00  0.00    +0.000 C 
BRANCH  15  18
ATOM     18  C   UNL     1       1.671   9.210  19.024  0.00  0.00    +0.000 C 
BRANCH  18  19
ATOM     19  C   UNL     1       2.088   7.774  19.202  0.00  0.00    +0.000 A 
ATOM     20  C   UNL     1       1.710   7.041  20.354  0.00  0.00    +0.000 A 
ATOM     21  C   UNL     1       1.954   5.669  20.432  0.00  0.00    +0.000 A 
ATOM     22  C   UNL     1       2.552   5.070  19.344  0.00  0.00    +0.000 A 
ATOM     23  C   UNL     1       2.965   5.792  18.248  0.00  0.00    +0.000 A 
ATOM     24  C   UNL     1       2.773   7.145  18.154  0.00  0.00    +0.000 A 
ATOM     25  O   UNL     1       3.485   5.002  17.271  0.00  0.00    +0.000 OA
ATOM     26  C   UNL     1       3.079   3.714  17.768  0.00  0.00    +0.000 C 
ATOM     27  O   UNL     1       2.754   3.735  19.176  0.00  0.00    +0.000 OA
ENDBRANCH  18  19
ENDBRANCH  15  18
ENDBRANCH   5  12
BRANCH   4  28
ATOM     28  N   UNL     1      -1.720  13.753  20.787  0.00  0.00    +0.000 N 
ATOM     29  O   UNL     1      -2.616  13.278  20.070  0.00  0.00    +0.000 OA
ATOM     30  O   UNL     1      -1.618  13.589  22.011  0.00  0.00    +0.000 OA
ENDBRANCH   4  28
BRANCH   1  32
ATOM     31  C   UNL     1      -1.115  18.242  17.717  0.00  0.00    +0.000 C 
ATOM     32  C   UNL     1      -0.422  18.111  19.062  0.00  0.00    +0.000 C 
ENDBRANCH   1  32
TORSDOF 5
ENDMDL
MODEL 6
REMARK VINA RESULT:      -7.0      5.747      6.773
REMARK  Name = 
REMARK  6 active torsions:
REMARK  status: ('A' for Active; 'I' for Inactive)
REMARK    1  A    between atoms: C_1  and  C_2
REMARK    2  A    between atoms: C_2  and  N_3
REMARK    3  A    between atoms: C_6  and  N_7
REMARK    4  A    between atoms: C_10  and  N_11
REMARK    5  A    between atoms: N_14  and  C_15
REMARK    6  A    between atoms: C_15  and  C_16
REMARK                            x       y       z     vdW  Elec       q    Type
REMARK                         _______ _______ _______ _____ _____    ______ ____
ROOT
ATOM      1  N   UNL     1      -5.743  11.767  19.350  0.00  0.00    +0.000 N 
ATOM      2  C   UNL     1      -5.439  12.311  20.597  0.00  0.00    +0.000 A 
ATOM      3  O   UNL     1      -6.298  12.495  21.462  0.00  0.00    +0.000 OA
ATOM      4  C   UNL     1      -4.026  12.615  20.838  0.00  0.00    +0.000 A 
ATOM      5  C   UNL     1      -3.012  12.432  19.974  0.00  0.00    +0.000 A 
ATOM      6  C   UNL     1      -3.393  11.882  18.638  0.00  0.00    +0.000 A 
ATOM      7  C   UNL     1      -2.428  11.551  17.666  0.00  0.00    +0.000 A 
ATOM      8  C   UNL     1      -2.781  11.103  16.394  0.00  0.00    +0.000 A 
ATOM      9  C   UNL     1      -4.118  10.947  16.072  0.00  0.00    +0.000 A 
ATOM     10  C   UNL     1      -5.094  11.194  17.037  0.00  0.00    +0.000 A 
ATOM     11  C   UNL     1      -4.749  11.627  18.332  0.00  0.00    +0.000 A 
ENDROOT
BRANCH   5  12
ATOM     12  N   UNL     1      -1.650  12.675  20.245  0.00  0.00    +0.000 N 
ATOM     13  C   UNL     1      -0.970  13.955  19.907  0.00  0.00    +0.000 C 
ATOM     14  C   UNL     1       0.095  14.354  20.949  0.00  0.00    +0.000 C 
ATOM     15  N   UNL     1       1.032  13.263  21.316  0.00  0.00    +0.000 NA
ATOM     16  C   UNL     1       0.212  12.144  21.824  0.00  0.00    +0.000 C 
ATOM     17  C   UNL     1      -0.775  11.601  20.774  0.00  0.00    +0.000 C 
BRANCH  15  18
ATOM     18  C   UNL     1       1.871  12.810  20.186  0.00  0.00    +0.000 C 
BRANCH  18  19
ATOM     19  C   UNL     1       2.788  13.899  19.693  0.00  0.00    +0.000 A 
ATOM     20  C   UNL     1       2.658  14.427  18.386  0.00  0.00    +0.000 A 
ATOM     21  C   UNL     1       3.395  15.547  17.998  0.00  0.00    +0.000 A 
ATOM     22  C   UNL     1       4.226  16.115  18.941  0.00  0.00    +0.000 A 
ATOM     23  C   UNL     1       4.389  15.570  20.194  0.00  0.00    +0.000 A 
ATOM     24  C   UNL     1       3.708  14.451  20.594  0.00  0.00    +0.000 A 
ATOM     25  O   UNL     1       5.214  16.312  20.980  0.00  0.00    +0.000 OA
ATOM     26  C   UNL     1       5.298  17.503  20.176  0.00  0.00    +0.000 C 
ATOM     27  O   UNL     1       4.922  17.276  18.799  0.00  0.00    +0.000 OA
ENDBRANCH  18  19
ENDBRANCH  15  18
ENDBRANCH   5  12
BRANCH   4  28
ATOM     28  N   UNL     1      -3.732  13.125  22.148  0.00  0.00    +0.000 N 
ATOM     29  O   UNL     1      -3.538  12.291  23.046  0.00  0.00    +0.000 OA
ATOM     30  O   UNL     1      -3.667  14.355  22.284  0.00  0.00    +0.000 OA
ENDBRANCH   4  28
BRANCH   1  32
ATOM     31  C   UNL     1      -7.152   9.717  19.591  0.00  0.00    +0.000 C 
ATOM     32  C   UNL     1      -7.076  11.182  19.198  0.00  0.00    +0.000 C 
ENDBRANCH   1  32
TORSDOF 5
ENDMDL
MODEL 7
REMARK VINA RESULT:      -7.0      2.473      3.681
REMARK  Name = 
REMARK  6 active torsions:
REMARK  status: ('A' for Active; 'I' for Inactive)
REMARK    1  A    between atoms: C_1  and  C_2
REMARK    2  A    between atoms: C_2  and  N_3
REMARK    3  A    between atoms: C_6  and  N_7
REMARK    4  A    between atoms: C_10  and  N_11
REMARK    5  A    between atoms: N_14  and  C_15
REMARK    6  A    between atoms: C_15  and  C_16
REMARK                            x       y       z     vdW  Elec       q    Type
REMARK                         _______ _______ _______ _____ _____    ______ ____
ROOT
ATOM      1  N   UNL     1      -5.050  12.765  19.425  0.00  0.00    +0.000 N 
ATOM      2  C   UNL     1      -4.805  11.954  18.318  0.00  0.00    +0.000 A 
ATOM      3  O   UNL     1      -5.654  11.756  17.447  0.00  0.00    +0.000 OA
ATOM      4  C   UNL     1      -3.460  11.380  18.227  0.00  0.00    +0.000 A 
ATOM      5  C   UNL     1      -2.459  11.552  19.108  0.00  0.00    +0.000 A 
ATOM      6  C   UNL     1      -2.781  12.398  20.297  0.00  0.00    +0.000 A 
ATOM      7  C   UNL     1      -1.806  12.742  21.254  0.00  0.00    +0.000 A 
ATOM      8  C   UNL     1      -2.116  13.473  22.399  0.00  0.00    +0.000 A 
ATOM      9  C   UNL     1      -3.416  13.905  22.601  0.00  0.00    +0.000 A 
ATOM     10  C   UNL     1      -4.387  13.647  21.635  0.00  0.00    +0.000 A 
ATOM     11  C   UNL     1      -4.081  12.927  20.463  0.00  0.00    +0.000 A 
ENDROOT
BRANCH   5  12
ATOM     12  N   UNL     1      -1.152  11.040  18.973  0.00  0.00    +0.000 N 
ATOM     13  C   UNL     1      -0.085  11.728  18.197  0.00  0.00    +0.000 C 
ATOM     14  C   UNL     1       1.312  11.553  18.827  0.00  0.00    +0.000 C 
ATOM     15  N   UNL     1       1.651  10.155  19.189  0.00  0.00    +0.000 NA
ATOM     16  C   UNL     1       0.606   9.688  20.124  0.00  0.00    +0.000 C 
ATOM     17  C   UNL     1      -0.802   9.698  19.500  0.00  0.00    +0.000 C 
BRANCH  15  18
ATOM     18  C   UNL     1       1.732   9.252  18.021  0.00  0.00    +0.000 C 
BRANCH  18  19
ATOM     19  C   UNL     1       2.559   8.027  18.312  0.00  0.00    +0.000 A 
ATOM     20  C   UNL     1       2.282   7.209  19.434  0.00  0.00    +0.000 A 
ATOM     21  C   UNL     1       2.940   5.990  19.601  0.00  0.00    +0.000 A 
ATOM     22  C   UNL     1       3.842   5.620  18.627  0.00  0.00    +0.000 A 
ATOM     23  C   UNL     1       4.148   6.438  17.565  0.00  0.00    +0.000 A 
ATOM     24  C   UNL     1       3.547   7.657  17.390  0.00  0.00    +0.000 A 
ATOM     25  O   UNL     1       5.023   5.862  16.699  0.00  0.00    +0.000 OA
ATOM     26  C   UNL     1       4.988   4.510  17.192  0.00  0.00    +0.000 C 
ATOM     27  O   UNL     1       4.483   4.422  18.543  0.00  0.00    +0.000 OA
ENDBRANCH  18  19
ENDBRANCH  15  18
ENDBRANCH   5  12
BRANCH   4  28
ATOM     28  N   UNL     1      -3.216  10.592  17.052  0.00  0.00    +0.000 N 
ATOM     29  O   UNL     1      -2.829  11.196  16.040  0.00  0.00    +0.000 OA
ATOM     30  O   UNL     1      -3.385   9.367  17.137  0.00  0.00    +0.000 OA
ENDBRANCH   4  28
BRANCH   1  32
ATOM     31  C   UNL     1      -7.485  12.898  19.974  0.00  0.00    +0.000 C 
ATOM     32  C   UNL     1      -6.265  13.581  19.383  0.00  0.00    +0.000 C 
ENDBRANCH   1  32
TORSDOF 5
ENDMDL
MODEL 8
REMARK VINA RESULT:      -6.9      1.855      2.306
REMARK  Name = 
REMARK  6 active torsions:
REMARK  status: ('A' for Active; 'I' for Inactive)
REMARK    1  A    between atoms: C_1  and  C_2
REMARK    2  A    between atoms: C_2  and  N_3
REMARK    3  A    between atoms: C_6  and  N_7
REMARK    4  A    between atoms: C_10  and  N_11
REMARK    5  A    between atoms: N_14  and  C_15
REMARK    6  A    between atoms: C_15  and  C_16
REMARK                            x       y       z     vdW  Elec       q    Type
REMARK                         _______ _______ _______ _____ _____    ______ ____
ROOT
ATOM      1  N   UNL     1      -2.654  12.818  19.952  0.00  0.00    +0.000 N 
ATOM      2  C   UNL     1      -1.406  12.908  20.566  0.00  0.00    +0.000 A 
ATOM      3  O   UNL     1      -1.131  13.801  21.370  0.00  0.00    +0.000 OA
ATOM      4  C   UNL     1      -0.447  11.852  20.231  0.00  0.00    +0.000 A 
ATOM      5  C   UNL     1      -0.655  10.825  19.388  0.00  0.00    +0.000 A 
ATOM      6  C   UNL     1      -1.995  10.792  18.725  0.00  0.00    +0.000 A 
ATOM      7  C   UNL     1      -2.387   9.727  17.891  0.00  0.00    +0.000 A 
ATOM      8  C   UNL     1      -3.607   9.725  17.217  0.00  0.00    +0.000 A 
ATOM      9  C   UNL     1      -4.483  10.784  17.387  0.00  0.00    +0.000 A 
ATOM     10  C   UNL     1      -4.155  11.816  18.265  0.00  0.00    +0.000 A 
ATOM     11  C   UNL     1      -2.935  11.819  18.968  0.00  0.00    +0.000 A 
ENDROOT
BRANCH   5  12
ATOM     12  N   UNL     1       0.259   9.785  19.123  0.00  0.00    +0.000 N 
ATOM     13  C   UNL     1       0.849   9.544  17.778  0.00  0.00    +0.000 C 
ATOM     14  C   UNL     1       2.307   9.047  17.850  0.00  0.00    +0.000 C 
ATOM     15  N   UNL     1       2.528   7.932  18.803  0.00  0.00    +0.000 NA
ATOM     16  C   UNL     1       2.081   8.404  20.130  0.00  0.00    +0.000 C 
ATOM     17  C   UNL     1       0.587   8.776  20.159  0.00  0.00    +0.000 C 
BRANCH  15  18
ATOM     18  C   UNL     1       1.807   6.695  18.431  0.00  0.00    +0.000 C 
BRANCH  18  19
ATOM     19  C   UNL     1       2.243   5.517  19.263  0.00  0.00    +0.000 A 
ATOM     20  C   UNL     1       1.324   4.826  20.089  0.00  0.00    +0.000 A 
ATOM     21  C   UNL     1       1.695   3.639  20.722  0.00  0.00    +0.000 A 
ATOM     22  C   UNL     1       2.971   3.171  20.491  0.00  0.00    +0.000 A 
ATOM     23  C   UNL     1       3.879   3.870  19.730  0.00  0.00    +0.000 A 
ATOM     24  C   UNL     1       3.559   5.056  19.125  0.00  0.00    +0.000 A 
ATOM     25  O   UNL     1       5.059   3.209  19.591  0.00  0.00    +0.000 OA
ATOM     26  C   UNL     1       4.668   1.920  20.099  0.00  0.00    +0.000 C 
ATOM     27  O   UNL     1       3.473   1.977  20.909  0.00  0.00    +0.000 OA
ENDBRANCH  18  19
ENDBRANCH  15  18
ENDBRANCH   5  12
BRANCH   4  28
ATOM     28  N   UNL     1       0.811  11.937  20.915  0.00  0.00    +0.000 N 
ATOM     29  O   UNL     1       0.907  11.334  21.996  0.00  0.00    +0.000 OA
ATOM     30  O   UNL     1       1.718  12.583  20.370  0.00  0.00    +0.000 OA
ENDBRANCH   4  28
BRANCH   1  32
ATOM     31  C   UNL     1      -4.496  13.034  21.628  0.00  0.00    +0.000 C 
ATOM     32  C   UNL     1      -3.714  13.671  20.493  0.00  0.00    +0.000 C 
ENDBRANCH   1  32
TORSDOF 5
ENDMDL
MODEL 9
REMARK VINA RESULT:      -6.8      2.414      3.702
REMARK  Name = 
REMARK  6 active torsions:
REMARK  status: ('A' for Active; 'I' for Inactive)
REMARK    1  A    between atoms: C_1  and  C_2
REMARK    2  A    between atoms: C_2  and  N_3
REMARK    3  A    between atoms: C_6  and  N_7
REMARK    4  A    between atoms: C_10  and  N_11
REMARK    5  A    between atoms: N_14  and  C_15
REMARK    6  A    between atoms: C_15  and  C_16
REMARK                            x       y       z     vdW  Elec       q    Type
REMARK                         _______ _______ _______ _____ _____    ______ ____
ROOT
ATOM      1  N   UNL     1      -4.219  13.055  20.307  0.00  0.00    +0.000 N 
ATOM      2  C   UNL     1      -4.262  12.276  19.152  0.00  0.00    +0.000 A 
ATOM      3  O   UNL     1      -5.246  12.251  18.411  0.00  0.00    +0.000 OA
ATOM      4  C   UNL     1      -3.048  11.514  18.846  0.00  0.00    +0.000 A 
ATOM      5  C   UNL     1      -1.918  11.490  19.574  0.00  0.00    +0.000 A 
ATOM      6  C   UNL     1      -1.933  12.312  20.822  0.00  0.00    +0.000 A 
ATOM      7  C   UNL     1      -0.791  12.457  21.633  0.00  0.00    +0.000 A 
ATOM      8  C   UNL     1      -0.819  13.165  22.833  0.00  0.00    +0.000 A 
ATOM      9  C   UNL     1      -1.995  13.775  23.238  0.00  0.00    +0.000 A 
ATOM     10  C   UNL     1      -3.121  13.713  22.419  0.00  0.00    +0.000 A 
ATOM     11  C   UNL     1      -3.099  13.018  21.195  0.00  0.00    +0.000 A 
ENDROOT
BRANCH   5  12
ATOM     12  N   UNL     1      -0.738  10.797  19.232  0.00  0.00    +0.000 N 
ATOM     13  C   UNL     1       0.257  11.318  18.255  0.00  0.00    +0.000 C 
ATOM     14  C   UNL     1       1.707  10.957  18.637  0.00  0.00    +0.000 C 
ATOM     15  N   UNL     1       1.911   9.530  18.988  0.00  0.00    +0.000 NA
ATOM     16  C   UNL     1       0.996   9.226  20.108  0.00  0.00    +0.000 C 
ATOM     17  C   UNL     1      -0.485   9.426  19.739  0.00  0.00    +0.000 C 
BRANCH  15  18
ATOM     18  C   UNL     1       1.659   8.609  17.858  0.00  0.00    +0.000 C 
BRANCH  18  19
ATOM     19  C   UNL     1       2.641   7.467  17.833  0.00  0.00    +0.000 A 
ATOM     20  C   UNL     1       3.965   7.652  17.366  0.00  0.00    +0.000 A 
ATOM     21  C   UNL     1       4.913   6.637  17.504  0.00  0.00    +0.000 A 
ATOM     22  C   UNL     1       4.509   5.474  18.125  0.00  0.00    +0.000 A 
ATOM     23  C   UNL     1       3.209   5.277  18.532  0.00  0.00    +0.000 A 
ATOM     24  C   UNL     1       2.246   6.238  18.378  0.00  0.00    +0.000 A 
ATOM     25  O   UNL     1       3.037   4.085  19.162  0.00  0.00    +0.000 OA
ATOM     26  C   UNL     1       4.416   3.716  19.349  0.00  0.00    +0.000 C 
ATOM     27  O   UNL     1       5.310   4.429  18.467  0.00  0.00    +0.000 OA
ENDBRANCH  18  19
ENDBRANCH  15  18
ENDBRANCH   5  12
BRANCH   4  28
ATOM     28  N   UNL     1      -3.098  10.760  17.626  0.00  0.00    +0.000 N 
ATOM     29  O   UNL     1      -2.781  11.355  16.583  0.00  0.00    +0.000 OA
ATOM     30  O   UNL     1      -3.428   9.568  17.700  0.00  0.00    +0.000 OA
ENDBRANCH   4  28
BRANCH   1  32
ATOM     31  C   UNL     1      -6.481  13.534  21.256  0.00  0.00    +0.000 C 
ATOM     32  C   UNL     1      -5.287  14.044  20.469  0.00  0.00    +0.000 C 
ENDBRANCH   1  32
TORSDOF 5
ENDMDL
