MODEL 1
REMARK VINA RESULT:      -7.9      0.000      0.000
REMARK  Name = 
REMARK  4 active torsions:
REMARK  status: ('A' for Active; 'I' for Inactive)
REMARK    1  A    between atoms: C_5  and  C_7
REMARK    2  A    between atoms: N_12  and  C_13
REMARK    3  A    between atoms: N_21  and  C_22
REMARK    4  A    between atoms: C_22  and  C_23
REMARK                            x       y       z     vdW  Elec       q    Type
REMARK                         _______ _______ _______ _____ _____    ______ ____
ROOT
ATOM      1  O   UNL     1       1.605   8.577  21.712  0.00  0.00    +0.000 OA
ATOM      2  C   UNL     1       1.139   8.842  20.612  0.00  0.00    +0.000 C 
ATOM      3  C   UNL     1      -0.168   9.635  20.483  0.00  0.00    +0.000 C 
ATOM      4  N   UNL     1      -0.224  10.501  19.297  0.00  0.00    +0.000 N 
ATOM      5  C   UNL     1      -0.540  11.864  19.290  0.00  0.00    +0.000 C 
ATOM      6  O   UNL     1      -0.623  12.522  18.257  0.00  0.00    +0.000 OA
ATOM      7  C   UNL     1       0.108   9.795  18.058  0.00  0.00    +0.000 C 
ATOM      8  C   UNL     1       1.477   9.115  18.202  0.00  0.00    +0.000 C 
ATOM      9  N   UNL     1       1.596   8.290  19.407  0.00  0.00    +0.000 N 
ENDROOT
BRANCH   5  10
ATOM     10  C   UNL     1      -0.642  12.535  20.660  0.00  0.00    +0.000 C 
ATOM     11  C   UNL     1       0.185  13.813  20.622  0.00  0.00    +0.000 C 
ATOM     12  C   UNL     1       0.469  14.202  22.053  0.00  0.00    +0.000 C 
ATOM     13  C   UNL     1      -0.787  14.335  22.891  0.00  0.00    +0.000 C 
ATOM     14  O   UNL     1      -0.743  15.002  23.929  0.00  0.00    +0.000 OA
ATOM     15  N   UNL     1      -1.918  13.602  22.504  0.00  0.00    +0.000 N 
ATOM     16  C   UNL     1      -2.017  12.919  21.181  0.00  0.00    +0.000 C 
BRANCH  15  17
ATOM     17  C   UNL     1      -3.123  13.728  23.340  0.00  0.00    +0.000 C 
ATOM     18  C   UNL     1      -4.372  14.140  22.570  0.00  0.00    +0.000 C 
ATOM     19  C   UNL     1      -5.531  13.711  23.457  0.00  0.00    +0.000 C 
ATOM     20  C   UNL     1      -5.024  12.541  24.293  0.00  0.00    +0.000 C 
ATOM     21  C   UNL     1      -3.518  12.437  24.060  0.00  0.00    +0.000 C 
ENDBRANCH  15  17
ENDBRANCH   5  10
BRANCH   9  22
ATOM     22  C   UNL     1       2.691   7.326  19.457  0.00  0.00    +0.000 C 
BRANCH  22  23
ATOM     23  C   UNL     1       2.259   5.882  19.276  0.00  0.00    +0.000 A 
ATOM     24  C   UNL     1       2.119   5.309  18.001  0.00  0.00    +0.000 A 
ATOM     25  C   UNL     1       1.530   4.047  17.836  0.00  0.00    +0.000 A 
ATOM     26  C   UNL     1       1.085   3.332  18.947  0.00  0.00    +0.000 A 
ATOM     27  C   UNL     1       1.263   3.870  20.212  0.00  0.00    +0.000 A 
ATOM     28  F   UNL     1       0.837   3.191  21.286  0.00  0.00    +0.000 F 
ATOM     29  C   UNL     1       1.842   5.130  20.386  0.00  0.00    +0.000 A 
ENDBRANCH  22  23
ENDBRANCH   9  22
TORSDOF 4
ENDMDL
MODEL 2
REMARK VINA RESULT:      -7.7      0.886      1.250
REMARK  Name = 
REMARK  4 active torsions:
REMARK  status: ('A' for Active; 'I' for Inactive)
REMARK    1  A    between atoms: C_5  and  C_7
REMARK    2  A    between atoms: N_12  and  C_13
REMARK    3  A    between atoms: N_21  and  C_22
REMARK    4  A    between atoms: C_22  and  C_23
REMARK                            x       y       z     vdW  Elec       q    Type
REMARK                         _______ _______ _______ _____ _____    ______ ____
ROOT
ATOM      1  O   UNL     1       1.569   8.603  21.734  0.00  0.00    +0.000 OA
ATOM      2  C   UNL     1       1.115   8.889  20.635  0.00  0.00    +0.000 C 
ATOM      3  C   UNL     1      -0.146   9.754  20.506  0.00  0.00    +0.000 C 
ATOM      4  N   UNL     1      -0.156  10.617  19.316  0.00  0.00    +0.000 N 
ATOM      5  C   UNL     1      -0.395  11.995  19.304  0.00  0.00    +0.000 C 
ATOM      6  O   UNL     1      -0.445  12.653  18.269  0.00  0.00    +0.000 OA
ATOM      7  C   UNL     1       0.131   9.888  18.080  0.00  0.00    +0.000 C 
ATOM      8  C   UNL     1       1.460   9.132  18.223  0.00  0.00    +0.000 C 
ATOM      9  N   UNL     1       1.536   8.307  19.431  0.00  0.00    +0.000 N 
ENDROOT
BRANCH   5  10
ATOM     10  C   UNL     1      -0.455  12.677  20.672  0.00  0.00    +0.000 C 
ATOM     11  C   UNL     1       0.302  13.995  20.575  0.00  0.00    +0.000 C 
ATOM     12  C   UNL     1       0.646  14.415  21.984  0.00  0.00    +0.000 C 
ATOM     13  C   UNL     1      -0.566  14.494  22.890  0.00  0.00    +0.000 C 
ATOM     14  O   UNL     1      -0.499  15.175  23.918  0.00  0.00    +0.000 OA
ATOM     15  N   UNL     1      -1.679  13.701  22.575  0.00  0.00    +0.000 N 
ATOM     16  C   UNL     1      -1.816  12.997  21.266  0.00  0.00    +0.000 C 
BRANCH  15  17
ATOM     17  C   UNL     1      -2.840  13.775  23.476  0.00  0.00    +0.000 C 
ATOM     18  C   UNL     1      -3.997  14.603  22.931  0.00  0.00    +0.000 C 
ATOM     19  C   UNL     1      -5.211  14.135  23.716  0.00  0.00    +0.000 C 
ATOM     20  C   UNL     1      -4.920  12.701  24.145  0.00  0.00    +0.000 C 
ATOM     21  C   UNL     1      -3.457  12.416  23.809  0.00  0.00    +0.000 C 
ENDBRANCH  15  17
ENDBRANCH   5  10
BRANCH   9  22
ATOM     22  C   UNL     1       2.575   7.283  19.482  0.00  0.00    +0.000 C 
BRANCH  22  23
ATOM     23  C   UNL     1       2.054   5.861  19.373  0.00  0.00    +0.000 A 
ATOM     24  C   UNL     1       1.508   5.189  20.479  0.00  0.00    +0.000 A 
ATOM     25  C   UNL     1       1.217   3.818  20.421  0.00  0.00    +0.000 A 
ATOM     26  C   UNL     1       1.455   3.102  19.249  0.00  0.00    +0.000 A 
ATOM     27  C   UNL     1       1.950   3.768  18.139  0.00  0.00    +0.000 A 
ATOM     28  F   UNL     1       2.184   3.087  17.009  0.00  0.00    +0.000 F 
ATOM     29  C   UNL     1       2.250   5.132  18.189  0.00  0.00    +0.000 A 
ENDBRANCH  22  23
ENDBRANCH   9  22
TORSDOF 4
ENDMDL
MODEL 3
REMARK VINA RESULT:      -7.1      4.647      6.967
REMARK  Name = 
REMARK  4 active torsions:
REMARK  status: ('A' for Active; 'I' for Inactive)
REMARK    1  A    between atoms: C_5  and  C_7
REMARK    2  A    between atoms: N_12  and  C_13
REMARK    3  A    between atoms: N_21  and  C_22
REMARK    4  A    between atoms: C_22  and  C_23
REMARK                            x       y       z     vdW  Elec       q    Type
REMARK                         _______ _______ _______ _____ _____    ______ ____
ROOT
ATOM      1  O   UNL     1       6.717   6.996  17.343  0.00  0.00    +0.000 OA
ATOM      2  C   UNL     1       6.116   6.039  17.812  0.00  0.00    +0.000 C 
ATOM      3  C   UNL     1       5.213   6.204  19.041  0.00  0.00    +0.000 C 
ATOM      4  N   UNL     1       4.047   5.309  19.047  0.00  0.00    +0.000 N 
ATOM      5  C   UNL     1       2.716   5.696  19.233  0.00  0.00    +0.000 C 
ATOM      6  O   UNL     1       1.789   4.892  19.282  0.00  0.00    +0.000 OA
ATOM      7  C   UNL     1       4.402   3.907  18.817  0.00  0.00    +0.000 C 
ATOM      8  C   UNL     1       5.206   3.785  17.515  0.00  0.00    +0.000 C 
ATOM      9  N   UNL     1       6.344   4.706  17.442  0.00  0.00    +0.000 N 
ENDROOT
BRANCH   5  10
ATOM     10  C   UNL     1       2.450   7.202  19.234  0.00  0.00    +0.000 C 
ATOM     11  C   UNL     1       1.833   7.573  17.893  0.00  0.00    +0.000 C 
ATOM     12  C   UNL     1       2.015   9.062  17.715  0.00  0.00    +0.000 C 
ATOM     13  C   UNL     1       1.453   9.868  18.868  0.00  0.00    +0.000 C 
ATOM     14  O   UNL     1       1.186  11.060  18.688  0.00  0.00    +0.000 OA
ATOM     15  N   UNL     1       1.361   9.249  20.124  0.00  0.00    +0.000 N 
ATOM     16  C   UNL     1       1.543   7.780  20.308  0.00  0.00    +0.000 C 
BRANCH  15  17
ATOM     17  C   UNL     1       0.832  10.054  21.236  0.00  0.00    +0.000 C 
ATOM     18  C   UNL     1      -0.542  10.657  20.967  0.00  0.00    +0.000 C 
ATOM     19  C   UNL     1      -1.102  10.971  22.345  0.00  0.00    +0.000 C 
ATOM     20  C   UNL     1      -0.439   9.997  23.312  0.00  0.00    +0.000 C 
ATOM     21  C   UNL     1       0.665   9.276  22.543  0.00  0.00    +0.000 C 
ENDBRANCH  15  17
ENDBRANCH   5  10
BRANCH   9  22
ATOM     22  C   UNL     1       7.370   4.429  16.442  0.00  0.00    +0.000 C 
BRANCH  22  23
ATOM     23  C   UNL     1       6.869   4.465  15.009  0.00  0.00    +0.000 A 
ATOM     24  C   UNL     1       5.742   3.731  14.604  0.00  0.00    +0.000 A 
ATOM     25  C   UNL     1       5.407   3.609  13.247  0.00  0.00    +0.000 A 
ATOM     26  C   UNL     1       6.189   4.234  12.275  0.00  0.00    +0.000 A 
ATOM     27  C   UNL     1       7.275   4.998  12.671  0.00  0.00    +0.000 A 
ATOM     28  F   UNL     1       8.033   5.600  11.744  0.00  0.00    +0.000 F 
ATOM     29  C   UNL     1       7.621   5.119  14.020  0.00  0.00    +0.000 A 
ENDBRANCH  22  23
ENDBRANCH   9  22
TORSDOF 4
ENDMDL
MODEL 4
REMARK VINA RESULT:      -7.1      4.526     10.668
REMARK  Name = 
REMARK  4 active torsions:
REMARK  status: ('A' for Active; 'I' for Inactive)
REMARK    1  A    between atoms: C_5  and  C_7
REMARK    2  A    between atoms: N_12  and  C_13
REMARK    3  A    between atoms: N_21  and  C_22
REMARK    4  A    between atoms: C_22  and  C_23
REMARK                            x       y       z     vdW  Elec       q    Type
REMARK                         _______ _______ _______ _____ _____    ______ ____
ROOT
ATOM      1  O   UNL     1       2.399   9.425  17.560  0.00  0.00    +0.000 OA
ATOM      2  C   UNL     1       2.150   8.475  18.288  0.00  0.00    +0.000 C 
ATOM      3  C   UNL     1       2.349   7.035  17.798  0.00  0.00    +0.000 C 
ATOM      4  N   UNL     1       2.757   6.097  18.854  0.00  0.00    +0.000 N 
ATOM      5  C   UNL     1       3.851   5.228  18.802  0.00  0.00    +0.000 C 
ATOM      6  O   UNL     1       4.108   4.427  19.697  0.00  0.00    +0.000 OA
ATOM      7  C   UNL     1       1.891   6.155  20.033  0.00  0.00    +0.000 C 
ATOM      8  C   UNL     1       1.820   7.598  20.551  0.00  0.00    +0.000 C 
ATOM      9  N   UNL     1       1.477   8.575  19.514  0.00  0.00    +0.000 N 
ENDROOT
BRANCH   5  10
ATOM     10  C   UNL     1       4.805   5.422  17.623  0.00  0.00    +0.000 C 
ATOM     11  C   UNL     1       6.173   5.795  18.179  0.00  0.00    +0.000 C 
ATOM     12  C   UNL     1       6.951   6.435  17.055  0.00  0.00    +0.000 C 
ATOM     13  C   UNL     1       7.034   5.561  15.820  0.00  0.00    +0.000 C 
ATOM     14  O   UNL     1       7.931   5.772  14.998  0.00  0.00    +0.000 OA
ATOM     15  N   UNL     1       6.018   4.616  15.611  0.00  0.00    +0.000 N 
ATOM     16  C   UNL     1       5.025   4.262  16.666  0.00  0.00    +0.000 C 
BRANCH  15  17
ATOM     17  C   UNL     1       6.103   3.789  14.397  0.00  0.00    +0.000 C 
ATOM     18  C   UNL     1       4.832   3.791  13.555  0.00  0.00    +0.000 C 
ATOM     19  C   UNL     1       5.284   3.350  12.172  0.00  0.00    +0.000 C 
ATOM     20  C   UNL     1       6.750   3.751  12.050  0.00  0.00    +0.000 C 
ATOM     21  C   UNL     1       7.210   4.215  13.430  0.00  0.00    +0.000 C 
ENDBRANCH  15  17
ENDBRANCH   5  10
BRANCH   9  22
ATOM     22  C   UNL     1       1.028   9.893  19.953  0.00  0.00    +0.000 C 
BRANCH  22  23
ATOM     23  C   UNL     1      -0.056  10.504  19.083  0.00  0.00    +0.000 A 
ATOM     24  C   UNL     1      -0.126  11.888  18.857  0.00  0.00    +0.000 A 
ATOM     25  C   UNL     1      -1.238  12.462  18.223  0.00  0.00    +0.000 A 
ATOM     26  C   UNL     1      -2.291  11.656  17.792  0.00  0.00    +0.000 A 
ATOM     27  C   UNL     1      -2.207  10.284  17.969  0.00  0.00    +0.000 A 
ATOM     28  F   UNL     1      -3.215   9.501  17.559  0.00  0.00    +0.000 F 
ATOM     29  C   UNL     1      -1.107   9.704  18.606  0.00  0.00    +0.000 A 
ENDBRANCH  22  23
ENDBRANCH   9  22
TORSDOF 4
ENDMDL
MODEL 5
REMARK VINA RESULT:      -7.1      1.977      2.334
REMARK  Name = 
REMARK  4 active torsions:
REMARK  status: ('A' for Active; 'I' for Inactive)
REMARK    1  A    between atoms: C_5  and  C_7
REMARK    2  A    between atoms: N_12  and  C_13
REMARK    3  A    between atoms: N_21  and  C_22
REMARK    4  A    between atoms: C_22  and  C_23
REMARK                            x       y       z     vdW  Elec       q    Type
REMARK                         _______ _______ _______ _____ _____    ______ ____
ROOT
ATOM      1  O   UNL     1       1.081   8.138  21.662  0.00  0.00    +0.000 OA
ATOM      2  C   UNL     1       1.254   8.431  20.488  0.00  0.00    +0.000 C 
ATOM      3  C   UNL     1       0.576   9.665  19.878  0.00  0.00    +0.000 C 
ATOM      4  N   UNL     1       1.372  10.326  18.833  0.00  0.00    +0.000 N 
ATOM      5  C   UNL     1       1.690  11.686  18.781  0.00  0.00    +0.000 C 
ATOM      6  O   UNL     1       2.314  12.189  17.850  0.00  0.00    +0.000 OA
ATOM      7  C   UNL     1       1.842   9.399  17.802  0.00  0.00    +0.000 C 
ATOM      8  C   UNL     1       2.613   8.244  18.458  0.00  0.00    +0.000 C 
ATOM      9  N   UNL     1       1.879   7.597  19.549  0.00  0.00    +0.000 N 
ENDROOT
BRANCH   5  10
ATOM     10  C   UNL     1       1.339  12.505  20.024  0.00  0.00    +0.000 C 
ATOM     11  C   UNL     1       2.063  13.841  19.930  0.00  0.00    +0.000 C 
ATOM     12  C   UNL     1       2.106  14.424  21.322  0.00  0.00    +0.000 C 
ATOM     13  C   UNL     1       0.735  14.538  21.958  0.00  0.00    +0.000 C 
ATOM     14  O   UNL     1       0.577  15.326  22.896  0.00  0.00    +0.000 OA
ATOM     15  N   UNL     1      -0.269  13.661  21.522  0.00  0.00    +0.000 N 
ATOM     16  C   UNL     1      -0.122  12.818  20.300  0.00  0.00    +0.000 C 
BRANCH  15  17
ATOM     17  C   UNL     1      -1.589  13.772  22.165  0.00  0.00    +0.000 C 
ATOM     18  C   UNL     1      -2.762  13.595  21.207  0.00  0.00    +0.000 C 
ATOM     19  C   UNL     1      -3.936  13.229  22.100  0.00  0.00    +0.000 C 
ATOM     20  C   UNL     1      -3.346  12.563  23.338  0.00  0.00    +0.000 C 
ATOM     21  C   UNL     1      -1.831  12.745  23.271  0.00  0.00    +0.000 C 
ENDBRANCH  15  17
ENDBRANCH   5  10
BRANCH   9  22
ATOM     22  C   UNL     1       2.344   6.286  19.988  0.00  0.00    +0.000 C 
BRANCH  22  23
ATOM     23  C   UNL     1       2.954   5.440  18.885  0.00  0.00    +0.000 A 
ATOM     24  C   UNL     1       2.159   4.657  18.032  0.00  0.00    +0.000 A 
ATOM     25  C   UNL     1       2.737   3.729  17.153  0.00  0.00    +0.000 A 
ATOM     26  C   UNL     1       4.123   3.581  17.105  0.00  0.00    +0.000 A 
ATOM     27  C   UNL     1       4.916   4.384  17.910  0.00  0.00    +0.000 A 
ATOM     28  F   UNL     1       6.249   4.247  17.871  0.00  0.00    +0.000 F 
ATOM     29  C   UNL     1       4.349   5.305  18.794  0.00  0.00    +0.000 A 
ENDBRANCH  22  23
ENDBRANCH   9  22
TORSDOF 4
ENDMDL
MODEL 6
REMARK VINA RESULT:      -7.0      3.529      5.118
REMARK  Name = 
REMARK  4 active torsions:
REMARK  status: ('A' for Active; 'I' for Inactive)
REMARK    1  A    between atoms: C_5  and  C_7
REMARK    2  A    between atoms: N_12  and  C_13
REMARK    3  A    between atoms: N_21  and  C_22
REMARK    4  A    between atoms: C_22  and  C_23
REMARK                            x       y       z     vdW  Elec       q    Type
REMARK                         _______ _______ _______ _____ _____    ______ ____
ROOT
ATOM      1  O   UNL     1       2.556   8.226  17.326  0.00  0.00    +0.000 OA
ATOM      2  C   UNL     1       2.370   7.769  18.446  0.00  0.00    +0.000 C 
ATOM      3  C   UNL     1       2.102   8.696  19.639  0.00  0.00    +0.000 C 
ATOM      4  N   UNL     1       1.200   8.122  20.647  0.00  0.00    +0.000 N 
ATOM      5  C   UNL     1       0.056   8.734  21.168  0.00  0.00    +0.000 C 
ATOM      6  O   UNL     1      -0.628   8.225  22.052  0.00  0.00    +0.000 OA
ATOM      7  C   UNL     1       1.606   6.783  21.080  0.00  0.00    +0.000 C 
ATOM      8  C   UNL     1       1.747   5.867  19.856  0.00  0.00    +0.000 C 
ATOM      9  N   UNL     1       2.590   6.430  18.798  0.00  0.00    +0.000 N 
ENDROOT
BRANCH   5  10
ATOM     10  C   UNL     1      -0.387  10.025  20.477  0.00  0.00    +0.000 C 
ATOM     11  C   UNL     1       0.811  10.961  20.412  0.00  0.00    +0.000 C 
ATOM     12  C   UNL     1       0.276  12.355  20.184  0.00  0.00    +0.000 C 
ATOM     13  C   UNL     1      -0.617  12.452  18.963  0.00  0.00    +0.000 C 
ATOM     14  O   UNL     1      -0.801  13.558  18.446  0.00  0.00    +0.000 OA
ATOM     15  N   UNL     1      -1.283  11.293  18.539  0.00  0.00    +0.000 N 
ATOM     16  C   UNL     1      -0.951   9.939  19.068  0.00  0.00    +0.000 C 
BRANCH  15  17
ATOM     17  C   UNL     1      -2.162  11.411  17.364  0.00  0.00    +0.000 C 
ATOM     18  C   UNL     1      -2.157  10.183  16.460  0.00  0.00    +0.000 C 
ATOM     19  C   UNL     1      -3.447  10.286  15.662  0.00  0.00    +0.000 C 
ATOM     20  C   UNL     1      -4.422  11.082  16.521  0.00  0.00    +0.000 C 
ATOM     21  C   UNL     1      -3.635  11.633  17.709  0.00  0.00    +0.000 C 
ENDBRANCH  15  17
ENDBRANCH   5  10
BRANCH   9  22
ATOM     22  C   UNL     1       3.084   5.515  17.774  0.00  0.00    +0.000 C 
BRANCH  22  23
ATOM     23  C   UNL     1       4.566   5.203  17.880  0.00  0.00    +0.000 A 
ATOM     24  C   UNL     1       5.284   5.433  19.066  0.00  0.00    +0.000 A 
ATOM     25  C   UNL     1       6.683   5.333  19.095  0.00  0.00    +0.000 A 
ATOM     26  C   UNL     1       7.384   4.986  17.941  0.00  0.00    +0.000 A 
ATOM     27  C   UNL     1       6.678   4.712  16.779  0.00  0.00    +0.000 A 
ATOM     28  F   UNL     1       7.344   4.380  15.664  0.00  0.00    +0.000 F 
ATOM     29  C   UNL     1       5.285   4.817  16.738  0.00  0.00    +0.000 A 
ENDBRANCH  22  23
ENDBRANCH   9  22
TORSDOF 4
ENDMDL
MODEL 7
REMARK VINA RESULT:      -7.0      4.769      7.129
REMARK  Name = 
REMARK  4 active torsions:
REMARK  status: ('A' for Active; 'I' for Inactive)
REMARK    1  A    between atoms: C_5  and  C_7
REMARK    2  A    between atoms: N_12  and  C_13
REMARK    3  A    between atoms: N_21  and  C_22
REMARK    4  A    between atoms: C_22  and  C_23
REMARK                            x       y       z     vdW  Elec       q    Type
REMARK                         _______ _______ _______ _____ _____    ______ ____
ROOT
ATOM      1  O   UNL     1       6.618   7.314  16.562  0.00  0.00    +0.000 OA
ATOM      2  C   UNL     1       6.104   6.303  17.021  0.00  0.00    +0.000 C 
ATOM      3  C   UNL     1       5.340   6.345  18.352  0.00  0.00    +0.000 C 
ATOM      4  N   UNL     1       4.210   5.408  18.419  0.00  0.00    +0.000 N 
ATOM      5  C   UNL     1       2.898   5.729  18.779  0.00  0.00    +0.000 C 
ATOM      6  O   UNL     1       2.008   4.888  18.870  0.00  0.00    +0.000 OA
ATOM      7  C   UNL     1       4.580   4.041  18.047  0.00  0.00    +0.000 C 
ATOM      8  C   UNL     1       5.235   4.042  16.659  0.00  0.00    +0.000 C 
ATOM      9  N   UNL     1       6.328   5.009  16.529  0.00  0.00    +0.000 N 
ENDROOT
BRANCH   5  10
ATOM     10  C   UNL     1       2.588   7.220  18.923  0.00  0.00    +0.000 C 
ATOM     11  C   UNL     1       1.902   7.684  17.645  0.00  0.00    +0.000 C 
ATOM     12  C   UNL     1       2.032   9.187  17.590  0.00  0.00    +0.000 C 
ATOM     13  C   UNL     1       1.498   9.873  18.831  0.00  0.00    +0.000 C 
ATOM     14  O   UNL     1       1.188  11.067  18.767  0.00  0.00    +0.000 OA
ATOM     15  N   UNL     1       1.479   9.146  20.031  0.00  0.00    +0.000 N 
ATOM     16  C   UNL     1       1.712   7.673  20.078  0.00  0.00    +0.000 C 
BRANCH  15  17
ATOM     17  C   UNL     1       0.976   9.834  21.230  0.00  0.00    +0.000 C 
ATOM     18  C   UNL     1      -0.522  10.117  21.200  0.00  0.00    +0.000 C 
ATOM     19  C   UNL     1      -0.905  10.325  22.656  0.00  0.00    +0.000 C 
ATOM     20  C   UNL     1       0.104   9.537  23.484  0.00  0.00    +0.000 C 
ATOM     21  C   UNL     1       1.199   9.061  22.531  0.00  0.00    +0.000 C 
ENDBRANCH  15  17
ENDBRANCH   5  10
BRANCH   9  22
ATOM     22  C   UNL     1       7.243   4.844  15.405  0.00  0.00    +0.000 C 
BRANCH  22  23
ATOM     23  C   UNL     1       6.576   4.381  14.122  0.00  0.00    +0.000 A 
ATOM     24  C   UNL     1       5.178   4.362  13.984  0.00  0.00    +0.000 A 
ATOM     25  C   UNL     1       4.569   3.748  12.879  0.00  0.00    +0.000 A 
ATOM     26  C   UNL     1       5.351   3.157  11.888  0.00  0.00    +0.000 A 
ATOM     27  C   UNL     1       6.732   3.214  11.994  0.00  0.00    +0.000 A 
ATOM     28  F   UNL     1       7.492   2.647  11.047  0.00  0.00    +0.000 F 
ATOM     29  C   UNL     1       7.348   3.816  13.094  0.00  0.00    +0.000 A 
ENDBRANCH  22  23
ENDBRANCH   9  22
TORSDOF 4
ENDMDL
MODEL 8
REMARK VINA RESULT:      -7.0      3.385      4.947
REMARK  Name = 
REMARK  4 active torsions:
REMARK  status: ('A' for Active; 'I' for Inactive)
REMARK    1  A    between atoms: C_5  and  C_7
REMARK    2  A    between atoms: N_12  and  C_13
REMARK    3  A    between atoms: N_21  and  C_22
REMARK    4  A    between atoms: C_22  and  C_23
REMARK                            x       y       z     vdW  Elec       q    Type
REMARK                         _______ _______ _______ _____ _____    ______ ____
ROOT
ATOM      1  O   UNL     1       2.475   8.120  17.380  0.00  0.00    +0.000 OA
ATOM      2  C   UNL     1       2.302   7.685  18.510  0.00  0.00    +0.000 C 
ATOM      3  C   UNL     1       2.070   8.636  19.691  0.00  0.00    +0.000 C 
ATOM      4  N   UNL     1       1.178   8.094  20.725  0.00  0.00    +0.000 N 
ATOM      5  C   UNL     1       0.052   8.732  21.255  0.00  0.00    +0.000 C 
ATOM      6  O   UNL     1      -0.624   8.249  22.159  0.00  0.00    +0.000 OA
ATOM      7  C   UNL     1       1.570   6.757  21.174  0.00  0.00    +0.000 C 
ATOM      8  C   UNL     1       1.676   5.817  19.964  0.00  0.00    +0.000 C 
ATOM      9  N   UNL     1       2.508   6.349  18.881  0.00  0.00    +0.000 N 
ENDROOT
BRANCH   5  10
ATOM     10  C   UNL     1      -0.384  10.017  20.549  0.00  0.00    +0.000 C 
ATOM     11  C   UNL     1       0.812  10.958  20.500  0.00  0.00    +0.000 C 
ATOM     12  C   UNL     1       0.276  12.348  20.255  0.00  0.00    +0.000 C 
ATOM     13  C   UNL     1      -0.596  12.436  19.019  0.00  0.00    +0.000 C 
ATOM     14  O   UNL     1      -0.775  13.539  18.493  0.00  0.00    +0.000 OA
ATOM     15  N   UNL     1      -1.252  11.272  18.590  0.00  0.00    +0.000 N 
ATOM     16  C   UNL     1      -0.924   9.922  19.132  0.00  0.00    +0.000 C 
BRANCH  15  17
ATOM     17  C   UNL     1      -2.111  11.381  17.400  0.00  0.00    +0.000 C 
ATOM     18  C   UNL     1      -2.097  10.143  16.510  0.00  0.00    +0.000 C 
ATOM     19  C   UNL     1      -3.374  10.242  15.691  0.00  0.00    +0.000 C 
ATOM     20  C   UNL     1      -4.359  11.052  16.525  0.00  0.00    +0.000 C 
ATOM     21  C   UNL     1      -3.589  11.613  17.719  0.00  0.00    +0.000 C 
ENDBRANCH  15  17
ENDBRANCH   5  10
BRANCH   9  22
ATOM     22  C   UNL     1       2.970   5.410  17.865  0.00  0.00    +0.000 C 
BRANCH  22  23
ATOM     23  C   UNL     1       4.481   5.308  17.752  0.00  0.00    +0.000 A 
ATOM     24  C   UNL     1       5.100   4.795  16.600  0.00  0.00    +0.000 A 
ATOM     25  C   UNL     1       6.475   4.518  16.581  0.00  0.00    +0.000 A 
ATOM     26  C   UNL     1       7.254   4.764  17.711  0.00  0.00    +0.000 A 
ATOM     27  C   UNL     1       6.659   5.314  18.835  0.00  0.00    +0.000 A 
ATOM     28  F   UNL     1       7.399   5.552  19.926  0.00  0.00    +0.000 F 
ATOM     29  C   UNL     1       5.288   5.586  18.866  0.00  0.00    +0.000 A 
ENDBRANCH  22  23
ENDBRANCH   9  22
TORSDOF 4
ENDMDL
MODEL 9
REMARK VINA RESULT:      -6.9      3.799      9.739
REMARK  Name = 
REMARK  4 active torsions:
REMARK  status: ('A' for Active; 'I' for Inactive)
REMARK    1  A    between atoms: C_5  and  C_7
REMARK    2  A    between atoms: N_12  and  C_13
REMARK    3  A    between atoms: N_21  and  C_22
REMARK    4  A    between atoms: C_22  and  C_23
REMARK                            x       y       z     vdW  Elec       q    Type
REMARK                         _______ _______ _______ _____ _____    ______ ____
ROOT
ATOM      1  O   UNL     1       2.586   8.939  18.015  0.00  0.00    +0.000 OA
ATOM      2  C   UNL     1       1.979   8.286  18.853  0.00  0.00    +0.000 C 
ATOM      3  C   UNL     1       1.837   6.765  18.713  0.00  0.00    +0.000 C 
ATOM      4  N   UNL     1       1.810   6.049  19.996  0.00  0.00    +0.000 N 
ATOM      5  C   UNL     1       2.613   4.959  20.346  0.00  0.00    +0.000 C 
ATOM      6  O   UNL     1       2.504   4.368  21.416  0.00  0.00    +0.000 OA
ATOM      7  C   UNL     1       0.833   6.601  20.936  0.00  0.00    +0.000 C 
ATOM      8  C   UNL     1       1.092   8.102  21.128  0.00  0.00    +0.000 C 
ATOM      9  N   UNL     1       1.190   8.844  19.869  0.00  0.00    +0.000 N 
ENDROOT
BRANCH   5  10
ATOM     10  C   UNL     1       3.745   4.622  19.373  0.00  0.00    +0.000 C 
ATOM     11  C   UNL     1       3.123   4.058  18.103  0.00  0.00    +0.000 C 
ATOM     12  C   UNL     1       4.208   3.304  17.372  0.00  0.00    +0.000 C 
ATOM     13  C   UNL     1       5.437   4.150  17.104  0.00  0.00    +0.000 C 
ATOM     14  O   UNL     1       6.214   3.805  16.208  0.00  0.00    +0.000 OA
ATOM     15  N   UNL     1       5.694   5.230  17.961  0.00  0.00    +0.000 N 
ATOM     16  C   UNL     1       4.689   5.731  18.942  0.00  0.00    +0.000 C 
BRANCH  15  17
ATOM     17  C   UNL     1       6.903   6.028  17.698  0.00  0.00    +0.000 C 
ATOM     18  C   UNL     1       6.618   7.426  17.158  0.00  0.00    +0.000 C 
ATOM     19  C   UNL     1       7.883   8.217  17.451  0.00  0.00    +0.000 C 
ATOM     20  C   UNL     1       8.534   7.557  18.661  0.00  0.00    +0.000 C 
ATOM     21  C   UNL     1       7.777   6.258  18.931  0.00  0.00    +0.000 C 
ENDBRANCH  15  17
ENDBRANCH   5  10
BRANCH   9  22
ATOM     22  C   UNL     1       1.067  10.297  19.932  0.00  0.00    +0.000 C 
BRANCH  22  23
ATOM     23  C   UNL     1      -0.238  10.837  19.376  0.00  0.00    +0.000 A 
ATOM     24  C   UNL     1      -0.965  11.837  20.044  0.00  0.00    +0.000 A 
ATOM     25  C   UNL     1      -2.261  12.185  19.633  0.00  0.00    +0.000 A 
ATOM     26  C   UNL     1      -2.842  11.548  18.537  0.00  0.00    +0.000 A 
ATOM     27  C   UNL     1      -2.112  10.595  17.845  0.00  0.00    +0.000 A 
ATOM     28  F   UNL     1      -2.663   9.976  16.792  0.00  0.00    +0.000 F 
ATOM     29  C   UNL     1      -0.824  10.235  18.251  0.00  0.00    +0.000 A 
ENDBRANCH  22  23
ENDBRANCH   9  22
TORSDOF 4
ENDMDL
