MODEL 1
REMARK VINA RESULT:      -6.9      0.000      0.000
REMARK  Name = 
REMARK  5 active torsions:
REMARK  status: ('A' for Active; 'I' for Inactive)
REMARK    1  A    between atoms: C_1  and  O_2
REMARK    2  A    between atoms: O_2  and  C_3
REMARK    3  A    between atoms: C_3  and  C_5
REMARK    4  A    between atoms: N_13  and  C_14
REMARK    5  A    between atoms: C_15  and  C_16
REMARK                            x       y       z     vdW  Elec       q    Type
REMARK                         _______ _______ _______ _____ _____    ______ ____
ROOT
ATOM      1  C   UNL     1      -3.443  12.566  23.308  0.00  0.00    +0.000 A 
ATOM      2  C   UNL     1      -4.211  12.535  24.489  0.00  0.00    +0.000 A 
ATOM      3  C   UNL     1      -5.604  12.630  24.439  0.00  0.00    +0.000 A 
ATOM      4  C   UNL     1      -6.253  12.759  23.215  0.00  0.00    +0.000 A 
ATOM      5  C   UNL     1      -5.490  12.780  22.043  0.00  0.00    +0.000 A 
ATOM      6  C   UNL     1      -4.082  12.687  22.062  0.00  0.00    +0.000 A 
ATOM      7  N   UNL     1      -3.337  12.616  20.865  0.00  0.00    +0.000 NA
ATOM      8  C   UNL     1      -3.900  12.629  19.689  0.00  0.00    +0.000 A 
ATOM      9  N   UNL     1      -3.167  12.430  18.541  0.00  0.00    +0.000 N 
ATOM     10  C   UNL     1      -5.322  12.800  19.629  0.00  0.00    +0.000 A 
ATOM     11  C   UNL     1      -6.228  12.850  18.593  0.00  0.00    +0.000 A 
ATOM     12  N   UNL     1      -7.513  12.939  19.075  0.00  0.00    +0.000 NA
ATOM     13  C   UNL     1      -7.388  12.931  20.387  0.00  0.00    +0.000 A 
ATOM     14  N   UNL     1      -6.079  12.851  20.773  0.00  0.00    +0.000 N 
ATOM     15  H   UNL     1      -3.238  13.169  17.850  0.00  0.00    +0.000 HD
ENDROOT
BRANCH   9  16
ATOM     16  C   UNL     1      -1.956  11.695  18.448  0.00  0.00    +0.000 A 
ATOM     17  C   UNL     1      -1.892  10.353  17.999  0.00  0.00    +0.000 A 
ATOM     18  C   UNL     1      -3.077   9.539  17.543  0.00  0.00    +0.000 C 
ATOM     19  C   UNL     1      -0.648   9.693  17.961  0.00  0.00    +0.000 A 
ATOM     20  C   UNL     1       0.532  10.347  18.304  0.00  0.00    +0.000 A 
ATOM     21  C   UNL     1       0.488  11.675  18.707  0.00  0.00    +0.000 A 
ATOM     22  C   UNL     1      -0.741  12.337  18.782  0.00  0.00    +0.000 A 
ATOM     23 CL   UNL     1      -0.731  13.993  19.296  0.00  0.00    +0.000 Cl
ENDBRANCH   9  16
BRANCH   1  24
ATOM     24  C   UNL     1      -1.956  12.479  23.404  0.00  0.00    +0.000 C 
ATOM     25  O   UNL     1      -1.190  13.420  23.513  0.00  0.00    +0.000 OA
BRANCH  24  27
ATOM     26  C   UNL     1      -0.649  10.851  22.348  0.00  0.00    +0.000 C 
ATOM     27  O   UNL     1      -1.585  11.168  23.382  0.00  0.00    +0.000 OA
ENDBRANCH  24  27
ENDBRANCH   1  24
TORSDOF 3
ENDMDL
MODEL 2
REMARK VINA RESULT:      -6.9      1.148      1.781
REMARK  Name = 
REMARK  5 active torsions:
REMARK  status: ('A' for Active; 'I' for Inactive)
REMARK    1  A    between atoms: C_1  and  O_2
REMARK    2  A    between atoms: O_2  and  C_3
REMARK    3  A    between atoms: C_3  and  C_5
REMARK    4  A    between atoms: N_13  and  C_14
REMARK    5  A    between atoms: C_15  and  C_16
REMARK                            x       y       z     vdW  Elec       q    Type
REMARK                         _______ _______ _______ _____ _____    ______ ____
ROOT
ATOM      1  C   UNL     1      -3.705  12.687  23.193  0.00  0.00    +0.000 A 
ATOM      2  C   UNL     1      -4.539  12.653  24.327  0.00  0.00    +0.000 A 
ATOM      3  C   UNL     1      -5.930  12.646  24.193  0.00  0.00    +0.000 A 
ATOM      4  C   UNL     1      -6.510  12.675  22.928  0.00  0.00    +0.000 A 
ATOM      5  C   UNL     1      -5.681  12.700  21.803  0.00  0.00    +0.000 A 
ATOM      6  C   UNL     1      -4.273  12.707  21.907  0.00  0.00    +0.000 A 
ATOM      7  N   UNL     1      -3.454  12.637  20.760  0.00  0.00    +0.000 NA
ATOM      8  C   UNL     1      -3.944  12.559  19.554  0.00  0.00    +0.000 A 
ATOM      9  N   UNL     1      -3.131  12.361  18.461  0.00  0.00    +0.000 N 
ATOM     10  C   UNL     1      -5.369  12.625  19.404  0.00  0.00    +0.000 A 
ATOM     11  C   UNL     1      -6.211  12.565  18.317  0.00  0.00    +0.000 A 
ATOM     12  N   UNL     1      -7.526  12.584  18.719  0.00  0.00    +0.000 NA
ATOM     13  C   UNL     1      -7.481  12.642  20.034  0.00  0.00    +0.000 A 
ATOM     14  N   UNL     1      -6.195  12.672  20.499  0.00  0.00    +0.000 N 
ATOM     15  H   UNL     1      -3.210  13.063  17.732  0.00  0.00    +0.000 HD
ENDROOT
BRANCH   9  16
ATOM     16  C   UNL     1      -1.870  11.710  18.473  0.00  0.00    +0.000 A 
ATOM     17  C   UNL     1      -0.666  12.351  18.854  0.00  0.00    +0.000 A 
ATOM     18  C   UNL     1      -0.560  13.783  19.316  0.00  0.00    +0.000 C 
ATOM     19  C   UNL     1       0.546  11.633  18.813  0.00  0.00    +0.000 A 
ATOM     20  C   UNL     1       0.581  10.288  18.457  0.00  0.00    +0.000 A 
ATOM     21  C   UNL     1      -0.598   9.636  18.120  0.00  0.00    +0.000 A 
ATOM     22  C   UNL     1      -1.805  10.341  18.123  0.00  0.00    +0.000 A 
ATOM     23 CL   UNL     1      -3.243   9.473  17.690  0.00  0.00    +0.000 Cl
ENDBRANCH   9  16
BRANCH   1  24
ATOM     24  C   UNL     1      -2.224  12.710  23.378  0.00  0.00    +0.000 C 
ATOM     25  O   UNL     1      -1.543  13.701  23.575  0.00  0.00    +0.000 OA
BRANCH  24  27
ATOM     26  C   UNL     1      -0.637  11.270  22.439  0.00  0.00    +0.000 C 
ATOM     27  O   UNL     1      -1.749  11.434  23.323  0.00  0.00    +0.000 OA
ENDBRANCH  24  27
ENDBRANCH   1  24
TORSDOF 3
ENDMDL
MODEL 3
REMARK VINA RESULT:      -6.8      2.904      6.677
REMARK  Name = 
REMARK  5 active torsions:
REMARK  status: ('A' for Active; 'I' for Inactive)
REMARK    1  A    between atoms: C_1  and  O_2
REMARK    2  A    between atoms: O_2  and  C_3
REMARK    3  A    between atoms: C_3  and  C_5
REMARK    4  A    between atoms: N_13  and  C_14
REMARK    5  A    between atoms: C_15  and  C_16
REMARK                            x       y       z     vdW  Elec       q    Type
REMARK                         _______ _______ _______ _____ _____    ______ ____
ROOT
ATOM      1  C   UNL     1      -3.938  11.215  18.001  0.00  0.00    +0.000 A 
ATOM      2  C   UNL     1      -3.345  10.281  17.128  0.00  0.00    +0.000 A 
ATOM      3  C   UNL     1      -1.997   9.939  17.255  0.00  0.00    +0.000 A 
ATOM      4  C   UNL     1      -1.218  10.521  18.251  0.00  0.00    +0.000 A 
ATOM      5  C   UNL     1      -1.810  11.441  19.122  0.00  0.00    +0.000 A 
ATOM      6  C   UNL     1      -3.170  11.806  19.018  0.00  0.00    +0.000 A 
ATOM      7  N   UNL     1      -3.771  12.664  19.964  0.00  0.00    +0.000 NA
ATOM      8  C   UNL     1      -3.115  13.158  20.977  0.00  0.00    +0.000 A 
ATOM      9  N   UNL     1      -3.752  13.885  21.957  0.00  0.00    +0.000 N 
ATOM     10  C   UNL     1      -1.714  12.870  21.073  0.00  0.00    +0.000 A 
ATOM     11  C   UNL     1      -0.738  13.204  21.985  0.00  0.00    +0.000 A 
ATOM     12  N   UNL     1       0.453  12.592  21.668  0.00  0.00    +0.000 NA
ATOM     13  C   UNL     1       0.198  11.886  20.586  0.00  0.00    +0.000 A 
ATOM     14  N   UNL     1      -1.102  12.023  20.183  0.00  0.00    +0.000 N 
ATOM     15  H   UNL     1      -3.379  14.817  22.114  0.00  0.00    +0.000 HD
ENDROOT
BRANCH   9  16
ATOM     16  C   UNL     1      -5.116  13.762  22.327  0.00  0.00    +0.000 A 
ATOM     17  C   UNL     1      -6.180  14.324  21.579  0.00  0.00    +0.000 A 
ATOM     18  C   UNL     1      -6.017  15.097  20.295  0.00  0.00    +0.000 C 
ATOM     19  C   UNL     1      -7.505  14.171  22.035  0.00  0.00    +0.000 A 
ATOM     20  C   UNL     1      -7.799  13.434  23.178  0.00  0.00    +0.000 A 
ATOM     21  C   UNL     1      -6.769  12.844  23.898  0.00  0.00    +0.000 A 
ATOM     22  C   UNL     1      -5.446  13.012  23.480  0.00  0.00    +0.000 A 
ATOM     23 CL   UNL     1      -4.203  12.254  24.423  0.00  0.00    +0.000 Cl
ENDBRANCH   9  16
BRANCH   1  24
ATOM     24  C   UNL     1      -5.377  11.567  17.822  0.00  0.00    +0.000 C 
ATOM     25  O   UNL     1      -5.809  12.509  17.181  0.00  0.00    +0.000 OA
BRANCH  24  27
ATOM     26  C   UNL     1      -7.074  11.213  19.394  0.00  0.00    +0.000 C 
ATOM     27  O   UNL     1      -6.145  10.644  18.468  0.00  0.00    +0.000 OA
ENDBRANCH  24  27
ENDBRANCH   1  24
TORSDOF 3
ENDMDL
MODEL 4
REMARK VINA RESULT:      -6.7      2.754      6.644
REMARK  Name = 
REMARK  5 active torsions:
REMARK  status: ('A' for Active; 'I' for Inactive)
REMARK    1  A    between atoms: C_1  and  O_2
REMARK    2  A    between atoms: O_2  and  C_3
REMARK    3  A    between atoms: C_3  and  C_5
REMARK    4  A    between atoms: N_13  and  C_14
REMARK    5  A    between atoms: C_15  and  C_16
REMARK                            x       y       z     vdW  Elec       q    Type
REMARK                         _______ _______ _______ _____ _____    ______ ____
ROOT
ATOM      1  C   UNL     1      -3.955  11.221  18.100  0.00  0.00    +0.000 A 
ATOM      2  C   UNL     1      -3.408  10.275  17.212  0.00  0.00    +0.000 A 
ATOM      3  C   UNL     1      -2.057   9.924  17.283  0.00  0.00    +0.000 A 
ATOM      4  C   UNL     1      -1.232  10.510  18.237  0.00  0.00    +0.000 A 
ATOM      5  C   UNL     1      -1.778  11.442  19.125  0.00  0.00    +0.000 A 
ATOM      6  C   UNL     1      -3.138  11.816  19.077  0.00  0.00    +0.000 A 
ATOM      7  N   UNL     1      -3.692  12.687  20.040  0.00  0.00    +0.000 NA
ATOM      8  C   UNL     1      -2.988  13.186  21.018  0.00  0.00    +0.000 A 
ATOM      9  N   UNL     1      -3.575  13.928  22.018  0.00  0.00    +0.000 N 
ATOM     10  C   UNL     1      -1.586  12.889  21.055  0.00  0.00    +0.000 A 
ATOM     11  C   UNL     1      -0.568  13.225  21.919  0.00  0.00    +0.000 A 
ATOM     12  N   UNL     1       0.603  12.601  21.556  0.00  0.00    +0.000 NA
ATOM     13  C   UNL     1       0.296  11.887  20.493  0.00  0.00    +0.000 A 
ATOM     14  N   UNL     1      -1.020  12.030  20.147  0.00  0.00    +0.000 N 
ATOM     15  H   UNL     1      -3.190  14.858  22.149  0.00  0.00    +0.000 HD
ENDROOT
BRANCH   9  16
ATOM     16  C   UNL     1      -4.923  13.819  22.449  0.00  0.00    +0.000 A 
ATOM     17  C   UNL     1      -5.318  13.082  23.592  0.00  0.00    +0.000 A 
ATOM     18  C   UNL     1      -4.376  12.344  24.509  0.00  0.00    +0.000 C 
ATOM     19  C   UNL     1      -6.684  13.009  23.933  0.00  0.00    +0.000 A 
ATOM     20  C   UNL     1      -7.652  13.689  23.201  0.00  0.00    +0.000 A 
ATOM     21  C   UNL     1      -7.274  14.448  22.101  0.00  0.00    +0.000 A 
ATOM     22  C   UNL     1      -5.928  14.507  21.729  0.00  0.00    +0.000 A 
ATOM     23 CL   UNL     1      -5.518  15.468  20.344  0.00  0.00    +0.000 Cl
ENDBRANCH   9  16
BRANCH   1  24
ATOM     24  C   UNL     1      -5.398  11.581  17.982  0.00  0.00    +0.000 C 
ATOM     25  O   UNL     1      -5.852  12.522  17.354  0.00  0.00    +0.000 OA
BRANCH  24  27
ATOM     26  C   UNL     1      -6.997  11.247  19.657  0.00  0.00    +0.000 C 
ATOM     27  O   UNL     1      -6.143  10.669  18.668  0.00  0.00    +0.000 OA
ENDBRANCH  24  27
ENDBRANCH   1  24
TORSDOF 3
ENDMDL
MODEL 5
REMARK VINA RESULT:      -6.5      1.352      2.143
REMARK  Name = 
REMARK  5 active torsions:
REMARK  status: ('A' for Active; 'I' for Inactive)
REMARK    1  A    between atoms: C_1  and  O_2
REMARK    2  A    between atoms: O_2  and  C_3
REMARK    3  A    between atoms: C_3  and  C_5
REMARK    4  A    between atoms: N_13  and  C_14
REMARK    5  A    between atoms: C_15  and  C_16
REMARK                            x       y       z     vdW  Elec       q    Type
REMARK                         _______ _______ _______ _____ _____    ______ ____
ROOT
ATOM      1  C   UNL     1      -3.645  12.907  23.155  0.00  0.00    +0.000 A 
ATOM      2  C   UNL     1      -4.494  12.851  24.278  0.00  0.00    +0.000 A 
ATOM      3  C   UNL     1      -5.874  12.693  24.125  0.00  0.00    +0.000 A 
ATOM      4  C   UNL     1      -6.429  12.592  22.853  0.00  0.00    +0.000 A 
ATOM      5  C   UNL     1      -5.584  12.638  21.740  0.00  0.00    +0.000 A 
ATOM      6  C   UNL     1      -4.187  12.796  21.863  0.00  0.00    +0.000 A 
ATOM      7  N   UNL     1      -3.343  12.747  20.733  0.00  0.00    +0.000 NA
ATOM      8  C   UNL     1      -3.799  12.551  19.527  0.00  0.00    +0.000 A 
ATOM      9  N   UNL     1      -2.949  12.378  18.459  0.00  0.00    +0.000 N 
ATOM     10  C   UNL     1      -5.220  12.462  19.354  0.00  0.00    +0.000 A 
ATOM     11  C   UNL     1      -6.030  12.255  18.261  0.00  0.00    +0.000 A 
ATOM     12  N   UNL     1      -7.348  12.161  18.643  0.00  0.00    +0.000 NA
ATOM     13  C   UNL     1      -7.334  12.297  19.953  0.00  0.00    +0.000 A 
ATOM     14  N   UNL     1      -6.068  12.485  20.433  0.00  0.00    +0.000 N 
ATOM     15  H   UNL     1      -3.084  13.026  17.689  0.00  0.00    +0.000 HD
ENDROOT
BRANCH   9  16
ATOM     16  C   UNL     1      -1.628  11.862  18.525  0.00  0.00    +0.000 A 
ATOM     17  C   UNL     1      -0.502  12.646  18.878  0.00  0.00    +0.000 A 
ATOM     18  C   UNL     1      -0.551  14.106  19.249  0.00  0.00    +0.000 C 
ATOM     19  C   UNL     1       0.777  12.054  18.895  0.00  0.00    +0.000 A 
ATOM     20  C   UNL     1       0.955  10.701  18.625  0.00  0.00    +0.000 A 
ATOM     21  C   UNL     1      -0.146   9.912  18.318  0.00  0.00    +0.000 A 
ATOM     22  C   UNL     1      -1.419  10.488  18.264  0.00  0.00    +0.000 A 
ATOM     23 CL   UNL     1      -2.753   9.451  17.871  0.00  0.00    +0.000 Cl
ENDBRANCH   9  16
BRANCH   1  24
ATOM     24  C   UNL     1      -2.178  13.092  23.359  0.00  0.00    +0.000 C 
ATOM     25  O   UNL     1      -1.359  12.203  23.509  0.00  0.00    +0.000 OA
BRANCH  24  27
ATOM     26  C   UNL     1      -1.277  14.913  24.518  0.00  0.00    +0.000 C 
ATOM     27  O   UNL     1      -1.889  14.423  23.323  0.00  0.00    +0.000 OA
ENDBRANCH  24  27
ENDBRANCH   1  24
TORSDOF 3
ENDMDL
MODEL 6
REMARK VINA RESULT:      -6.4      2.857      6.730
REMARK  Name = 
REMARK  5 active torsions:
REMARK  status: ('A' for Active; 'I' for Inactive)
REMARK    1  A    between atoms: C_1  and  O_2
REMARK    2  A    between atoms: O_2  and  C_3
REMARK    3  A    between atoms: C_3  and  C_5
REMARK    4  A    between atoms: N_13  and  C_14
REMARK    5  A    between atoms: C_15  and  C_16
REMARK                            x       y       z     vdW  Elec       q    Type
REMARK                         _______ _______ _______ _____ _____    ______ ____
ROOT
ATOM      1  C   UNL     1      -4.415  11.040  18.192  0.00  0.00    +0.000 A 
ATOM      2  C   UNL     1      -3.775  10.146  17.312  0.00  0.00    +0.000 A 
ATOM      3  C   UNL     1      -2.382  10.119  17.207  0.00  0.00    +0.000 A 
ATOM      4  C   UNL     1      -1.606  10.983  17.975  0.00  0.00    +0.000 A 
ATOM      5  C   UNL     1      -2.243  11.864  18.855  0.00  0.00    +0.000 A 
ATOM      6  C   UNL     1      -3.647  11.913  18.982  0.00  0.00    +0.000 A 
ATOM      7  N   UNL     1      -4.266  12.742  19.942  0.00  0.00    +0.000 NA
ATOM      8  C   UNL     1      -3.584  13.496  20.759  0.00  0.00    +0.000 A 
ATOM      9  N   UNL     1      -4.200  14.197  21.771  0.00  0.00    +0.000 N 
ATOM     10  C   UNL     1      -2.159  13.529  20.608  0.00  0.00    +0.000 A 
ATOM     11  C   UNL     1      -1.150  14.184  21.278  0.00  0.00    +0.000 A 
ATOM     12  N   UNL     1       0.081  13.803  20.796  0.00  0.00    +0.000 NA
ATOM     13  C   UNL     1      -0.179  12.920  19.854  0.00  0.00    +0.000 A 
ATOM     14  N   UNL     1      -1.523  12.721  19.699  0.00  0.00    +0.000 N 
ATOM     15  H   UNL     1      -4.036  15.199  21.765  0.00  0.00    +0.000 HD
ENDROOT
BRANCH   9  16
ATOM     16  C   UNL     1      -5.416  13.837  22.408  0.00  0.00    +0.000 A 
ATOM     17  C   UNL     1      -5.478  13.032  23.572  0.00  0.00    +0.000 A 
ATOM     18  C   UNL     1      -4.280  12.475  24.299  0.00  0.00    +0.000 C 
ATOM     19  C   UNL     1      -6.733  12.705  24.123  0.00  0.00    +0.000 A 
ATOM     20  C   UNL     1      -7.916  13.198  23.581  0.00  0.00    +0.000 A 
ATOM     21  C   UNL     1      -7.867  14.022  22.464  0.00  0.00    +0.000 A 
ATOM     22  C   UNL     1      -6.634  14.331  21.883  0.00  0.00    +0.000 A 
ATOM     23 CL   UNL     1      -6.639  15.361  20.487  0.00  0.00    +0.000 Cl
ENDBRANCH   9  16
BRANCH   1  24
ATOM     24  C   UNL     1      -5.906  11.049  18.263  0.00  0.00    +0.000 C 
ATOM     25  O   UNL     1      -6.591  10.375  19.012  0.00  0.00    +0.000 OA
BRANCH  24  27
ATOM     26  C   UNL     1      -7.353  12.857  17.930  0.00  0.00    +0.000 C 
ATOM     27  O   UNL     1      -6.388  11.961  17.373  0.00  0.00    +0.000 OA
ENDBRANCH  24  27
ENDBRANCH   1  24
TORSDOF 3
ENDMDL
MODEL 7
REMARK VINA RESULT:      -6.4      2.251      5.030
REMARK  Name = 
REMARK  5 active torsions:
REMARK  status: ('A' for Active; 'I' for Inactive)
REMARK    1  A    between atoms: C_1  and  O_2
REMARK    2  A    between atoms: O_2  and  C_3
REMARK    3  A    between atoms: C_3  and  C_5
REMARK    4  A    between atoms: N_13  and  C_14
REMARK    5  A    between atoms: C_15  and  C_16
REMARK                            x       y       z     vdW  Elec       q    Type
REMARK                         _______ _______ _______ _____ _____    ______ ____
ROOT
ATOM      1  C   UNL     1      -2.092  10.916  18.082  0.00  0.00    +0.000 A 
ATOM      2  C   UNL     1      -2.017  10.383  16.781  0.00  0.00    +0.000 A 
ATOM      3  C   UNL     1      -3.111  10.454  15.914  0.00  0.00    +0.000 A 
ATOM      4  C   UNL     1      -4.296  11.054  16.331  0.00  0.00    +0.000 A 
ATOM      5  C   UNL     1      -4.366  11.590  17.620  0.00  0.00    +0.000 A 
ATOM      6  C   UNL     1      -3.278  11.534  18.517  0.00  0.00    +0.000 A 
ATOM      7  N   UNL     1      -3.336  12.163  19.779  0.00  0.00    +0.000 NA
ATOM      8  C   UNL     1      -4.384  12.827  20.181  0.00  0.00    +0.000 A 
ATOM      9  N   UNL     1      -4.372  13.540  21.359  0.00  0.00    +0.000 N 
ATOM     10  C   UNL     1      -5.536  12.842  19.329  0.00  0.00    +0.000 A 
ATOM     11  C   UNL     1      -6.777  13.431  19.422  0.00  0.00    +0.000 A 
ATOM     12  N   UNL     1      -7.506  13.214  18.276  0.00  0.00    +0.000 NA
ATOM     13  C   UNL     1      -6.712  12.513  17.493  0.00  0.00    +0.000 A 
ATOM     14  N   UNL     1      -5.507  12.258  18.087  0.00  0.00    +0.000 N 
ATOM     15  H   UNL     1      -5.099  13.291  22.022  0.00  0.00    +0.000 HD
ENDROOT
BRANCH   9  16
ATOM     16  C   UNL     1      -3.224  14.101  21.977  0.00  0.00    +0.000 A 
ATOM     17  C   UNL     1      -2.404  13.392  22.888  0.00  0.00    +0.000 A 
ATOM     18  C   UNL     1      -2.618  11.958  23.303  0.00  0.00    +0.000 C 
ATOM     19  C   UNL     1      -1.296  14.037  23.472  0.00  0.00    +0.000 A 
ATOM     20  C   UNL     1      -0.955  15.343  23.133  0.00  0.00    +0.000 A 
ATOM     21  C   UNL     1      -1.727  16.037  22.211  0.00  0.00    +0.000 A 
ATOM     22  C   UNL     1      -2.849  15.425  21.645  0.00  0.00    +0.000 A 
ATOM     23 CL   UNL     1      -3.775  16.344  20.503  0.00  0.00    +0.000 Cl
ENDBRANCH   9  16
BRANCH   1  24
ATOM     24  C   UNL     1      -0.908  10.806  18.984  0.00  0.00    +0.000 C 
ATOM     25  O   UNL     1      -0.686   9.899  19.766  0.00  0.00    +0.000 OA
BRANCH  24  27
ATOM     26  C   UNL     1       0.224  12.605  19.960  0.00  0.00    +0.000 C 
ATOM     27  O   UNL     1      -0.087  11.874  18.773  0.00  0.00    +0.000 OA
ENDBRANCH  24  27
ENDBRANCH   1  24
TORSDOF 3
ENDMDL
MODEL 8
REMARK VINA RESULT:      -6.3      2.430      5.178
REMARK  Name = 
REMARK  5 active torsions:
REMARK  status: ('A' for Active; 'I' for Inactive)
REMARK    1  A    between atoms: C_1  and  O_2
REMARK    2  A    between atoms: O_2  and  C_3
REMARK    3  A    between atoms: C_3  and  C_5
REMARK    4  A    between atoms: N_13  and  C_14
REMARK    5  A    between atoms: C_15  and  C_16
REMARK                            x       y       z     vdW  Elec       q    Type
REMARK                         _______ _______ _______ _____ _____    ______ ____
ROOT
ATOM      1  C   UNL     1      -1.992  10.868  18.223  0.00  0.00    +0.000 A 
ATOM      2  C   UNL     1      -1.917  10.266  16.952  0.00  0.00    +0.000 A 
ATOM      3  C   UNL     1      -3.009  10.295  16.081  0.00  0.00    +0.000 A 
ATOM      4  C   UNL     1      -4.192  10.919  16.463  0.00  0.00    +0.000 A 
ATOM      5  C   UNL     1      -4.263  11.524  17.722  0.00  0.00    +0.000 A 
ATOM      6  C   UNL     1      -3.176  11.512  18.623  0.00  0.00    +0.000 A 
ATOM      7  N   UNL     1      -3.235  12.207  19.849  0.00  0.00    +0.000 NA
ATOM      8  C   UNL     1      -4.281  12.895  20.214  0.00  0.00    +0.000 A 
ATOM      9  N   UNL     1      -4.269  13.670  21.352  0.00  0.00    +0.000 N 
ATOM     10  C   UNL     1      -5.432  12.868  19.359  0.00  0.00    +0.000 A 
ATOM     11  C   UNL     1      -6.671  13.466  19.419  0.00  0.00    +0.000 A 
ATOM     12  N   UNL     1      -7.399  13.190  18.284  0.00  0.00    +0.000 NA
ATOM     13  C   UNL     1      -6.605  12.446  17.542  0.00  0.00    +0.000 A 
ATOM     14  N   UNL     1      -5.402  12.220  18.150  0.00  0.00    +0.000 N 
ATOM     15  H   UNL     1      -4.998  13.459  22.026  0.00  0.00    +0.000 HD
ENDROOT
BRANCH   9  16
ATOM     16  C   UNL     1      -3.120  14.259  21.941  0.00  0.00    +0.000 A 
ATOM     17  C   UNL     1      -2.634  15.542  21.588  0.00  0.00    +0.000 A 
ATOM     18  C   UNL     1      -3.273  16.456  20.573  0.00  0.00    +0.000 C 
ATOM     19  C   UNL     1      -1.471  16.039  22.210  0.00  0.00    +0.000 A 
ATOM     20  C   UNL     1      -0.815  15.320  23.204  0.00  0.00    +0.000 A 
ATOM     21  C   UNL     1      -1.304  14.078  23.588  0.00  0.00    +0.000 A 
ATOM     22  C   UNL     1      -2.438  13.554  22.960  0.00  0.00    +0.000 A 
ATOM     23 CL   UNL     1      -2.998  11.997  23.481  0.00  0.00    +0.000 Cl
ENDBRANCH   9  16
BRANCH   1  24
ATOM     24  C   UNL     1      -0.810  10.802  19.132  0.00  0.00    +0.000 C 
ATOM     25  O   UNL     1      -0.610   9.957  19.987  0.00  0.00    +0.000 OA
BRANCH  24  27
ATOM     26  C   UNL     1       1.410  11.436  18.752  0.00  0.00    +0.000 C 
ATOM     27  O   UNL     1       0.038  11.827  18.834  0.00  0.00    +0.000 OA
ENDBRANCH  24  27
ENDBRANCH   1  24
TORSDOF 3
ENDMDL
MODEL 9
REMARK VINA RESULT:      -6.2      2.743      4.780
REMARK  Name = 
REMARK  5 active torsions:
REMARK  status: ('A' for Active; 'I' for Inactive)
REMARK    1  A    between atoms: C_1  and  O_2
REMARK    2  A    between atoms: O_2  and  C_3
REMARK    3  A    between atoms: C_3  and  C_5
REMARK    4  A    between atoms: N_13  and  C_14
REMARK    5  A    between atoms: C_15  and  C_16
REMARK                            x       y       z     vdW  Elec       q    Type
REMARK                         _______ _______ _______ _____ _____    ______ ____
ROOT
ATOM      1  C   UNL     1      -3.975  11.416  17.423  0.00  0.00    +0.000 A 
ATOM      2  C   UNL     1      -5.302  11.478  16.955  0.00  0.00    +0.000 A 
ATOM      3  C   UNL     1      -6.330  11.940  17.779  0.00  0.00    +0.000 A 
ATOM      4  C   UNL     1      -6.054  12.346  19.082  0.00  0.00    +0.000 A 
ATOM      5  C   UNL     1      -4.735  12.293  19.542  0.00  0.00    +0.000 A 
ATOM      6  C   UNL     1      -3.675  11.831  18.732  0.00  0.00    +0.000 A 
ATOM      7  N   UNL     1      -2.338  11.873  19.182  0.00  0.00    +0.000 NA
ATOM      8  C   UNL     1      -2.010  12.339  20.355  0.00  0.00    +0.000 A 
ATOM      9  N   UNL     1      -0.692  12.491  20.723  0.00  0.00    +0.000 N 
ATOM     10  C   UNL     1      -3.067  12.747  21.234  0.00  0.00    +0.000 A 
ATOM     11  C   UNL     1      -3.091  13.280  22.503  0.00  0.00    +0.000 A 
ATOM     12  N   UNL     1      -4.378  13.587  22.877  0.00  0.00    +0.000 NA
ATOM     13  C   UNL     1      -5.123  13.256  21.842  0.00  0.00    +0.000 A 
ATOM     14  N   UNL     1      -4.375  12.738  20.821  0.00  0.00    +0.000 N 
ATOM     15  H   UNL     1      -0.423  12.009  21.575  0.00  0.00    +0.000 HD
ENDROOT
BRANCH   9  16
ATOM     16  C   UNL     1       0.397  12.705  19.837  0.00  0.00    +0.000 A 
ATOM     17  C   UNL     1       1.133  11.653  19.239  0.00  0.00    +0.000 A 
ATOM     18  C   UNL     1       0.853  10.185  19.436  0.00  0.00    +0.000 C 
ATOM     19  C   UNL     1       2.214  11.959  18.389  0.00  0.00    +0.000 A 
ATOM     20  C   UNL     1       2.546  13.275  18.080  0.00  0.00    +0.000 A 
ATOM     21  C   UNL     1       1.807  14.315  18.628  0.00  0.00    +0.000 A 
ATOM     22  C   UNL     1       0.750  14.032  19.499  0.00  0.00    +0.000 A 
ATOM     23 CL   UNL     1      -0.133  15.374  20.154  0.00  0.00    +0.000 Cl
ENDBRANCH   9  16
BRANCH   1  24
ATOM     24  C   UNL     1      -2.906  10.901  16.517  0.00  0.00    +0.000 C 
ATOM     25  O   UNL     1      -1.932  10.253  16.856  0.00  0.00    +0.000 OA
BRANCH  24  27
ATOM     26  C   UNL     1      -3.118  10.158  14.309  0.00  0.00    +0.000 C 
ATOM     27  O   UNL     1      -3.207  11.245  15.233  0.00  0.00    +0.000 OA
ENDBRANCH  24  27
ENDBRANCH   1  24
TORSDOF 3
ENDMDL
