MODEL 1
REMARK VINA RESULT:      -8.5      0.000      0.000
REMARK  Name = 
REMARK  6 active torsions:
REMARK  status: ('A' for Active; 'I' for Inactive)
REMARK    1  A    between atoms: C_1  and  C_2
REMARK    2  A    between atoms: C_2  and  C_3
REMARK    3  A    between atoms: C_3  and  N_4
REMARK    4  A    between atoms: C_5  and  C_6
REMARK    5  A    between atoms: C_10  and  C_11
REMARK    6  A    between atoms: C_19  and  C_20
REMARK                            x       y       z     vdW  Elec       q    Type
REMARK                         _______ _______ _______ _____ _____    ______ ____
ROOT
ATOM      1  N   UNL     1       3.358   4.519  19.676  0.00  0.00    +0.000 N 
ATOM      2  C   UNL     1       3.989   5.594  18.971  0.00  0.00    +0.000 A 
ATOM      3  N   UNL     1       3.605   6.842  19.018  0.00  0.00    +0.000 NA
ATOM      4  C   UNL     1       2.485   7.107  19.812  0.00  0.00    +0.000 A 
ATOM      5  N   UNL     1       1.863   8.300  20.035  0.00  0.00    +0.000 NA
ATOM      6  C   UNL     1       0.847   8.045  20.831  0.00  0.00    +0.000 A 
ATOM      7  N   UNL     1       0.824   6.689  21.152  0.00  0.00    +0.000 N 
ATOM      8  C   UNL     1       1.858   6.132  20.484  0.00  0.00    +0.000 A 
ATOM      9  C   UNL     1       2.232   4.784  20.483  0.00  0.00    +0.000 A 
ATOM     10  O   UNL     1       1.585   4.012  21.154  0.00  0.00    +0.000 OA
ATOM     11  H   UNL     1       0.164   6.215  21.740  0.00  0.00    +0.000 HD
ENDROOT
BRANCH   2  12
ATOM     12  C   UNL     1       5.212   5.303  18.132  0.00  0.00    +0.000 A 
ATOM     13  C   UNL     1       6.466   5.236  18.737  0.00  0.00    +0.000 A 
ATOM     14  C   UNL     1       7.577   4.849  17.994  0.00  0.00    +0.000 A 
ATOM     15  C   UNL     1       7.469   4.545  16.634  0.00  0.00    +0.000 A 
ATOM     16  C   UNL     1       6.250   4.686  15.986  0.00  0.00    +0.000 A 
ATOM     17  C   UNL     1       5.160   5.109  16.744  0.00  0.00    +0.000 A 
BRANCH  16  18
ATOM     18  C   UNL     1       6.097   4.431  14.507  0.00  0.00    +0.000 C 
ATOM     19  F   UNL     1       4.846   4.733  14.056  0.00  0.00    +0.000 F 
ATOM     20  F   UNL     1       6.956   5.172  13.750  0.00  0.00    +0.000 F 
ATOM     21  F   UNL     1       6.322   3.136  14.158  0.00  0.00    +0.000 F 
ENDBRANCH  16  18
ENDBRANCH   2  12
BRANCH   6  22
ATOM     22  C   UNL     1      -0.194   8.972  21.353  0.00  0.00    +0.000 C 
ATOM     23  C   UNL     1      -0.090   9.221  22.851  0.00  0.00    +0.000 C 
ATOM     24  C   UNL     1      -0.885  10.504  23.065  0.00  0.00    +0.000 C 
ATOM     25  C   UNL     1      -0.766  11.293  21.761  0.00  0.00    +0.000 C 
ATOM     26  C   UNL     1      -0.070  10.375  20.761  0.00  0.00    +0.000 C 
ENDBRANCH   6  22
BRANCH   1  27
ATOM     27  C   UNL     1       3.867   3.141  19.710  0.00  0.00    +0.000 C 
BRANCH  27  29
ATOM     28  C   UNL     1       2.224   2.230  18.053  0.00  0.00    +0.000 C 
ATOM     29  C   UNL     1       3.663   2.317  18.461  0.00  0.00    +0.000 C 
ENDBRANCH  27  29
ENDBRANCH   1  27
TORSDOF 5
ENDMDL
MODEL 2
REMARK VINA RESULT:      -8.3      2.443      3.385
REMARK  Name = 
REMARK  6 active torsions:
REMARK  status: ('A' for Active; 'I' for Inactive)
REMARK    1  A    between atoms: C_1  and  C_2
REMARK    2  A    between atoms: C_2  and  C_3
REMARK    3  A    between atoms: C_3  and  N_4
REMARK    4  A    between atoms: C_5  and  C_6
REMARK    5  A    between atoms: C_10  and  C_11
REMARK    6  A    between atoms: C_19  and  C_20
REMARK                            x       y       z     vdW  Elec       q    Type
REMARK                         _______ _______ _______ _____ _____    ______ ____
ROOT
ATOM      1  N   UNL     1       2.175   6.782  19.849  0.00  0.00    +0.000 N 
ATOM      2  C   UNL     1       2.761   6.934  18.551  0.00  0.00    +0.000 A 
ATOM      3  N   UNL     1       2.704   8.022  17.831  0.00  0.00    +0.000 NA
ATOM      4  C   UNL     1       1.998   9.090  18.394  0.00  0.00    +0.000 A 
ATOM      5  N   UNL     1       1.767  10.329  17.870  0.00  0.00    +0.000 NA
ATOM      6  C   UNL     1       1.042  10.976  18.756  0.00  0.00    +0.000 A 
ATOM      7  N   UNL     1       0.824  10.171  19.872  0.00  0.00    +0.000 N 
ATOM      8  C   UNL     1       1.427   8.992  19.601  0.00  0.00    +0.000 A 
ATOM      9  C   UNL     1       1.469   7.859  20.422  0.00  0.00    +0.000 A 
ATOM     10  O   UNL     1       0.925   7.916  21.502  0.00  0.00    +0.000 OA
ATOM     11  H   UNL     1       0.307  10.405  20.699  0.00  0.00    +0.000 HD
ENDROOT
BRANCH   2  12
ATOM     12  C   UNL     1       3.540   5.782  17.959  0.00  0.00    +0.000 A 
ATOM     13  C   UNL     1       2.872   4.622  17.569  0.00  0.00    +0.000 A 
ATOM     14  C   UNL     1       3.563   3.609  16.913  0.00  0.00    +0.000 A 
ATOM     15  C   UNL     1       4.932   3.716  16.651  0.00  0.00    +0.000 A 
ATOM     16  C   UNL     1       5.640   4.821  17.103  0.00  0.00    +0.000 A 
ATOM     17  C   UNL     1       4.932   5.805  17.790  0.00  0.00    +0.000 A 
BRANCH  16  18
ATOM     18  C   UNL     1       7.130   4.952  16.902  0.00  0.00    +0.000 C 
ATOM     19  F   UNL     1       7.534   4.463  15.695  0.00  0.00    +0.000 F 
ATOM     20  F   UNL     1       7.557   6.246  16.944  0.00  0.00    +0.000 F 
ATOM     21  F   UNL     1       7.859   4.291  17.841  0.00  0.00    +0.000 F 
ENDBRANCH  16  18
ENDBRANCH   2  12
BRANCH   6  22
ATOM     22  C   UNL     1       0.467  12.347  18.679  0.00  0.00    +0.000 C 
ATOM     23  C   UNL     1      -0.387  12.717  19.884  0.00  0.00    +0.000 C 
ATOM     24  C   UNL     1      -0.453  14.239  19.831  0.00  0.00    +0.000 C 
ATOM     25  C   UNL     1       0.845  14.693  19.164  0.00  0.00    +0.000 C 
ATOM     26  C   UNL     1       1.545  13.428  18.676  0.00  0.00    +0.000 C 
ENDBRANCH   6  22
BRANCH   1  27
ATOM     27  C   UNL     1       2.346   5.596  20.699  0.00  0.00    +0.000 C 
BRANCH  27  29
ATOM     28  C   UNL     1       1.688   3.219  21.139  0.00  0.00    +0.000 C 
ATOM     29  C   UNL     1       1.247   4.561  20.638  0.00  0.00    +0.000 C 
ENDBRANCH  27  29
ENDBRANCH   1  27
TORSDOF 5
ENDMDL
MODEL 3
REMARK VINA RESULT:      -8.3      1.601      2.280
REMARK  Name = 
REMARK  6 active torsions:
REMARK  status: ('A' for Active; 'I' for Inactive)
REMARK    1  A    between atoms: C_1  and  C_2
REMARK    2  A    between atoms: C_2  and  C_3
REMARK    3  A    between atoms: C_3  and  N_4
REMARK    4  A    between atoms: C_5  and  C_6
REMARK    5  A    between atoms: C_10  and  C_11
REMARK    6  A    between atoms: C_19  and  C_20
REMARK                            x       y       z     vdW  Elec       q    Type
REMARK                         _______ _______ _______ _____ _____    ______ ____
ROOT
ATOM      1  N   UNL     1       3.390   6.044  19.108  0.00  0.00    +0.000 N 
ATOM      2  C   UNL     1       4.017   6.631  17.962  0.00  0.00    +0.000 A 
ATOM      3  N   UNL     1       3.670   7.771  17.426  0.00  0.00    +0.000 NA
ATOM      4  C   UNL     1       2.594   8.428  18.031  0.00  0.00    +0.000 A 
ATOM      5  N   UNL     1       2.014   9.612  17.682  0.00  0.00    +0.000 NA
ATOM      6  C   UNL     1       1.029   9.806  18.532  0.00  0.00    +0.000 A 
ATOM      7  N   UNL     1       0.984   8.764  19.454  0.00  0.00    +0.000 N 
ATOM      8  C   UNL     1       1.972   7.912  19.100  0.00  0.00    +0.000 A 
ATOM      9  C   UNL     1       2.309   6.707  19.725  0.00  0.00    +0.000 A 
ATOM     10  O   UNL     1       1.673   6.370  20.697  0.00  0.00    +0.000 OA
ATOM     11  H   UNL     1       0.339   8.652  20.214  0.00  0.00    +0.000 HD
ENDROOT
BRANCH   2  12
ATOM     12  C   UNL     1       5.192   5.926  17.327  0.00  0.00    +0.000 A 
ATOM     13  C   UNL     1       6.350   5.700  18.071  0.00  0.00    +0.000 A 
ATOM     14  C   UNL     1       7.387   4.946  17.532  0.00  0.00    +0.000 A 
ATOM     15  C   UNL     1       7.307   4.421  16.240  0.00  0.00    +0.000 A 
ATOM     16  C   UNL     1       6.205   4.702  15.444  0.00  0.00    +0.000 A 
ATOM     17  C   UNL     1       5.195   5.489  15.994  0.00  0.00    +0.000 A 
BRANCH  16  18
ATOM     18  C   UNL     1       6.101   4.213  14.021  0.00  0.00    +0.000 C 
ATOM     19  F   UNL     1       6.400   2.887  13.906  0.00  0.00    +0.000 F 
ATOM     20  F   UNL     1       4.850   4.360  13.500  0.00  0.00    +0.000 F 
ATOM     21  F   UNL     1       6.936   4.864  13.167  0.00  0.00    +0.000 F 
ENDBRANCH  16  18
ENDBRANCH   2  12
BRANCH   6  22
ATOM     22  C   UNL     1       0.038  10.916  18.583  0.00  0.00    +0.000 C 
ATOM     23  C   UNL     1      -1.333  10.532  18.043  0.00  0.00    +0.000 C 
ATOM     24  C   UNL     1      -2.263  11.593  18.620  0.00  0.00    +0.000 C 
ATOM     25  C   UNL     1      -1.634  12.029  19.942  0.00  0.00    +0.000 C 
ATOM     26  C   UNL     1      -0.266  11.357  20.014  0.00  0.00    +0.000 C 
ENDBRANCH   6  22
BRANCH   1  27
ATOM     27  C   UNL     1       3.863   4.822  19.773  0.00  0.00    +0.000 C 
BRANCH  27  29
ATOM     28  C   UNL     1       3.915   2.692  18.454  0.00  0.00    +0.000 C 
ATOM     29  C   UNL     1       3.145   3.541  19.419  0.00  0.00    +0.000 C 
ENDBRANCH  27  29
ENDBRANCH   1  27
TORSDOF 5
ENDMDL
MODEL 4
REMARK VINA RESULT:      -8.2      1.756      2.316
REMARK  Name = 
REMARK  6 active torsions:
REMARK  status: ('A' for Active; 'I' for Inactive)
REMARK    1  A    between atoms: C_1  and  C_2
REMARK    2  A    between atoms: C_2  and  C_3
REMARK    3  A    between atoms: C_3  and  N_4
REMARK    4  A    between atoms: C_5  and  C_6
REMARK    5  A    between atoms: C_10  and  C_11
REMARK    6  A    between atoms: C_19  and  C_20
REMARK                            x       y       z     vdW  Elec       q    Type
REMARK                         _______ _______ _______ _____ _____    ______ ____
ROOT
ATOM      1  N   UNL     1       3.397   5.765  19.105  0.00  0.00    +0.000 N 
ATOM      2  C   UNL     1       4.042   6.445  18.022  0.00  0.00    +0.000 A 
ATOM      3  N   UNL     1       3.718   7.635  17.592  0.00  0.00    +0.000 NA
ATOM      4  C   UNL     1       2.649   8.252  18.249  0.00  0.00    +0.000 A 
ATOM      5  N   UNL     1       2.091   9.473  18.008  0.00  0.00    +0.000 NA
ATOM      6  C   UNL     1       1.104   9.605  18.867  0.00  0.00    +0.000 A 
ATOM      7  N   UNL     1       1.035   8.483  19.689  0.00  0.00    +0.000 N 
ATOM      8  C   UNL     1       2.011   7.651  19.262  0.00  0.00    +0.000 A 
ATOM      9  C   UNL     1       2.324   6.387  19.775  0.00  0.00    +0.000 A 
ATOM     10  O   UNL     1       1.676   5.973  20.709  0.00  0.00    +0.000 OA
ATOM     11  H   UNL     1       0.383   8.312  20.431  0.00  0.00    +0.000 HD
ENDROOT
BRANCH   2  12
ATOM     12  C   UNL     1       5.210   5.781  17.330  0.00  0.00    +0.000 A 
ATOM     13  C   UNL     1       6.394   5.554  18.033  0.00  0.00    +0.000 A 
ATOM     14  C   UNL     1       7.427   4.836  17.441  0.00  0.00    +0.000 A 
ATOM     15  C   UNL     1       7.317   4.350  16.135  0.00  0.00    +0.000 A 
ATOM     16  C   UNL     1       6.187   4.634  15.382  0.00  0.00    +0.000 A 
ATOM     17  C   UNL     1       5.181   5.386  15.985  0.00  0.00    +0.000 A 
BRANCH  16  18
ATOM     18  C   UNL     1       6.049   4.187  13.947  0.00  0.00    +0.000 C 
ATOM     19  F   UNL     1       6.876   4.875  13.109  0.00  0.00    +0.000 F 
ATOM     20  F   UNL     1       6.351   2.869  13.772  0.00  0.00    +0.000 F 
ATOM     21  F   UNL     1       4.791   4.347  13.454  0.00  0.00    +0.000 F 
ENDBRANCH  16  18
ENDBRANCH   2  12
BRANCH   6  22
ATOM     22  C   UNL     1       0.131  10.723  19.015  0.00  0.00    +0.000 C 
ATOM     23  C   UNL     1       0.695  12.077  18.609  0.00  0.00    +0.000 C 
ATOM     24  C   UNL     1      -0.545  12.934  18.378  0.00  0.00    +0.000 C 
ATOM     25  C   UNL     1      -1.644  11.971  17.934  0.00  0.00    +0.000 C 
ATOM     26  C   UNL     1      -1.079  10.563  18.097  0.00  0.00    +0.000 C 
ENDBRANCH   6  22
BRANCH   1  27
ATOM     27  C   UNL     1       3.846   4.480  19.657  0.00  0.00    +0.000 C 
BRANCH  27  29
ATOM     28  C   UNL     1       3.748   2.576  18.031  0.00  0.00    +0.000 C 
ATOM     29  C   UNL     1       3.096   3.251  19.199  0.00  0.00    +0.000 C 
ENDBRANCH  27  29
ENDBRANCH   1  27
TORSDOF 5
ENDMDL
MODEL 5
REMARK VINA RESULT:      -8.1      3.570      7.819
REMARK  Name = 
REMARK  6 active torsions:
REMARK  status: ('A' for Active; 'I' for Inactive)
REMARK    1  A    between atoms: C_1  and  C_2
REMARK    2  A    between atoms: C_2  and  C_3
REMARK    3  A    between atoms: C_3  and  N_4
REMARK    4  A    between atoms: C_5  and  C_6
REMARK    5  A    between atoms: C_10  and  C_11
REMARK    6  A    between atoms: C_19  and  C_20
REMARK                            x       y       z     vdW  Elec       q    Type
REMARK                         _______ _______ _______ _____ _____    ______ ____
ROOT
ATOM      1  N   UNL     1       3.161   5.119  19.498  0.00  0.00    +0.000 N 
ATOM      2  C   UNL     1       3.011   6.395  18.866  0.00  0.00    +0.000 A 
ATOM      3  N   UNL     1       3.529   6.719  17.712  0.00  0.00    +0.000 NA
ATOM      4  C   UNL     1       4.292   5.730  17.085  0.00  0.00    +0.000 A 
ATOM      5  N   UNL     1       4.954   5.792  15.894  0.00  0.00    +0.000 NA
ATOM      6  C   UNL     1       5.543   4.626  15.737  0.00  0.00    +0.000 A 
ATOM      7  N   UNL     1       5.242   3.792  16.811  0.00  0.00    +0.000 N 
ATOM      8  C   UNL     1       4.466   4.524  17.642  0.00  0.00    +0.000 A 
ATOM      9  C   UNL     1       3.924   4.116  18.866  0.00  0.00    +0.000 A 
ATOM     10  O   UNL     1       4.146   2.987  19.240  0.00  0.00    +0.000 OA
ATOM     11  H   UNL     1       5.551   2.849  16.954  0.00  0.00    +0.000 HD
ENDROOT
BRANCH   2  12
ATOM     12  C   UNL     1       2.167   7.453  19.540  0.00  0.00    +0.000 A 
ATOM     13  C   UNL     1       1.791   7.293  20.873  0.00  0.00    +0.000 A 
ATOM     14  C   UNL     1       1.120   8.316  21.534  0.00  0.00    +0.000 A 
ATOM     15  C   UNL     1       0.789   9.506  20.880  0.00  0.00    +0.000 A 
ATOM     16  C   UNL     1       1.074   9.659  19.531  0.00  0.00    +0.000 A 
ATOM     17  C   UNL     1       1.714   8.606  18.882  0.00  0.00    +0.000 A 
BRANCH  16  18
ATOM     18  C   UNL     1       0.679  10.898  18.766  0.00  0.00    +0.000 C 
ATOM     19  F   UNL     1       0.243  11.897  19.587  0.00  0.00    +0.000 F 
ATOM     20  F   UNL     1       1.709  11.428  18.047  0.00  0.00    +0.000 F 
ATOM     21  F   UNL     1      -0.323  10.681  17.871  0.00  0.00    +0.000 F 
ENDBRANCH  16  18
ENDBRANCH   2  12
BRANCH   6  22
ATOM     22  C   UNL     1       6.435   4.165  14.638  0.00  0.00    +0.000 C 
ATOM     23  C   UNL     1       5.682   3.700  13.399  0.00  0.00    +0.000 C 
ATOM     24  C   UNL     1       6.732   3.746  12.294  0.00  0.00    +0.000 C 
ATOM     25  C   UNL     1       7.712   4.848  12.693  0.00  0.00    +0.000 C 
ATOM     26  C   UNL     1       7.322   5.286  14.101  0.00  0.00    +0.000 C 
ENDBRANCH   6  22
BRANCH   1  27
ATOM     27  C   UNL     1       2.477   4.725  20.738  0.00  0.00    +0.000 C 
BRANCH  27  29
ATOM     28  C   UNL     1       1.356   2.625  21.519  0.00  0.00    +0.000 C 
ATOM     29  C   UNL     1       1.294   3.798  20.589  0.00  0.00    +0.000 C 
ENDBRANCH  27  29
ENDBRANCH   1  27
TORSDOF 5
ENDMDL
MODEL 6
REMARK VINA RESULT:      -8.0      4.072      8.254
REMARK  Name = 
REMARK  6 active torsions:
REMARK  status: ('A' for Active; 'I' for Inactive)
REMARK    1  A    between atoms: C_1  and  C_2
REMARK    2  A    between atoms: C_2  and  C_3
REMARK    3  A    between atoms: C_3  and  N_4
REMARK    4  A    between atoms: C_5  and  C_6
REMARK    5  A    between atoms: C_10  and  C_11
REMARK    6  A    between atoms: C_19  and  C_20
REMARK                            x       y       z     vdW  Elec       q    Type
REMARK                         _______ _______ _______ _____ _____    ______ ____
ROOT
ATOM      1  N   UNL     1       3.111   5.802  19.054  0.00  0.00    +0.000 N 
ATOM      2  C   UNL     1       2.996   7.014  18.299  0.00  0.00    +0.000 A 
ATOM      3  N   UNL     1       3.572   7.230  17.147  0.00  0.00    +0.000 NA
ATOM      4  C   UNL     1       4.363   6.188  16.654  0.00  0.00    +0.000 A 
ATOM      5  N   UNL     1       5.085   6.140  15.498  0.00  0.00    +0.000 NA
ATOM      6  C   UNL     1       5.678   4.966  15.480  0.00  0.00    +0.000 A 
ATOM      7  N   UNL     1       5.321   4.235  16.611  0.00  0.00    +0.000 N 
ATOM      8  C   UNL     1       4.506   5.040  17.329  0.00  0.00    +0.000 A 
ATOM      9  C   UNL     1       3.901   4.747  18.557  0.00  0.00    +0.000 A 
ATOM     10  O   UNL     1       4.102   3.658  19.046  0.00  0.00    +0.000 OA
ATOM     11  H   UNL     1       5.620   3.311  16.857  0.00  0.00    +0.000 HD
ENDROOT
BRANCH   2  12
ATOM     12  C   UNL     1       2.122   8.128  18.827  0.00  0.00    +0.000 A 
ATOM     13  C   UNL     1       1.658   9.115  17.959  0.00  0.00    +0.000 A 
ATOM     14  C   UNL     1       0.757  10.073  18.412  0.00  0.00    +0.000 A 
ATOM     15  C   UNL     1       0.317  10.084  19.739  0.00  0.00    +0.000 A 
ATOM     16  C   UNL     1       0.828   9.167  20.647  0.00  0.00    +0.000 A 
ATOM     17  C   UNL     1       1.756   8.241  20.177  0.00  0.00    +0.000 A 
BRANCH  16  18
ATOM     18  C   UNL     1       0.433   9.180  22.103  0.00  0.00    +0.000 C 
ATOM     19  F   UNL     1      -0.010  10.405  22.509  0.00  0.00    +0.000 F 
ATOM     20  F   UNL     1      -0.573   8.305  22.387  0.00  0.00    +0.000 F 
ATOM     21  F   UNL     1       1.455   8.852  22.939  0.00  0.00    +0.000 F 
ENDBRANCH  16  18
ENDBRANCH   2  12
BRANCH   6  22
ATOM     22  C   UNL     1       6.623   4.406  14.475  0.00  0.00    +0.000 C 
ATOM     23  C   UNL     1       5.930   3.712  13.310  0.00  0.00    +0.000 C 
ATOM     24  C   UNL     1       7.001   3.662  12.226  0.00  0.00    +0.000 C 
ATOM     25  C   UNL     1       7.900   4.874  12.467  0.00  0.00    +0.000 C 
ATOM     26  C   UNL     1       7.449   5.491  13.788  0.00  0.00    +0.000 C 
ENDBRANCH   6  22
BRANCH   1  27
ATOM     27  C   UNL     1       2.364   5.525  20.289  0.00  0.00    +0.000 C 
BRANCH  27  29
ATOM     28  C   UNL     1       1.324   3.381  21.063  0.00  0.00    +0.000 C 
ATOM     29  C   UNL     1       1.194   4.577  20.170  0.00  0.00    +0.000 C 
ENDBRANCH  27  29
ENDBRANCH   1  27
TORSDOF 5
ENDMDL
MODEL 7
REMARK VINA RESULT:      -8.0      4.259      8.510
REMARK  Name = 
REMARK  6 active torsions:
REMARK  status: ('A' for Active; 'I' for Inactive)
REMARK    1  A    between atoms: C_1  and  C_2
REMARK    2  A    between atoms: C_2  and  C_3
REMARK    3  A    between atoms: C_3  and  N_4
REMARK    4  A    between atoms: C_5  and  C_6
REMARK    5  A    between atoms: C_10  and  C_11
REMARK    6  A    between atoms: C_19  and  C_20
REMARK                            x       y       z     vdW  Elec       q    Type
REMARK                         _______ _______ _______ _____ _____    ______ ____
ROOT
ATOM      1  N   UNL     1       1.109   8.236  20.239  0.00  0.00    +0.000 N 
ATOM      2  C   UNL     1       1.251   9.068  19.083  0.00  0.00    +0.000 A 
ATOM      3  N   UNL     1       2.034   8.809  18.070  0.00  0.00    +0.000 NA
ATOM      4  C   UNL     1       2.784   7.633  18.164  0.00  0.00    +0.000 A 
ATOM      5  N   UNL     1       3.683   7.123  17.273  0.00  0.00    +0.000 NA
ATOM      6  C   UNL     1       4.146   6.014  17.809  0.00  0.00    +0.000 A 
ATOM      7  N   UNL     1       3.527   5.784  19.035  0.00  0.00    +0.000 N 
ATOM      8  C   UNL     1       2.690   6.828  19.230  0.00  0.00    +0.000 A 
ATOM      9  C   UNL     1       1.859   7.046  20.334  0.00  0.00    +0.000 A 
ATOM     10  O   UNL     1       1.860   6.223  21.221  0.00  0.00    +0.000 OA
ATOM     11  H   UNL     1       3.683   5.015  19.660  0.00  0.00    +0.000 HD
ENDROOT
BRANCH   2  12
ATOM     12  C   UNL     1       0.420  10.327  18.979  0.00  0.00    +0.000 A 
ATOM     13  C   UNL     1       1.010  11.568  19.219  0.00  0.00    +0.000 A 
ATOM     14  C   UNL     1       0.285  12.735  19.007  0.00  0.00    +0.000 A 
ATOM     15  C   UNL     1      -1.044  12.695  18.575  0.00  0.00    +0.000 A 
ATOM     16  C   UNL     1      -1.684  11.475  18.411  0.00  0.00    +0.000 A 
ATOM     17  C   UNL     1      -0.947  10.320  18.665  0.00  0.00    +0.000 A 
BRANCH  16  18
ATOM     18  C   UNL     1      -3.135  11.381  18.009  0.00  0.00    +0.000 C 
ATOM     19  F   UNL     1      -3.947  12.110  18.828  0.00  0.00    +0.000 F 
ATOM     20  F   UNL     1      -3.366  11.841  16.747  0.00  0.00    +0.000 F 
ATOM     21  F   UNL     1      -3.617  10.109  18.034  0.00  0.00    +0.000 F 
ENDBRANCH  16  18
ENDBRANCH   2  12
BRANCH   6  22
ATOM     22  C   UNL     1       5.184   5.082  17.289  0.00  0.00    +0.000 C 
ATOM     23  C   UNL     1       5.715   5.469  15.916  0.00  0.00    +0.000 C 
ATOM     24  C   UNL     1       7.037   4.716  15.809  0.00  0.00    +0.000 C 
ATOM     25  C   UNL     1       7.554   4.573  17.240  0.00  0.00    +0.000 C 
ATOM     26  C   UNL     1       6.442   5.075  18.156  0.00  0.00    +0.000 C 
ENDBRANCH   6  22
BRANCH   1  27
ATOM     27  C   UNL     1       0.139   8.476  21.317  0.00  0.00    +0.000 C 
BRANCH  27  29
ATOM     28  C   UNL     1      -0.497  10.196  23.025  0.00  0.00    +0.000 C 
ATOM     29  C   UNL     1       0.604   9.352  22.457  0.00  0.00    +0.000 C 
ENDBRANCH  27  29
ENDBRANCH   1  27
TORSDOF 5
ENDMDL
MODEL 8
REMARK VINA RESULT:      -7.9      4.336      8.630
REMARK  Name = 
REMARK  6 active torsions:
REMARK  status: ('A' for Active; 'I' for Inactive)
REMARK    1  A    between atoms: C_1  and  C_2
REMARK    2  A    between atoms: C_2  and  C_3
REMARK    3  A    between atoms: C_3  and  N_4
REMARK    4  A    between atoms: C_5  and  C_6
REMARK    5  A    between atoms: C_10  and  C_11
REMARK    6  A    between atoms: C_19  and  C_20
REMARK                            x       y       z     vdW  Elec       q    Type
REMARK                         _______ _______ _______ _____ _____    ______ ____
ROOT
ATOM      1  N   UNL     1       1.103   8.298  20.212  0.00  0.00    +0.000 N 
ATOM      2  C   UNL     1       1.127   9.212  19.110  0.00  0.00    +0.000 A 
ATOM      3  N   UNL     1       1.866   9.073  18.043  0.00  0.00    +0.000 NA
ATOM      4  C   UNL     1       2.694   7.947  18.016  0.00  0.00    +0.000 A 
ATOM      5  N   UNL     1       3.572   7.558  17.047  0.00  0.00    +0.000 NA
ATOM      6  C   UNL     1       4.133   6.449  17.479  0.00  0.00    +0.000 A 
ATOM      7  N   UNL     1       3.600   6.098  18.717  0.00  0.00    +0.000 N 
ATOM      8  C   UNL     1       2.711   7.068  19.027  0.00  0.00    +0.000 A 
ATOM      9  C   UNL     1       1.931   7.158  20.185  0.00  0.00    +0.000 A 
ATOM     10  O   UNL     1       2.034   6.279  21.012  0.00  0.00    +0.000 OA
ATOM     11  H   UNL     1       3.840   5.302  19.278  0.00  0.00    +0.000 HD
ENDROOT
BRANCH   2  12
ATOM     12  C   UNL     1       0.214  10.417  19.137  0.00  0.00    +0.000 A 
ATOM     13  C   UNL     1       0.698  11.643  19.591  0.00  0.00    +0.000 A 
ATOM     14  C   UNL     1      -0.098  12.781  19.504  0.00  0.00    +0.000 A 
ATOM     15  C   UNL     1      -1.395  12.720  18.988  0.00  0.00    +0.000 A 
ATOM     16  C   UNL     1      -1.935  11.499  18.609  0.00  0.00    +0.000 A 
ATOM     17  C   UNL     1      -1.130  10.369  18.739  0.00  0.00    +0.000 A 
BRANCH  16  18
ATOM     18  C   UNL     1      -3.352  11.373  18.106  0.00  0.00    +0.000 C 
ATOM     19  F   UNL     1      -3.773  10.076  18.067  0.00  0.00    +0.000 F 
ATOM     20  F   UNL     1      -4.252  12.035  18.888  0.00  0.00    +0.000 F 
ATOM     21  F   UNL     1      -3.522  11.864  16.849  0.00  0.00    +0.000 F 
ENDBRANCH  16  18
ENDBRANCH   2  12
BRANCH   6  22
ATOM     22  C   UNL     1       5.197   5.625  16.843  0.00  0.00    +0.000 C 
ATOM     23  C   UNL     1       4.847   4.146  16.751  0.00  0.00    +0.000 C 
ATOM     24  C   UNL     1       5.797   3.612  15.684  0.00  0.00    +0.000 C 
ATOM     25  C   UNL     1       6.075   4.785  14.745  0.00  0.00    +0.000 C 
ATOM     26  C   UNL     1       5.439   6.014  15.386  0.00  0.00    +0.000 C 
ENDBRANCH   6  22
BRANCH   1  27
ATOM     27  C   UNL     1       0.183   8.402  21.352  0.00  0.00    +0.000 C 
BRANCH  27  29
ATOM     28  C   UNL     1      -0.516  10.028  23.126  0.00  0.00    +0.000 C 
ATOM     29  C   UNL     1       0.623   9.287  22.495  0.00  0.00    +0.000 C 
ENDBRANCH  27  29
ENDBRANCH   1  27
TORSDOF 5
ENDMDL
MODEL 9
REMARK VINA RESULT:      -7.8      2.390      3.353
REMARK  Name = 
REMARK  6 active torsions:
REMARK  status: ('A' for Active; 'I' for Inactive)
REMARK    1  A    between atoms: C_1  and  C_2
REMARK    2  A    between atoms: C_2  and  C_3
REMARK    3  A    between atoms: C_3  and  N_4
REMARK    4  A    between atoms: C_5  and  C_6
REMARK    5  A    between atoms: C_10  and  C_11
REMARK    6  A    between atoms: C_19  and  C_20
REMARK                            x       y       z     vdW  Elec       q    Type
REMARK                         _______ _______ _______ _____ _____    ______ ____
ROOT
ATOM      1  N   UNL     1       2.138   6.486  19.997  0.00  0.00    +0.000 N 
ATOM      2  C   UNL     1       2.740   6.779  18.731  0.00  0.00    +0.000 A 
ATOM      3  N   UNL     1       2.707   7.946  18.145  0.00  0.00    +0.000 NA
ATOM      4  C   UNL     1       2.013   8.952  18.823  0.00  0.00    +0.000 A 
ATOM      5  N   UNL     1       1.807  10.247  18.448  0.00  0.00    +0.000 NA
ATOM      6  C   UNL     1       1.083  10.797  19.398  0.00  0.00    +0.000 A 
ATOM      7  N   UNL     1       0.841   9.870  20.409  0.00  0.00    +0.000 N 
ATOM      8  C   UNL     1       1.428   8.721  20.006  0.00  0.00    +0.000 A 
ATOM      9  C   UNL     1       1.443   7.499  20.688  0.00  0.00    +0.000 A 
ATOM     10  O   UNL     1       0.889   7.437  21.762  0.00  0.00    +0.000 OA
ATOM     11  H   UNL     1       0.319  10.014  21.254  0.00  0.00    +0.000 HD
ENDROOT
BRANCH   2  12
ATOM     12  C   UNL     1       3.507   5.693  18.013  0.00  0.00    +0.000 A 
ATOM     13  C   UNL     1       2.834   4.565  17.543  0.00  0.00    +0.000 A 
ATOM     14  C   UNL     1       3.510   3.622  16.777  0.00  0.00    +0.000 A 
ATOM     15  C   UNL     1       4.868   3.765  16.482  0.00  0.00    +0.000 A 
ATOM     16  C   UNL     1       5.583   4.832  17.007  0.00  0.00    +0.000 A 
ATOM     17  C   UNL     1       4.892   5.744  17.802  0.00  0.00    +0.000 A 
BRANCH  16  18
ATOM     18  C   UNL     1       7.065   4.995  16.771  0.00  0.00    +0.000 C 
ATOM     19  F   UNL     1       7.813   4.331  17.698  0.00  0.00    +0.000 F 
ATOM     20  F   UNL     1       7.463   4.518  15.557  0.00  0.00    +0.000 F 
ATOM     21  F   UNL     1       7.475   6.291  16.812  0.00  0.00    +0.000 F 
ENDBRANCH  16  18
ENDBRANCH   2  12
BRANCH   6  22
ATOM     22  C   UNL     1       0.531  12.178  19.479  0.00  0.00    +0.000 C 
ATOM     23  C   UNL     1       1.592  13.264  19.368  0.00  0.00    +0.000 C 
ATOM     24  C   UNL     1       0.800  14.512  18.993  0.00  0.00    +0.000 C 
ATOM     25  C   UNL     1      -0.419  14.017  18.215  0.00  0.00    +0.000 C 
ATOM     26  C   UNL     1      -0.409  12.495  18.317  0.00  0.00    +0.000 C 
ENDBRANCH   6  22
BRANCH   1  27
ATOM     27  C   UNL     1       2.282   5.204  20.702  0.00  0.00    +0.000 C 
BRANCH  27  29
ATOM     28  C   UNL     1       1.393   2.931  21.267  0.00  0.00    +0.000 C 
ATOM     29  C   UNL     1       1.136   4.229  20.564  0.00  0.00    +0.000 C 
ENDBRANCH  27  29
ENDBRANCH   1  27
TORSDOF 5
ENDMDL
