MODEL 1
REMARK VINA RESULT:      -8.9      0.000      0.000
REMARK  Name = 
REMARK  3 active torsions:
REMARK  status: ('A' for Active; 'I' for Inactive)
REMARK    1  A    between atoms: N_2  and  C_4
REMARK    2  A    between atoms: C_7  and  N_8
REMARK    3  A    between atoms: N_8  and  C_9
REMARK                            x       y       z     vdW  Elec       q    Type
REMARK                         _______ _______ _______ _____ _____    ______ ____
ROOT
ATOM      1  C   UNL     1       6.420   5.266  15.286  0.00  0.00    +0.000 A 
ATOM      2  C   UNL     1       5.225   5.990  15.352  0.00  0.00    +0.000 A 
ATOM      3  C   UNL     1       4.624   6.266  16.600  0.00  0.00    +0.000 A 
ATOM      4  C   UNL     1       5.132   5.836  17.860  0.00  0.00    +0.000 A 
ATOM      5  C   UNL     1       6.371   5.146  17.767  0.00  0.00    +0.000 A 
ATOM      6  N   UNL     1       7.140   4.645  18.746  0.00  0.00    +0.000 NA
ATOM      7  O   UNL     1       8.229   4.071  18.115  0.00  0.00    +0.000 OA
ATOM      8  N   UNL     1       8.157   4.200  16.740  0.00  0.00    +0.000 NA
ATOM      9  C   UNL     1       7.016   4.854  16.486  0.00  0.00    +0.000 A 
ENDROOT
BRANCH   1  11
ATOM     10  O   UNL     1       6.578   3.998  13.406  0.00  0.00    +0.000 OA
ATOM     11  N   UNL     1       7.039   4.959  14.032  0.00  0.00    +0.000 N 
ATOM     12  O   UNL     1       8.031   5.625  13.713  0.00  0.00    +0.000 OA
ENDBRANCH   1  11
BRANCH   4  13
ATOM     13  N   UNL     1       4.451   6.113  19.062  0.00  0.00    +0.000 N 
ATOM     14  H   UNL     1       5.061   6.320  19.851  0.00  0.00    +0.000 HD
BRANCH  13  15
ATOM     15  C   UNL     1       3.188   5.598  19.463  0.00  0.00    +0.000 A 
ATOM     16  C   UNL     1       2.304   6.409  20.200  0.00  0.00    +0.000 A 
ATOM     17  C   UNL     1       1.119   5.906  20.714  0.00  0.00    +0.000 A 
ATOM     18  C   UNL     1       0.776   4.578  20.477  0.00  0.00    +0.000 A 
ATOM     19  C   UNL     1       1.596   3.755  19.692  0.00  0.00    +0.000 A 
ATOM     20  C   UNL     1       1.222   2.426  19.448  0.00  0.00    +0.000 A 
ATOM     21  C   UNL     1       2.017   1.587  18.671  0.00  0.00    +0.000 A 
ATOM     22  C   UNL     1       3.205   2.068  18.134  0.00  0.00    +0.000 A 
ATOM     23  C   UNL     1       3.603   3.384  18.381  0.00  0.00    +0.000 A 
ATOM     24  C   UNL     1       2.814   4.261  19.161  0.00  0.00    +0.000 A 
ENDBRANCH  13  15
ENDBRANCH   4  13
TORSDOF 3
ENDMDL
MODEL 2
REMARK VINA RESULT:      -8.8      5.164      6.832
REMARK  Name = 
REMARK  3 active torsions:
REMARK  status: ('A' for Active; 'I' for Inactive)
REMARK    1  A    between atoms: N_2  and  C_4
REMARK    2  A    between atoms: C_7  and  N_8
REMARK    3  A    between atoms: N_8  and  C_9
REMARK                            x       y       z     vdW  Elec       q    Type
REMARK                         _______ _______ _______ _____ _____    ______ ____
ROOT
ATOM      1  C   UNL     1       0.545  10.575  19.210  0.00  0.00    +0.000 A 
ATOM      2  C   UNL     1       1.036   9.669  18.264  0.00  0.00    +0.000 A 
ATOM      3  C   UNL     1       1.644   8.463  18.676  0.00  0.00    +0.000 A 
ATOM      4  C   UNL     1       1.836   8.071  20.032  0.00  0.00    +0.000 A 
ATOM      5  C   UNL     1       1.284   8.985  20.971  0.00  0.00    +0.000 A 
ATOM      6  N   UNL     1       1.250   8.910  22.310  0.00  0.00    +0.000 NA
ATOM      7  O   UNL     1       0.606  10.058  22.736  0.00  0.00    +0.000 OA
ATOM      8  N   UNL     1       0.234  10.866  21.677  0.00  0.00    +0.000 NA
ATOM      9  C   UNL     1       0.644  10.238  20.568  0.00  0.00    +0.000 A 
ENDROOT
BRANCH   1  11
ATOM     10  O   UNL     1      -1.286  11.804  18.657  0.00  0.00    +0.000 OA
ATOM     11  N   UNL     1      -0.060  11.811  18.818  0.00  0.00    +0.000 N 
ATOM     12  O   UNL     1       0.695  12.765  18.593  0.00  0.00    +0.000 OA
ENDBRANCH   1  11
BRANCH   4  13
ATOM     13  N   UNL     1       2.492   6.870  20.367  0.00  0.00    +0.000 N 
ATOM     14  H   UNL     1       3.475   6.982  20.607  0.00  0.00    +0.000 HD
BRANCH  13  15
ATOM     15  C   UNL     1       2.189   5.571  19.876  0.00  0.00    +0.000 A 
ATOM     16  C   UNL     1       1.190   4.801  20.502  0.00  0.00    +0.000 A 
ATOM     17  C   UNL     1       0.952   3.486  20.132  0.00  0.00    +0.000 A 
ATOM     18  C   UNL     1       1.695   2.917  19.103  0.00  0.00    +0.000 A 
ATOM     19  C   UNL     1       2.654   3.668  18.409  0.00  0.00    +0.000 A 
ATOM     20  C   UNL     1       3.377   3.081  17.361  0.00  0.00    +0.000 A 
ATOM     21  C   UNL     1       4.334   3.806  16.655  0.00  0.00    +0.000 A 
ATOM     22  C   UNL     1       4.586   5.129  16.997  0.00  0.00    +0.000 A 
ATOM     23  C   UNL     1       3.888   5.726  18.049  0.00  0.00    +0.000 A 
ATOM     24  C   UNL     1       2.907   5.017  18.780  0.00  0.00    +0.000 A 
ENDBRANCH  13  15
ENDBRANCH   4  13
TORSDOF 3
ENDMDL
MODEL 3
REMARK VINA RESULT:      -8.6      5.223      6.960
REMARK  Name = 
REMARK  3 active torsions:
REMARK  status: ('A' for Active; 'I' for Inactive)
REMARK    1  A    between atoms: N_2  and  C_4
REMARK    2  A    between atoms: C_7  and  N_8
REMARK    3  A    between atoms: N_8  and  C_9
REMARK                            x       y       z     vdW  Elec       q    Type
REMARK                         _______ _______ _______ _____ _____    ______ ____
ROOT
ATOM      1  C   UNL     1       0.262  10.525  19.116  0.00  0.00    +0.000 A 
ATOM      2  C   UNL     1       0.795   9.701  18.119  0.00  0.00    +0.000 A 
ATOM      3  C   UNL     1       1.536   8.549  18.462  0.00  0.00    +0.000 A 
ATOM      4  C   UNL     1       1.828   8.138  19.795  0.00  0.00    +0.000 A 
ATOM      5  C   UNL     1       1.234   8.963  20.787  0.00  0.00    +0.000 A 
ATOM      6  N   UNL     1       1.269   8.845  22.123  0.00  0.00    +0.000 NA
ATOM      7  O   UNL     1       0.536   9.911  22.616  0.00  0.00    +0.000 OA
ATOM      8  N   UNL     1       0.038  10.709  21.603  0.00  0.00    +0.000 NA
ATOM      9  C   UNL     1       0.456  10.158  20.455  0.00  0.00    +0.000 A 
ENDROOT
BRANCH   1  11
ATOM     10  O   UNL     1       0.176  12.739  18.611  0.00  0.00    +0.000 OA
ATOM     11  N   UNL     1      -0.478  11.706  18.793  0.00  0.00    +0.000 N 
ATOM     12  O   UNL     1      -1.712  11.621  18.799  0.00  0.00    +0.000 OA
ENDBRANCH   1  11
BRANCH   4  13
ATOM     13  N   UNL     1       2.613   6.998  20.059  0.00  0.00    +0.000 N 
ATOM     14  H   UNL     1       3.280   7.115  20.819  0.00  0.00    +0.000 HD
BRANCH  13  15
ATOM     15  C   UNL     1       3.014   6.005  19.123  0.00  0.00    +0.000 A 
ATOM     16  C   UNL     1       4.028   6.291  18.190  0.00  0.00    +0.000 A 
ATOM     17  C   UNL     1       4.360   5.396  17.185  0.00  0.00    +0.000 A 
ATOM     18  C   UNL     1       3.698   4.174  17.107  0.00  0.00    +0.000 A 
ATOM     19  C   UNL     1       2.727   3.822  18.056  0.00  0.00    +0.000 A 
ATOM     20  C   UNL     1       2.088   2.578  17.971  0.00  0.00    +0.000 A 
ATOM     21  C   UNL     1       1.121   2.203  18.901  0.00  0.00    +0.000 A 
ATOM     22  C   UNL     1       0.777   3.076  19.927  0.00  0.00    +0.000 A 
ATOM     23  C   UNL     1       1.391   4.327  20.016  0.00  0.00    +0.000 A 
ATOM     24  C   UNL     1       2.380   4.733  19.090  0.00  0.00    +0.000 A 
ENDBRANCH  13  15
ENDBRANCH   4  13
TORSDOF 3
ENDMDL
MODEL 4
REMARK VINA RESULT:      -8.6      4.842      6.765
REMARK  Name = 
REMARK  3 active torsions:
REMARK  status: ('A' for Active; 'I' for Inactive)
REMARK    1  A    between atoms: N_2  and  C_4
REMARK    2  A    between atoms: C_7  and  N_8
REMARK    3  A    between atoms: N_8  and  C_9
REMARK                            x       y       z     vdW  Elec       q    Type
REMARK                         _______ _______ _______ _____ _____    ______ ____
ROOT
ATOM      1  C   UNL     1       0.142  10.200  20.265  0.00  0.00    +0.000 A 
ATOM      2  C   UNL     1       0.156   9.421  21.428  0.00  0.00    +0.000 A 
ATOM      3  C   UNL     1       0.936   8.246  21.492  0.00  0.00    +0.000 A 
ATOM      4  C   UNL     1       1.733   7.739  20.425  0.00  0.00    +0.000 A 
ATOM      5  C   UNL     1       1.740   8.575  19.276  0.00  0.00    +0.000 A 
ATOM      6  N   UNL     1       2.405   8.424  18.120  0.00  0.00    +0.000 NA
ATOM      7  O   UNL     1       2.056   9.512  17.338  0.00  0.00    +0.000 OA
ATOM      8  N   UNL     1       1.170  10.352  17.988  0.00  0.00    +0.000 NA
ATOM      9  C   UNL     1       0.945   9.800  19.187  0.00  0.00    +0.000 A 
ENDROOT
BRANCH   1  11
ATOM     10  O   UNL     1      -1.750  11.275  19.611  0.00  0.00    +0.000 OA
ATOM     11  N   UNL     1      -0.654  11.386  20.170  0.00  0.00    +0.000 N 
ATOM     12  O   UNL     1      -0.152  12.439  20.581  0.00  0.00    +0.000 OA
ENDBRANCH   1  11
BRANCH   4  13
ATOM     13  N   UNL     1       2.451   6.534  20.550  0.00  0.00    +0.000 N 
ATOM     14  H   UNL     1       3.452   6.655  20.696  0.00  0.00    +0.000 HD
BRANCH  13  15
ATOM     15  C   UNL     1       2.130   5.285  19.950  0.00  0.00    +0.000 A 
ATOM     16  C   UNL     1       1.062   4.520  20.456  0.00  0.00    +0.000 A 
ATOM     17  C   UNL     1       0.796   3.246  19.979  0.00  0.00    +0.000 A 
ATOM     18  C   UNL     1       1.581   2.715  18.960  0.00  0.00    +0.000 A 
ATOM     19  C   UNL     1       2.613   3.469  18.383  0.00  0.00    +0.000 A 
ATOM     20  C   UNL     1       3.378   2.924  17.343  0.00  0.00    +0.000 A 
ATOM     21  C   UNL     1       4.407   3.652  16.751  0.00  0.00    +0.000 A 
ATOM     22  C   UNL     1       4.689   4.937  17.200  0.00  0.00    +0.000 A 
ATOM     23  C   UNL     1       3.948   5.490  18.247  0.00  0.00    +0.000 A 
ATOM     24  C   UNL     1       2.894   4.777  18.864  0.00  0.00    +0.000 A 
ENDBRANCH  13  15
ENDBRANCH   4  13
TORSDOF 3
ENDMDL
MODEL 5
REMARK VINA RESULT:      -8.6      3.735      6.095
REMARK  Name = 
REMARK  3 active torsions:
REMARK  status: ('A' for Active; 'I' for Inactive)
REMARK    1  A    between atoms: N_2  and  C_4
REMARK    2  A    between atoms: C_7  and  N_8
REMARK    3  A    between atoms: N_8  and  C_9
REMARK                            x       y       z     vdW  Elec       q    Type
REMARK                         _______ _______ _______ _____ _____    ______ ____
ROOT
ATOM      1  C   UNL     1       2.625   3.572  18.776  0.00  0.00    +0.000 A 
ATOM      2  C   UNL     1       1.771   3.863  19.845  0.00  0.00    +0.000 A 
ATOM      3  C   UNL     1       1.670   5.182  20.341  0.00  0.00    +0.000 A 
ATOM      4  C   UNL     1       2.409   6.295  19.847  0.00  0.00    +0.000 A 
ATOM      5  C   UNL     1       3.230   5.981  18.731  0.00  0.00    +0.000 A 
ATOM      6  N   UNL     1       4.019   6.787  18.003  0.00  0.00    +0.000 NA
ATOM      7  O   UNL     1       4.601   5.979  17.042  0.00  0.00    +0.000 OA
ATOM      8  N   UNL     1       4.190   4.663  17.155  0.00  0.00    +0.000 NA
ATOM      9  C   UNL     1       3.347   4.624  18.195  0.00  0.00    +0.000 A 
ENDROOT
BRANCH   1  11
ATOM     10  O   UNL     1       3.633   1.534  18.781  0.00  0.00    +0.000 OA
ATOM     11  N   UNL     1       2.758   2.241  18.267  0.00  0.00    +0.000 N 
ATOM     12  O   UNL     1       2.046   1.929  17.305  0.00  0.00    +0.000 OA
ENDBRANCH   1  11
BRANCH   4  13
ATOM     13  N   UNL     1       2.286   7.575  20.423  0.00  0.00    +0.000 N 
ATOM     14  H   UNL     1       2.507   7.611  21.416  0.00  0.00    +0.000 HD
BRANCH  13  15
ATOM     15  C   UNL     1       1.397   8.608  20.019  0.00  0.00    +0.000 A 
ATOM     16  C   UNL     1       1.317   8.971  18.661  0.00  0.00    +0.000 A 
ATOM     17  C   UNL     1       0.556  10.053  18.245  0.00  0.00    +0.000 A 
ATOM     18  C   UNL     1      -0.167  10.785  19.181  0.00  0.00    +0.000 A 
ATOM     19  C   UNL     1      -0.167  10.418  20.535  0.00  0.00    +0.000 A 
ATOM     20  C   UNL     1      -0.919  11.156  21.459  0.00  0.00    +0.000 A 
ATOM     21  C   UNL     1      -0.937  10.812  22.808  0.00  0.00    +0.000 A 
ATOM     22  C   UNL     1      -0.194   9.725  23.252  0.00  0.00    +0.000 A 
ATOM     23  C   UNL     1       0.576   8.988  22.349  0.00  0.00    +0.000 A 
ATOM     24  C   UNL     1       0.610   9.311  20.972  0.00  0.00    +0.000 A 
ENDBRANCH  13  15
ENDBRANCH   4  13
TORSDOF 3
ENDMDL
MODEL 6
REMARK VINA RESULT:      -8.5      5.040      6.926
REMARK  Name = 
REMARK  3 active torsions:
REMARK  status: ('A' for Active; 'I' for Inactive)
REMARK    1  A    between atoms: N_2  and  C_4
REMARK    2  A    between atoms: C_7  and  N_8
REMARK    3  A    between atoms: N_8  and  C_9
REMARK                            x       y       z     vdW  Elec       q    Type
REMARK                         _______ _______ _______ _____ _____    ______ ____
ROOT
ATOM      1  C   UNL     1       0.713  10.434  18.968  0.00  0.00    +0.000 A 
ATOM      2  C   UNL     1       1.382   9.752  17.946  0.00  0.00    +0.000 A 
ATOM      3  C   UNL     1       2.016   8.517  18.204  0.00  0.00    +0.000 A 
ATOM      4  C   UNL     1       2.061   7.877  19.477  0.00  0.00    +0.000 A 
ATOM      5  C   UNL     1       1.333   8.565  20.484  0.00  0.00    +0.000 A 
ATOM      6  N   UNL     1       1.134   8.229  21.768  0.00  0.00    +0.000 NA
ATOM      7  O   UNL     1       0.363   9.243  22.309  0.00  0.00    +0.000 OA
ATOM      8  N   UNL     1       0.073  10.224  21.379  0.00  0.00    +0.000 NA
ATOM      9  C   UNL     1       0.663   9.843  20.239  0.00  0.00    +0.000 A 
ENDROOT
BRANCH   1  11
ATOM     10  O   UNL     1       0.769  12.705  18.908  0.00  0.00    +0.000 OA
ATOM     11  N   UNL     1       0.078  11.695  18.735  0.00  0.00    +0.000 N 
ATOM     12  O   UNL     1      -1.127  11.679  18.457  0.00  0.00    +0.000 OA
ENDBRANCH   1  11
BRANCH   4  13
ATOM     13  N   UNL     1       2.752   6.664  19.667  0.00  0.00    +0.000 N 
ATOM     14  H   UNL     1       3.606   6.749  20.215  0.00  0.00    +0.000 HD
BRANCH  13  15
ATOM     15  C   UNL     1       2.772   5.549  18.786  0.00  0.00    +0.000 A 
ATOM     16  C   UNL     1       1.781   4.554  18.893  0.00  0.00    +0.000 A 
ATOM     17  C   UNL     1       1.837   3.393  18.137  0.00  0.00    +0.000 A 
ATOM     18  C   UNL     1       2.877   3.213  17.230  0.00  0.00    +0.000 A 
ATOM     19  C   UNL     1       3.847   4.208  17.044  0.00  0.00    +0.000 A 
ATOM     20  C   UNL     1       4.875   4.015  16.110  0.00  0.00    +0.000 A 
ATOM     21  C   UNL     1       5.850   4.988  15.905  0.00  0.00    +0.000 A 
ATOM     22  C   UNL     1       5.813   6.166  16.641  0.00  0.00    +0.000 A 
ATOM     23  C   UNL     1       4.807   6.369  17.588  0.00  0.00    +0.000 A 
ATOM     24  C   UNL     1       3.800   5.401  17.815  0.00  0.00    +0.000 A 
ENDBRANCH  13  15
ENDBRANCH   4  13
TORSDOF 3
ENDMDL
MODEL 7
REMARK VINA RESULT:      -8.4      4.755      6.902
REMARK  Name = 
REMARK  3 active torsions:
REMARK  status: ('A' for Active; 'I' for Inactive)
REMARK    1  A    between atoms: N_2  and  C_4
REMARK    2  A    between atoms: C_7  and  N_8
REMARK    3  A    between atoms: N_8  and  C_9
REMARK                            x       y       z     vdW  Elec       q    Type
REMARK                         _______ _______ _______ _____ _____    ______ ____
ROOT
ATOM      1  C   UNL     1       0.306   9.907  20.376  0.00  0.00    +0.000 A 
ATOM      2  C   UNL     1       0.391   8.972  21.413  0.00  0.00    +0.000 A 
ATOM      3  C   UNL     1       1.218   7.834  21.285  0.00  0.00    +0.000 A 
ATOM      4  C   UNL     1       1.995   7.519  20.133  0.00  0.00    +0.000 A 
ATOM      5  C   UNL     1       1.930   8.510  19.116  0.00  0.00    +0.000 A 
ATOM      6  N   UNL     1       2.559   8.555  17.932  0.00  0.00    +0.000 NA
ATOM      7  O   UNL     1       2.141   9.726  17.326  0.00  0.00    +0.000 OA
ATOM      8  N   UNL     1       1.247  10.426  18.115  0.00  0.00    +0.000 NA
ATOM      9  C   UNL     1       1.085   9.700  19.229  0.00  0.00    +0.000 A 
ENDROOT
BRANCH   1  11
ATOM     10  O   UNL     1      -1.577  11.045  19.807  0.00  0.00    +0.000 OA
ATOM     11  N   UNL     1      -0.538  11.059  20.476  0.00  0.00    +0.000 N 
ATOM     12  O   UNL     1      -0.125  12.005  21.156  0.00  0.00    +0.000 OA
ENDBRANCH   1  11
BRANCH   4  13
ATOM     13  N   UNL     1       2.764   6.341  20.062  0.00  0.00    +0.000 N 
ATOM     14  H   UNL     1       3.691   6.419  20.474  0.00  0.00    +0.000 HD
BRANCH  13  15
ATOM     15  C   UNL     1       2.690   5.336  19.058  0.00  0.00    +0.000 A 
ATOM     16  C   UNL     1       1.593   4.456  19.028  0.00  0.00    +0.000 A 
ATOM     17  C   UNL     1       1.545   3.389  18.144  0.00  0.00    +0.000 A 
ATOM     18  C   UNL     1       2.590   3.194  17.246  0.00  0.00    +0.000 A 
ATOM     19  C   UNL     1       3.671   4.086  17.198  0.00  0.00    +0.000 A 
ATOM     20  C   UNL     1       4.703   3.883  16.271  0.00  0.00    +0.000 A 
ATOM     21  C   UNL     1       5.787   4.754  16.201  0.00  0.00    +0.000 A 
ATOM     22  C   UNL     1       5.854   5.839  17.067  0.00  0.00    +0.000 A 
ATOM     23  C   UNL     1       4.845   6.047  18.009  0.00  0.00    +0.000 A 
ATOM     24  C   UNL     1       3.729   5.182  18.100  0.00  0.00    +0.000 A 
ENDBRANCH  13  15
ENDBRANCH   4  13
TORSDOF 3
ENDMDL
MODEL 8
REMARK VINA RESULT:      -8.1      4.026      6.262
REMARK  Name = 
REMARK  3 active torsions:
REMARK  status: ('A' for Active; 'I' for Inactive)
REMARK    1  A    between atoms: N_2  and  C_4
REMARK    2  A    between atoms: C_7  and  N_8
REMARK    3  A    between atoms: N_8  and  C_9
REMARK                            x       y       z     vdW  Elec       q    Type
REMARK                         _______ _______ _______ _____ _____    ______ ____
ROOT
ATOM      1  C   UNL     1       1.669   3.728  19.213  0.00  0.00    +0.000 A 
ATOM      2  C   UNL     1       1.026   4.241  20.345  0.00  0.00    +0.000 A 
ATOM      3  C   UNL     1       1.266   5.567  20.766  0.00  0.00    +0.000 A 
ATOM      4  C   UNL     1       2.164   6.472  20.130  0.00  0.00    +0.000 A 
ATOM      5  C   UNL     1       2.766   5.943  18.956  0.00  0.00    +0.000 A 
ATOM      6  N   UNL     1       3.619   6.528  18.102  0.00  0.00    +0.000 NA
ATOM      7  O   UNL     1       3.901   5.576  17.137  0.00  0.00    +0.000 OA
ATOM      8  N   UNL     1       3.235   4.387  17.374  0.00  0.00    +0.000 NA
ATOM      9  C   UNL     1       2.528   4.574  18.497  0.00  0.00    +0.000 A 
ENDROOT
BRANCH   1  11
ATOM     10  O   UNL     1       0.307   2.088  18.427  0.00  0.00    +0.000 OA
ATOM     11  N   UNL     1       1.455   2.382  18.777  0.00  0.00    +0.000 N 
ATOM     12  O   UNL     1       2.411   1.602  18.860  0.00  0.00    +0.000 OA
ENDBRANCH   1  11
BRANCH   4  13
ATOM     13  N   UNL     1       2.385   7.768  20.635  0.00  0.00    +0.000 N 
ATOM     14  H   UNL     1       3.271   7.883  21.123  0.00  0.00    +0.000 HD
BRANCH  13  15
ATOM     15  C   UNL     1       1.395   8.694  21.065  0.00  0.00    +0.000 A 
ATOM     16  C   UNL     1       1.143   8.860  22.440  0.00  0.00    +0.000 A 
ATOM     17  C   UNL     1       0.105   9.658  22.894  0.00  0.00    +0.000 A 
ATOM     18  C   UNL     1      -0.694  10.334  21.977  0.00  0.00    +0.000 A 
ATOM     19  C   UNL     1      -0.437  10.248  20.601  0.00  0.00    +0.000 A 
ATOM     20  C   UNL     1      -1.240  10.954  19.695  0.00  0.00    +0.000 A 
ATOM     21  C   UNL     1      -1.006  10.887  18.324  0.00  0.00    +0.000 A 
ATOM     22  C   UNL     1       0.036  10.104  17.842  0.00  0.00    +0.000 A 
ATOM     23  C   UNL     1       0.836   9.380  18.728  0.00  0.00    +0.000 A 
ATOM     24  C   UNL     1       0.625   9.432  20.125  0.00  0.00    +0.000 A 
ENDBRANCH  13  15
ENDBRANCH   4  13
TORSDOF 3
ENDMDL
MODEL 9
REMARK VINA RESULT:      -8.1      4.966      7.303
REMARK  Name = 
REMARK  3 active torsions:
REMARK  status: ('A' for Active; 'I' for Inactive)
REMARK    1  A    between atoms: N_2  and  C_4
REMARK    2  A    between atoms: C_7  and  N_8
REMARK    3  A    between atoms: N_8  and  C_9
REMARK                            x       y       z     vdW  Elec       q    Type
REMARK                         _______ _______ _______ _____ _____    ______ ____
ROOT
ATOM      1  C   UNL     1       0.747   9.310  21.419  0.00  0.00    +0.000 A 
ATOM      2  C   UNL     1       1.243   8.002  21.384  0.00  0.00    +0.000 A 
ATOM      3  C   UNL     1       1.808   7.483  20.198  0.00  0.00    +0.000 A 
ATOM      4  C   UNL     1       1.905   8.192  18.966  0.00  0.00    +0.000 A 
ATOM      5  C   UNL     1       1.440   9.532  19.044  0.00  0.00    +0.000 A 
ATOM      6  N   UNL     1       1.422  10.482  18.096  0.00  0.00    +0.000 NA
ATOM      7  O   UNL     1       0.862  11.599  18.690  0.00  0.00    +0.000 OA
ATOM      8  N   UNL     1       0.520  11.366  20.010  0.00  0.00    +0.000 NA
ATOM      9  C   UNL     1       0.856  10.094  20.263  0.00  0.00    +0.000 A 
ENDROOT
BRANCH   1  11
ATOM     10  O   UNL     1       0.766   9.674  23.663  0.00  0.00    +0.000 OA
ATOM     11  N   UNL     1       0.154   9.852  22.604  0.00  0.00    +0.000 N 
ATOM     12  O   UNL     1      -0.957  10.384  22.489  0.00  0.00    +0.000 OA
ENDBRANCH   1  11
BRANCH   4  13
ATOM     13  N   UNL     1       2.444   7.591  17.811  0.00  0.00    +0.000 N 
ATOM     14  H   UNL     1       1.797   7.537  17.026  0.00  0.00    +0.000 HD
BRANCH  13  15
ATOM     15  C   UNL     1       3.452   6.590  17.764  0.00  0.00    +0.000 A 
ATOM     16  C   UNL     1       4.804   6.964  17.647  0.00  0.00    +0.000 A 
ATOM     17  C   UNL     1       5.804   6.018  17.474  0.00  0.00    +0.000 A 
ATOM     18  C   UNL     1       5.473   4.667  17.442  0.00  0.00    +0.000 A 
ATOM     19  C   UNL     1       4.147   4.249  17.621  0.00  0.00    +0.000 A 
ATOM     20  C   UNL     1       3.839   2.881  17.606  0.00  0.00    +0.000 A 
ATOM     21  C   UNL     1       2.530   2.438  17.783  0.00  0.00    +0.000 A 
ATOM     22  C   UNL     1       1.510   3.363  17.969  0.00  0.00    +0.000 A 
ATOM     23  C   UNL     1       1.795   4.730  17.970  0.00  0.00    +0.000 A 
ATOM     24  C   UNL     1       3.115   5.209  17.798  0.00  0.00    +0.000 A 
ENDBRANCH  13  15
ENDBRANCH   4  13
TORSDOF 3
ENDMDL
