MODEL 1
REMARK VINA RESULT:      -7.9      0.000      0.000
REMARK  Name = 
REMARK  1 active torsions:
REMARK  status: ('A' for Active; 'I' for Inactive)
REMARK    1  A    between atoms: N_13  and  C_14
REMARK                            x       y       z     vdW  Elec       q    Type
REMARK                         _______ _______ _______ _____ _____    ______ ____
ROOT
ATOM      1  O   UNL     1       1.395   4.983  17.889  0.00  0.00    +0.000 OA
ATOM      2  C   UNL     1       2.541   5.406  17.931  0.00  0.00    +0.000 C 
ATOM      3  O   UNL     1       3.535   4.831  17.233  0.00  0.00    +0.000 OA
ATOM      4  C   UNL     1       4.793   5.514  17.460  0.00  0.00    +0.000 C 
ATOM      5  C   UNL     1       5.189   6.393  16.239  0.00  0.00    +0.000 C 
ATOM      6  N   UNL     1       6.051   5.643  15.283  0.00  0.00    +0.000 NA
ATOM      7  C   UNL     1       7.377   5.425  15.914  0.00  0.00    +0.000 C 
ATOM      8  C   UNL     1       7.246   4.819  17.327  0.00  0.00    +0.000 C 
ATOM      9  C   UNL     1       5.806   4.336  17.530  0.00  0.00    +0.000 C 
ATOM     10  C   UNL     1       5.526   3.425  16.287  0.00  0.00    +0.000 C 
ATOM     11  C   UNL     1       5.416   4.325  15.036  0.00  0.00    +0.000 C 
ATOM     12  C   UNL     1       4.476   6.410  18.668  0.00  0.00    +0.000 C 
ATOM     13  N   UNL     1       3.030   6.499  18.612  0.00  0.00    +0.000 N 
ENDROOT
BRANCH  13  14
ATOM     14  C   UNL     1       2.247   7.661  18.851  0.00  0.00    +0.000 A 
ATOM     15  C   UNL     1       2.027   8.550  17.775  0.00  0.00    +0.000 A 
ATOM     16  C   UNL     1       1.323   9.746  17.896  0.00  0.00    +0.000 A 
ATOM     17  C   UNL     1       0.829  10.029  19.157  0.00  0.00    +0.000 A 
ATOM     18  O   UNL     1       0.134  11.154  19.469  0.00  0.00    +0.000 OA
ATOM     19  C   UNL     1      -0.174  11.062  20.790  0.00  0.00    +0.000 A 
ATOM     20  C   UNL     1       0.313   9.888  21.304  0.00  0.00    +0.000 A 
ATOM     21 BR   UNL     1       0.141   9.305  23.071  0.00  0.00    +0.000 Br
ATOM     22  C   UNL     1       0.990   9.201  20.264  0.00  0.00    +0.000 A 
ATOM     23  C   UNL     1       1.717   7.989  20.114  0.00  0.00    +0.000 A 
ENDBRANCH  13  14
TORSDOF 1
ENDMDL
MODEL 2
REMARK VINA RESULT:      -7.4      4.710      7.721
REMARK  Name = 
REMARK  1 active torsions:
REMARK  status: ('A' for Active; 'I' for Inactive)
REMARK    1  A    between atoms: N_13  and  C_14
REMARK                            x       y       z     vdW  Elec       q    Type
REMARK                         _______ _______ _______ _____ _____    ______ ____
ROOT
ATOM      1  O   UNL     1       6.451   4.987  19.328  0.00  0.00    +0.000 OA
ATOM      2  C   UNL     1       5.491   4.352  18.916  0.00  0.00    +0.000 C 
ATOM      3  O   UNL     1       4.349   4.255  19.620  0.00  0.00    +0.000 OA
ATOM      4  C   UNL     1       3.372   3.446  18.919  0.00  0.00    +0.000 C 
ATOM      5  C   UNL     1       2.257   4.327  18.284  0.00  0.00    +0.000 C 
ATOM      6  N   UNL     1       1.099   4.488  19.206  0.00  0.00    +0.000 NA
ATOM      7  C   UNL     1       0.398   3.185  19.317  0.00  0.00    +0.000 C 
ATOM      8  C   UNL     1       1.374   2.037  19.650  0.00  0.00    +0.000 C 
ATOM      9  C   UNL     1       2.720   2.635  20.074  0.00  0.00    +0.000 C 
ATOM     10  C   UNL     1       2.349   3.664  21.196  0.00  0.00    +0.000 C 
ATOM     11  C   UNL     1       1.628   4.863  20.541  0.00  0.00    +0.000 C 
ATOM     12  C   UNL     1       4.213   2.788  17.813  0.00  0.00    +0.000 C 
ATOM     13  N   UNL     1       5.352   3.681  17.721  0.00  0.00    +0.000 N 
ENDROOT
BRANCH  13  14
ATOM     14  C   UNL     1       5.993   4.110  16.527  0.00  0.00    +0.000 A 
ATOM     15  C   UNL     1       6.903   5.189  16.609  0.00  0.00    +0.000 A 
ATOM     16  C   UNL     1       7.553   5.733  15.504  0.00  0.00    +0.000 A 
ATOM     17  C   UNL     1       7.262   5.146  14.286  0.00  0.00    +0.000 A 
ATOM     18  O   UNL     1       7.787   5.552  13.099  0.00  0.00    +0.000 OA
ATOM     19  C   UNL     1       7.264   4.733  12.148  0.00  0.00    +0.000 A 
ATOM     20  C   UNL     1       6.427   3.816  12.727  0.00  0.00    +0.000 A 
ATOM     21 BR   UNL     1       5.475   2.476  11.836  0.00  0.00    +0.000 Br
ATOM     22  C   UNL     1       6.391   4.073  14.122  0.00  0.00    +0.000 A 
ATOM     23  C   UNL     1       5.737   3.540  15.265  0.00  0.00    +0.000 A 
ENDBRANCH  13  14
TORSDOF 1
ENDMDL
MODEL 3
REMARK VINA RESULT:      -7.3      3.317      7.848
REMARK  Name = 
REMARK  1 active torsions:
REMARK  status: ('A' for Active; 'I' for Inactive)
REMARK    1  A    between atoms: N_13  and  C_14
REMARK                            x       y       z     vdW  Elec       q    Type
REMARK                         _______ _______ _______ _____ _____    ______ ____
ROOT
ATOM      1  O   UNL     1       1.758   9.253  22.743  0.00  0.00    +0.000 OA
ATOM      2  C   UNL     1       1.147   9.727  21.797  0.00  0.00    +0.000 C 
ATOM      3  O   UNL     1       0.785  11.022  21.764  0.00  0.00    +0.000 OA
ATOM      4  C   UNL     1       0.068  11.331  20.543  0.00  0.00    +0.000 C 
ATOM      5  C   UNL     1       0.960  12.126  19.547  0.00  0.00    +0.000 C 
ATOM      6  N   UNL     1       0.798  13.596  19.723  0.00  0.00    +0.000 NA
ATOM      7  C   UNL     1      -0.556  13.982  19.256  0.00  0.00    +0.000 C 
ATOM      8  C   UNL     1      -1.653  13.098  19.887  0.00  0.00    +0.000 C 
ATOM      9  C   UNL     1      -1.043  12.298  21.043  0.00  0.00    +0.000 C 
ATOM     10  C   UNL     1      -0.335  13.378  21.930  0.00  0.00    +0.000 C 
ATOM     11  C   UNL     1       0.908  13.895  21.172  0.00  0.00    +0.000 C 
ATOM     12  C   UNL     1      -0.239   9.937  19.971  0.00  0.00    +0.000 C 
ATOM     13  N   UNL     1       0.755   9.111  20.629  0.00  0.00    +0.000 N 
ENDROOT
BRANCH  13  14
ATOM     14  C   UNL     1       1.502   8.057  20.036  0.00  0.00    +0.000 A 
ATOM     15  C   UNL     1       2.169   8.317  18.817  0.00  0.00    +0.000 A 
ATOM     16  C   UNL     1       2.888   7.354  18.113  0.00  0.00    +0.000 A 
ATOM     17  C   UNL     1       2.923   6.094  18.682  0.00  0.00    +0.000 A 
ATOM     18  O   UNL     1       3.560   5.026  18.132  0.00  0.00    +0.000 OA
ATOM     19  C   UNL     1       3.367   3.983  18.983  0.00  0.00    +0.000 A 
ATOM     20  C   UNL     1       2.626   4.390  20.062  0.00  0.00    +0.000 A 
ATOM     21 BR   UNL     1       2.104   3.322  21.505  0.00  0.00    +0.000 Br
ATOM     22  C   UNL     1       2.305   5.760  19.884  0.00  0.00    +0.000 A 
ATOM     23  C   UNL     1       1.574   6.760  20.580  0.00  0.00    +0.000 A 
ENDBRANCH  13  14
TORSDOF 1
ENDMDL
MODEL 4
REMARK VINA RESULT:      -7.2      2.137      3.071
REMARK  Name = 
REMARK  1 active torsions:
REMARK  status: ('A' for Active; 'I' for Inactive)
REMARK    1  A    between atoms: N_13  and  C_14
REMARK                            x       y       z     vdW  Elec       q    Type
REMARK                         _______ _______ _______ _____ _____    ______ ____
ROOT
ATOM      1  O   UNL     1       3.229   8.599  17.166  0.00  0.00    +0.000 OA
ATOM      2  C   UNL     1       3.014   7.560  17.772  0.00  0.00    +0.000 C 
ATOM      3  O   UNL     1       3.763   6.459  17.582  0.00  0.00    +0.000 OA
ATOM      4  C   UNL     1       3.300   5.365  18.412  0.00  0.00    +0.000 C 
ATOM      5  C   UNL     1       4.250   5.130  19.622  0.00  0.00    +0.000 C 
ATOM      6  N   UNL     1       5.299   4.121  19.304  0.00  0.00    +0.000 NA
ATOM      7  C   UNL     1       4.653   2.789  19.190  0.00  0.00    +0.000 C 
ATOM      8  C   UNL     1       3.435   2.822  18.244  0.00  0.00    +0.000 C 
ATOM      9  C   UNL     1       3.446   4.141  17.464  0.00  0.00    +0.000 C 
ATOM     10  C   UNL     1       4.885   4.215  16.849  0.00  0.00    +0.000 C 
ATOM     11  C   UNL     1       5.891   4.479  17.991  0.00  0.00    +0.000 C 
ATOM     12  C   UNL     1       1.937   5.873  18.910  0.00  0.00    +0.000 C 
ATOM     13  N   UNL     1       2.064   7.308  18.737  0.00  0.00    +0.000 N 
ENDROOT
BRANCH  13  14
ATOM     14  C   UNL     1       1.607   8.309  19.637  0.00  0.00    +0.000 A 
ATOM     15  C   UNL     1       1.632   8.022  21.021  0.00  0.00    +0.000 A 
ATOM     16  C   UNL     1       1.164   8.899  21.997  0.00  0.00    +0.000 A 
ATOM     17  C   UNL     1       0.662  10.102  21.534  0.00  0.00    +0.000 A 
ATOM     18  O   UNL     1       0.147  11.072  22.335  0.00  0.00    +0.000 OA
ATOM     19  C   UNL     1      -0.234  12.087  21.514  0.00  0.00    +0.000 A 
ATOM     20  C   UNL     1       0.046  11.765  20.211  0.00  0.00    +0.000 A 
ATOM     21 BR   UNL     1      -0.287  12.837  18.717  0.00  0.00    +0.000 Br
ATOM     22  C   UNL     1       0.615  10.466  20.192  0.00  0.00    +0.000 A 
ATOM     23  C   UNL     1       1.095   9.551  19.216  0.00  0.00    +0.000 A 
ENDBRANCH  13  14
TORSDOF 1
ENDMDL
MODEL 5
REMARK VINA RESULT:      -7.2      2.171      3.293
REMARK  Name = 
REMARK  1 active torsions:
REMARK  status: ('A' for Active; 'I' for Inactive)
REMARK    1  A    between atoms: N_13  and  C_14
REMARK                            x       y       z     vdW  Elec       q    Type
REMARK                         _______ _______ _______ _____ _____    ______ ____
ROOT
ATOM      1  O   UNL     1       4.666   7.302  17.749  0.00  0.00    +0.000 OA
ATOM      2  C   UNL     1       3.719   6.572  18.001  0.00  0.00    +0.000 C 
ATOM      3  O   UNL     1       3.880   5.262  18.257  0.00  0.00    +0.000 OA
ATOM      4  C   UNL     1       2.607   4.621  18.517  0.00  0.00    +0.000 C 
ATOM      5  C   UNL     1       2.420   4.328  20.034  0.00  0.00    +0.000 C 
ATOM      6  N   UNL     1       2.900   2.964  20.391  0.00  0.00    +0.000 NA
ATOM      7  C   UNL     1       1.976   1.968  19.795  0.00  0.00    +0.000 C 
ATOM      8  C   UNL     1       1.737   2.232  18.294  0.00  0.00    +0.000 C 
ATOM      9  C   UNL     1       2.768   3.252  17.799  0.00  0.00    +0.000 C 
ATOM     10  C   UNL     1       4.146   2.661  18.255  0.00  0.00    +0.000 C 
ATOM     11  C   UNL     1       4.246   2.786  19.792  0.00  0.00    +0.000 C 
ATOM     12  C   UNL     1       1.596   5.685  18.061  0.00  0.00    +0.000 C 
ATOM     13  N   UNL     1       2.386   6.900  18.113  0.00  0.00    +0.000 N 
ENDROOT
BRANCH  13  14
ATOM     14  C   UNL     1       1.950   8.170  18.580  0.00  0.00    +0.000 A 
ATOM     15  C   UNL     1       2.093   9.282  17.720  0.00  0.00    +0.000 A 
ATOM     16  C   UNL     1       1.753  10.583  18.082  0.00  0.00    +0.000 A 
ATOM     17  C   UNL     1       1.248  10.740  19.360  0.00  0.00    +0.000 A 
ATOM     18  O   UNL     1       0.878  11.935  19.894  0.00  0.00    +0.000 OA
ATOM     19  C   UNL     1       0.438  11.674  21.153  0.00  0.00    +0.000 A 
ATOM     20  C   UNL     1       0.520  10.330  21.409  0.00  0.00    +0.000 A 
ATOM     21 BR   UNL     1       0.028   9.480  23.000  0.00  0.00    +0.000 Br
ATOM     22  C   UNL     1       1.063   9.697  20.263  0.00  0.00    +0.000 A 
ATOM     23  C   UNL     1       1.423   8.379  19.869  0.00  0.00    +0.000 A 
ENDBRANCH  13  14
TORSDOF 1
ENDMDL
MODEL 6
REMARK VINA RESULT:      -7.1      1.469      1.891
REMARK  Name = 
REMARK  1 active torsions:
REMARK  status: ('A' for Active; 'I' for Inactive)
REMARK    1  A    between atoms: N_13  and  C_14
REMARK                            x       y       z     vdW  Elec       q    Type
REMARK                         _______ _______ _______ _____ _____    ______ ____
ROOT
ATOM      1  O   UNL     1       1.348   4.826  17.793  0.00  0.00    +0.000 OA
ATOM      2  C   UNL     1       2.497   5.170  18.028  0.00  0.00    +0.000 C 
ATOM      3  O   UNL     1       3.515   4.853  17.209  0.00  0.00    +0.000 OA
ATOM      4  C   UNL     1       4.771   5.370  17.714  0.00  0.00    +0.000 C 
ATOM      5  C   UNL     1       5.237   6.616  16.908  0.00  0.00    +0.000 C 
ATOM      6  N   UNL     1       6.131   6.234  15.780  0.00  0.00    +0.000 NA
ATOM      7  C   UNL     1       7.422   5.763  16.341  0.00  0.00    +0.000 C 
ATOM      8  C   UNL     1       7.216   4.695  17.435  0.00  0.00    +0.000 C 
ATOM      9  C   UNL     1       5.761   4.215  17.395  0.00  0.00    +0.000 C 
ATOM     10  C   UNL     1       5.526   3.820  15.897  0.00  0.00    +0.000 C 
ATOM     11  C   UNL     1       5.489   5.112  15.051  0.00  0.00    +0.000 C 
ATOM     12  C   UNL     1       4.410   5.782  19.151  0.00  0.00    +0.000 C 
ATOM     13  N   UNL     1       2.970   5.930  19.075  0.00  0.00    +0.000 N 
ENDROOT
BRANCH  13  14
ATOM     14  C   UNL     1       2.194   6.952  19.686  0.00  0.00    +0.000 A 
ATOM     15  C   UNL     1       1.426   6.617  20.825  0.00  0.00    +0.000 A 
ATOM     16  C   UNL     1       0.587   7.515  21.479  0.00  0.00    +0.000 A 
ATOM     17  C   UNL     1       0.541   8.792  20.948  0.00  0.00    +0.000 A 
ATOM     18  O   UNL     1      -0.232   9.796  21.441  0.00  0.00    +0.000 OA
ATOM     19  C   UNL     1       0.002  10.881  20.657  0.00  0.00    +0.000 A 
ATOM     20  C   UNL     1       0.918  10.570  19.687  0.00  0.00    +0.000 A 
ATOM     21 BR   UNL     1       1.567  11.730  18.372  0.00  0.00    +0.000 Br
ATOM     22  C   UNL     1       1.275   9.206  19.840  0.00  0.00    +0.000 A 
ATOM     23  C   UNL     1       2.120   8.268  19.189  0.00  0.00    +0.000 A 
ENDBRANCH  13  14
TORSDOF 1
ENDMDL
MODEL 7
REMARK VINA RESULT:      -7.1      4.317      7.546
REMARK  Name = 
REMARK  1 active torsions:
REMARK  status: ('A' for Active; 'I' for Inactive)
REMARK    1  A    between atoms: N_13  and  C_14
REMARK                            x       y       z     vdW  Elec       q    Type
REMARK                         _______ _______ _______ _____ _____    ______ ____
ROOT
ATOM      1  O   UNL     1       3.758   6.980  17.115  0.00  0.00    +0.000 OA
ATOM      2  C   UNL     1       3.905   5.884  17.636  0.00  0.00    +0.000 C 
ATOM      3  O   UNL     1       2.974   5.353  18.447  0.00  0.00    +0.000 OA
ATOM      4  C   UNL     1       3.391   4.055  18.939  0.00  0.00    +0.000 C 
ATOM      5  C   UNL     1       2.628   2.905  18.221  0.00  0.00    +0.000 C 
ATOM      6  N   UNL     1       1.398   2.517  18.966  0.00  0.00    +0.000 NA
ATOM      7  C   UNL     1       1.801   1.845  20.226  0.00  0.00    +0.000 C 
ATOM      8  C   UNL     1       2.837   2.674  21.013  0.00  0.00    +0.000 C 
ATOM      9  C   UNL     1       2.903   4.084  20.415  0.00  0.00    +0.000 C 
ATOM     10  C   UNL     1       1.411   4.562  20.388  0.00  0.00    +0.000 C 
ATOM     11  C   UNL     1       0.660   3.761  19.302  0.00  0.00    +0.000 C 
ATOM     12  C   UNL     1       4.880   4.013  18.557  0.00  0.00    +0.000 C 
ATOM     13  N   UNL     1       4.951   4.999  17.495  0.00  0.00    +0.000 N 
ENDROOT
BRANCH  13  14
ATOM     14  C   UNL     1       5.699   4.889  16.292  0.00  0.00    +0.000 A 
ATOM     15  C   UNL     1       7.020   5.391  16.280  0.00  0.00    +0.000 A 
ATOM     16  C   UNL     1       7.834   5.390  15.149  0.00  0.00    +0.000 A 
ATOM     17  C   UNL     1       7.273   4.852  14.005  0.00  0.00    +0.000 A 
ATOM     18  O   UNL     1       7.908   4.779  12.805  0.00  0.00    +0.000 OA
ATOM     19  C   UNL     1       7.036   4.192  11.943  0.00  0.00    +0.000 A 
ATOM     20  C   UNL     1       5.868   3.887  12.592  0.00  0.00    +0.000 A 
ATOM     21 BR   UNL     1       4.369   3.066  11.836  0.00  0.00    +0.000 Br
ATOM     22  C   UNL     1       5.987   4.324  13.937  0.00  0.00    +0.000 A 
ATOM     23  C   UNL     1       5.176   4.343  15.104  0.00  0.00    +0.000 A 
ENDBRANCH  13  14
TORSDOF 1
ENDMDL
MODEL 8
REMARK VINA RESULT:      -7.0      1.522      1.800
REMARK  Name = 
REMARK  1 active torsions:
REMARK  status: ('A' for Active; 'I' for Inactive)
REMARK    1  A    between atoms: N_13  and  C_14
REMARK                            x       y       z     vdW  Elec       q    Type
REMARK                         _______ _______ _______ _____ _____    ______ ____
ROOT
ATOM      1  O   UNL     1       1.175   5.345  20.810  0.00  0.00    +0.000 OA
ATOM      2  C   UNL     1       2.144   5.604  20.112  0.00  0.00    +0.000 C 
ATOM      3  O   UNL     1       2.877   4.639  19.529  0.00  0.00    +0.000 OA
ATOM      4  C   UNL     1       3.970   5.205  18.764  0.00  0.00    +0.000 C 
ATOM      5  C   UNL     1       3.684   5.145  17.236  0.00  0.00    +0.000 C 
ATOM      6  N   UNL     1       4.228   3.900  16.627  0.00  0.00    +0.000 NA
ATOM      7  C   UNL     1       5.710   3.980  16.633  0.00  0.00    +0.000 C 
ATOM      8  C   UNL     1       6.259   4.349  18.027  0.00  0.00    +0.000 C 
ATOM      9  C   UNL     1       5.132   4.214  19.057  0.00  0.00    +0.000 C 
ATOM     10  C   UNL     1       4.565   2.773  18.822  0.00  0.00    +0.000 C 
ATOM     11  C   UNL     1       3.808   2.758  17.476  0.00  0.00    +0.000 C 
ATOM     12  C   UNL     1       3.987   6.668  19.236  0.00  0.00    +0.000 C 
ATOM     13  N   UNL     1       2.645   6.838  19.759  0.00  0.00    +0.000 N 
ENDROOT
BRANCH  13  14
ATOM     14  C   UNL     1       1.814   7.979  19.595  0.00  0.00    +0.000 A 
ATOM     15  C   UNL     1       1.712   8.550  18.306  0.00  0.00    +0.000 A 
ATOM     16  C   UNL     1       0.973   9.698  18.030  0.00  0.00    +0.000 A 
ATOM     17  C   UNL     1       0.320  10.268  19.108  0.00  0.00    +0.000 A 
ATOM     18  O   UNL     1      -0.433  11.397  19.034  0.00  0.00    +0.000 OA
ATOM     19  C   UNL     1      -0.901  11.630  20.288  0.00  0.00    +0.000 A 
ATOM     20  C   UNL     1      -0.458  10.655  21.143  0.00  0.00    +0.000 A 
ATOM     21 BR   UNL     1      -0.836  10.535  22.969  0.00  0.00    +0.000 Br
ATOM     22  C   UNL     1       0.358   9.761  20.403  0.00  0.00    +0.000 A 
ATOM     23  C   UNL     1       1.124   8.591  20.659  0.00  0.00    +0.000 A 
ENDBRANCH  13  14
TORSDOF 1
ENDMDL
MODEL 9
REMARK VINA RESULT:      -6.9      4.146      7.226
REMARK  Name = 
REMARK  1 active torsions:
REMARK  status: ('A' for Active; 'I' for Inactive)
REMARK    1  A    between atoms: N_13  and  C_14
REMARK                            x       y       z     vdW  Elec       q    Type
REMARK                         _______ _______ _______ _____ _____    ______ ____
ROOT
ATOM      1  O   UNL     1       2.906   6.963  17.308  0.00  0.00    +0.000 OA
ATOM      2  C   UNL     1       3.257   6.024  18.007  0.00  0.00    +0.000 C 
ATOM      3  O   UNL     1       2.381   5.328  18.753  0.00  0.00    +0.000 OA
ATOM      4  C   UNL     1       3.047   4.275  19.492  0.00  0.00    +0.000 C 
ATOM      5  C   UNL     1       2.774   2.879  18.861  0.00  0.00    +0.000 C 
ATOM      6  N   UNL     1       1.587   2.224  19.478  0.00  0.00    +0.000 NA
ATOM      7  C   UNL     1       1.930   1.841  20.870  0.00  0.00    +0.000 C 
ATOM      8  C   UNL     1       2.537   3.022  21.656  0.00  0.00    +0.000 C 
ATOM      9  C   UNL     1       2.315   4.314  20.863  0.00  0.00    +0.000 C 
ATOM     10  C   UNL     1       0.779   4.319  20.555  0.00  0.00    +0.000 C 
ATOM     11  C   UNL     1       0.486   3.218  19.512  0.00  0.00    +0.000 C 
ATOM     12  C   UNL     1       4.532   4.639  19.331  0.00  0.00    +0.000 C 
ATOM     13  N   UNL     1       4.515   5.481  18.151  0.00  0.00    +0.000 N 
ENDROOT
BRANCH  13  14
ATOM     14  C   UNL     1       5.466   5.472  17.095  0.00  0.00    +0.000 A 
ATOM     15  C   UNL     1       6.660   6.209  17.266  0.00  0.00    +0.000 A 
ATOM     16  C   UNL     1       7.643   6.320  16.286  0.00  0.00    +0.000 A 
ATOM     17  C   UNL     1       7.391   5.651  15.102  0.00  0.00    +0.000 A 
ATOM     18  O   UNL     1       8.225   5.658  14.028  0.00  0.00    +0.000 OA
ATOM     19  C   UNL     1       7.632   4.892  13.075  0.00  0.00    +0.000 A 
ATOM     20  C   UNL     1       6.442   4.399  13.543  0.00  0.00    +0.000 A 
ATOM     21 BR   UNL     1       5.264   3.291  12.606  0.00  0.00    +0.000 Br
ATOM     22  C   UNL     1       6.249   4.893  14.859  0.00  0.00    +0.000 A 
ATOM     23  C   UNL     1       5.259   4.801  15.875  0.00  0.00    +0.000 A 
ENDBRANCH  13  14
TORSDOF 1
ENDMDL
