MODEL 1
REMARK VINA RESULT:      -7.7      0.000      0.000
REMARK  Name = 
REMARK  5 active torsions:
REMARK  status: ('A' for Active; 'I' for Inactive)
REMARK    1  A    between atoms: C_1  and  O_2
REMARK    2  A    between atoms: O_2  and  C_3
REMARK    3  A    between atoms: C_6  and  C_7
REMARK    4  A    between atoms: C_8  and  O_9
REMARK    5  A    between atoms: C_10  and  C_11
REMARK                            x       y       z     vdW  Elec       q    Type
REMARK                         _______ _______ _______ _____ _____    ______ ____
ROOT
ATOM      1  C   UNL     1       2.820   3.844  17.962  0.00  0.00    +0.000 A 
ATOM      2  C   UNL     1       2.554   2.882  18.917  0.00  0.00    +0.000 A 
ATOM      3  C   UNL     1       2.154   3.509  20.109  0.00  0.00    +0.000 A 
ATOM      4  C   UNL     1       2.165   4.869  19.871  0.00  0.00    +0.000 A 
ATOM      5  C   UNL     1       1.881   6.014  20.676  0.00  0.00    +0.000 A 
ATOM      6  C   UNL     1       1.979   7.246  20.144  0.00  0.00    +0.000 A 
ATOM      7  C   UNL     1       2.362   7.443  18.758  0.00  0.00    +0.000 A 
ATOM      8  C   UNL     1       2.637   6.371  17.995  0.00  0.00    +0.000 A 
ATOM      9  N   UNL     1       2.550   5.083  18.542  0.00  0.00    +0.000 N 
ENDROOT
BRANCH   1  13
ATOM     10  C   UNL     1       6.135   4.263  14.374  0.00  0.00    +0.000 C 
ATOM     11  C   UNL     1       4.944   3.852  14.859  0.00  0.00    +0.000 C 
ATOM     12  C   UNL     1       4.527   4.108  16.239  0.00  0.00    +0.000 C 
ATOM     13  C   UNL     1       3.286   3.733  16.623  0.00  0.00    +0.000 C 
ATOM     14  C   UNL     1       5.481   4.727  17.150  0.00  0.00    +0.000 C 
ATOM     15  C   UNL     1       6.663   5.173  16.712  0.00  0.00    +0.000 C 
ATOM     16  C   UNL     1       7.060   5.024  15.290  0.00  0.00    +0.000 C 
ATOM     17  O   UNL     1       8.124   5.503  14.908  0.00  0.00    +0.000 OA
BRANCH  10  19
ATOM     18  C   UNL     1       5.841   3.231  12.223  0.00  0.00    +0.000 C 
ATOM     19  O   UNL     1       6.609   4.048  13.095  0.00  0.00    +0.000 OA
ENDBRANCH  10  19
ENDBRANCH   1  13
BRANCH   2  20
ATOM     20  O   UNL     1       2.694   1.560  18.720  0.00  0.00    +0.000 OA
ATOM     21  H   UNL     1       1.939   1.202  18.224  0.00  0.00    +0.000 HD
ENDBRANCH   2  20
BRANCH   3  22
ATOM     22  C   UNL     1       1.817   2.883  21.346  0.00  0.00    +0.000 C 
ATOM     23  N   UNL     1       1.508   2.361  22.338  0.00  0.00    +0.000 NA
ENDBRANCH   3  22
TORSDOF 4
ENDMDL
MODEL 2
REMARK VINA RESULT:      -7.5      3.642      6.901
REMARK  Name = 
REMARK  5 active torsions:
REMARK  status: ('A' for Active; 'I' for Inactive)
REMARK    1  A    between atoms: C_1  and  O_2
REMARK    2  A    between atoms: O_2  and  C_3
REMARK    3  A    between atoms: C_6  and  C_7
REMARK    4  A    between atoms: C_8  and  O_9
REMARK    5  A    between atoms: C_10  and  C_11
REMARK                            x       y       z     vdW  Elec       q    Type
REMARK                         _______ _______ _______ _____ _____    ______ ____
ROOT
ATOM      1  C   UNL     1       3.732   6.560  17.547  0.00  0.00    +0.000 A 
ATOM      2  C   UNL     1       5.112   6.506  17.527  0.00  0.00    +0.000 A 
ATOM      3  C   UNL     1       5.528   5.177  17.719  0.00  0.00    +0.000 A 
ATOM      4  C   UNL     1       4.386   4.413  17.845  0.00  0.00    +0.000 A 
ATOM      5  C   UNL     1       4.149   3.023  18.072  0.00  0.00    +0.000 A 
ATOM      6  C   UNL     1       2.886   2.563  18.143  0.00  0.00    +0.000 A 
ATOM      7  C   UNL     1       1.748   3.451  17.987  0.00  0.00    +0.000 A 
ATOM      8  C   UNL     1       1.962   4.761  17.779  0.00  0.00    +0.000 A 
ATOM      9  N   UNL     1       3.273   5.254  17.715  0.00  0.00    +0.000 N 
ENDROOT
BRANCH   1  13
ATOM     10  C   UNL     1       0.572   9.890  19.268  0.00  0.00    +0.000 C 
ATOM     11  C   UNL     1       1.339   9.364  18.291  0.00  0.00    +0.000 C 
ATOM     12  C   UNL     1       2.156   8.165  18.491  0.00  0.00    +0.000 C 
ATOM     13  C   UNL     1       2.834   7.657  17.438  0.00  0.00    +0.000 C 
ATOM     14  C   UNL     1       2.229   7.590  19.828  0.00  0.00    +0.000 C 
ATOM     15  C   UNL     1       1.469   8.060  20.823  0.00  0.00    +0.000 C 
ATOM     16  C   UNL     1       0.550   9.205  20.612  0.00  0.00    +0.000 C 
ATOM     17  O   UNL     1      -0.180   9.569  21.529  0.00  0.00    +0.000 OA
BRANCH  10  19
ATOM     18  C   UNL     1      -1.440  10.927  18.459  0.00  0.00    +0.000 C 
ATOM     19  O   UNL     1      -0.212  11.023  19.166  0.00  0.00    +0.000 OA
ENDBRANCH  10  19
ENDBRANCH   1  13
BRANCH   2  20
ATOM     20  O   UNL     1       5.910   7.577  17.378  0.00  0.00    +0.000 OA
ATOM     21  H   UNL     1       5.701   8.259  18.039  0.00  0.00    +0.000 HD
ENDBRANCH   2  20
BRANCH   3  22
ATOM     22  C   UNL     1       6.868   4.693  17.794  0.00  0.00    +0.000 C 
ATOM     23  N   UNL     1       7.968   4.321  17.826  0.00  0.00    +0.000 NA
ENDBRANCH   3  22
TORSDOF 4
ENDMDL
MODEL 3
REMARK VINA RESULT:      -7.4      3.678      6.553
REMARK  Name = 
REMARK  5 active torsions:
REMARK  status: ('A' for Active; 'I' for Inactive)
REMARK    1  A    between atoms: C_1  and  O_2
REMARK    2  A    between atoms: O_2  and  C_3
REMARK    3  A    between atoms: C_6  and  C_7
REMARK    4  A    between atoms: C_8  and  O_9
REMARK    5  A    between atoms: C_10  and  C_11
REMARK                            x       y       z     vdW  Elec       q    Type
REMARK                         _______ _______ _______ _____ _____    ______ ____
ROOT
ATOM      1  C   UNL     1       3.474   6.230  17.647  0.00  0.00    +0.000 A 
ATOM      2  C   UNL     1       2.920   4.980  17.842  0.00  0.00    +0.000 A 
ATOM      3  C   UNL     1       3.948   4.029  17.960  0.00  0.00    +0.000 A 
ATOM      4  C   UNL     1       5.142   4.712  17.848  0.00  0.00    +0.000 A 
ATOM      5  C   UNL     1       6.513   4.312  17.865  0.00  0.00    +0.000 A 
ATOM      6  C   UNL     1       7.481   5.238  17.733  0.00  0.00    +0.000 A 
ATOM      7  C   UNL     1       7.165   6.646  17.579  0.00  0.00    +0.000 A 
ATOM      8  C   UNL     1       5.877   7.031  17.555  0.00  0.00    +0.000 A 
ATOM      9  N   UNL     1       4.860   6.073  17.680  0.00  0.00    +0.000 N 
ENDROOT
BRANCH   1  13
ATOM     10  C   UNL     1       1.043  10.264  19.008  0.00  0.00    +0.000 C 
ATOM     11  C   UNL     1       1.750   9.538  18.116  0.00  0.00    +0.000 C 
ATOM     12  C   UNL     1       2.241   8.191  18.412  0.00  0.00    +0.000 C 
ATOM     13  C   UNL     1       2.873   7.501  17.436  0.00  0.00    +0.000 C 
ATOM     14  C   UNL     1       2.059   7.665  19.758  0.00  0.00    +0.000 C 
ATOM     15  C   UNL     1       1.344   8.335  20.669  0.00  0.00    +0.000 C 
ATOM     16  C   UNL     1       0.742   9.653  20.354  0.00  0.00    +0.000 C 
ATOM     17  O   UNL     1       0.039  10.210  21.191  0.00  0.00    +0.000 OA
BRANCH  10  19
ATOM     18  C   UNL     1       1.495  12.611  18.751  0.00  0.00    +0.000 C 
ATOM     19  O   UNL     1       0.560  11.543  18.815  0.00  0.00    +0.000 OA
ENDBRANCH  10  19
ENDBRANCH   1  13
BRANCH   2  20
ATOM     20  O   UNL     1       1.599   4.734  17.878  0.00  0.00    +0.000 OA
ATOM     21  H   UNL     1       1.391   4.060  18.547  0.00  0.00    +0.000 HD
ENDBRANCH   2  20
BRANCH   3  22
ATOM     22  C   UNL     1       3.807   2.621  18.140  0.00  0.00    +0.000 C 
ATOM     23  N   UNL     1       3.660   1.480  18.305  0.00  0.00    +0.000 NA
ENDBRANCH   3  22
TORSDOF 4
ENDMDL
MODEL 4
REMARK VINA RESULT:      -7.3      3.712      6.990
REMARK  Name = 
REMARK  5 active torsions:
REMARK  status: ('A' for Active; 'I' for Inactive)
REMARK    1  A    between atoms: C_1  and  O_2
REMARK    2  A    between atoms: O_2  and  C_3
REMARK    3  A    between atoms: C_6  and  C_7
REMARK    4  A    between atoms: C_8  and  O_9
REMARK    5  A    between atoms: C_10  and  C_11
REMARK                            x       y       z     vdW  Elec       q    Type
REMARK                         _______ _______ _______ _____ _____    ______ ____
ROOT
ATOM      1  C   UNL     1       3.087   5.666  18.943  0.00  0.00    +0.000 A 
ATOM      2  C   UNL     1       4.135   5.707  18.043  0.00  0.00    +0.000 A 
ATOM      3  C   UNL     1       4.208   4.482  17.358  0.00  0.00    +0.000 A 
ATOM      4  C   UNL     1       3.184   3.691  17.839  0.00  0.00    +0.000 A 
ATOM      5  C   UNL     1       2.752   2.359  17.561  0.00  0.00    +0.000 A 
ATOM      6  C   UNL     1       1.686   1.853  18.208  0.00  0.00    +0.000 A 
ATOM      7  C   UNL     1       0.953   2.636  19.185  0.00  0.00    +0.000 A 
ATOM      8  C   UNL     1       1.355   3.889  19.458  0.00  0.00    +0.000 A 
ATOM      9  N   UNL     1       2.472   4.423  18.799  0.00  0.00    +0.000 N 
ENDROOT
BRANCH   1  13
ATOM     10  C   UNL     1       0.923   9.842  20.326  0.00  0.00    +0.000 C 
ATOM     11  C   UNL     1       1.478   8.640  20.588  0.00  0.00    +0.000 C 
ATOM     12  C   UNL     1       2.013   7.776  19.534  0.00  0.00    +0.000 C 
ATOM     13  C   UNL     1       2.624   6.622  19.888  0.00  0.00    +0.000 C 
ATOM     14  C   UNL     1       1.835   8.179  18.146  0.00  0.00    +0.000 C 
ATOM     15  C   UNL     1       1.313   9.371  17.836  0.00  0.00    +0.000 C 
ATOM     16  C   UNL     1       0.867  10.311  18.893  0.00  0.00    +0.000 C 
ATOM     17  O   UNL     1       0.454  11.423  18.576  0.00  0.00    +0.000 OA
BRANCH  10  19
ATOM     18  C   UNL     1      -0.187  10.156  22.434  0.00  0.00    +0.000 C 
ATOM     19  O   UNL     1       0.382  10.708  21.256  0.00  0.00    +0.000 OA
ENDBRANCH  10  19
ENDBRANCH   1  13
BRANCH   2  20
ATOM     20  O   UNL     1       4.960   6.757  17.889  0.00  0.00    +0.000 OA
ATOM     21  H   UNL     1       5.008   7.282  18.706  0.00  0.00    +0.000 HD
ENDBRANCH   2  20
BRANCH   3  22
ATOM     22  C   UNL     1       5.161   4.100  16.368  0.00  0.00    +0.000 C 
ATOM     23  N   UNL     1       5.927   3.752  15.567  0.00  0.00    +0.000 NA
ENDBRANCH   3  22
TORSDOF 4
ENDMDL
MODEL 5
REMARK VINA RESULT:      -7.3      3.722      6.527
REMARK  Name = 
REMARK  5 active torsions:
REMARK  status: ('A' for Active; 'I' for Inactive)
REMARK    1  A    between atoms: C_1  and  O_2
REMARK    2  A    between atoms: O_2  and  C_3
REMARK    3  A    between atoms: C_6  and  C_7
REMARK    4  A    between atoms: C_8  and  O_9
REMARK    5  A    between atoms: C_10  and  C_11
REMARK                            x       y       z     vdW  Elec       q    Type
REMARK                         _______ _______ _______ _____ _____    ______ ____
ROOT
ATOM      1  C   UNL     1       3.499   6.162  18.224  0.00  0.00    +0.000 A 
ATOM      2  C   UNL     1       3.209   4.969  18.858  0.00  0.00    +0.000 A 
ATOM      3  C   UNL     1       4.395   4.236  19.034  0.00  0.00    +0.000 A 
ATOM      4  C   UNL     1       5.420   4.999  18.512  0.00  0.00    +0.000 A 
ATOM      5  C   UNL     1       6.828   4.800  18.376  0.00  0.00    +0.000 A 
ATOM      6  C   UNL     1       7.587   5.758  17.812  0.00  0.00    +0.000 A 
ATOM      7  C   UNL     1       7.007   7.002  17.339  0.00  0.00    +0.000 A 
ATOM      8  C   UNL     1       5.682   7.195  17.458  0.00  0.00    +0.000 A 
ATOM      9  N   UNL     1       4.880   6.200  18.033  0.00  0.00    +0.000 N 
ENDROOT
BRANCH   1  13
ATOM     10  C   UNL     1       0.461   9.955  18.869  0.00  0.00    +0.000 C 
ATOM     11  C   UNL     1       1.226   9.154  18.098  0.00  0.00    +0.000 C 
ATOM     12  C   UNL     1       1.979   8.024  18.643  0.00  0.00    +0.000 C 
ATOM     13  C   UNL     1       2.657   7.223  17.791  0.00  0.00    +0.000 C 
ATOM     14  C   UNL     1       1.994   7.830  20.087  0.00  0.00    +0.000 C 
ATOM     15  C   UNL     1       1.234   8.582  20.891  0.00  0.00    +0.000 C 
ATOM     16  C   UNL     1       0.375   9.661  20.346  0.00  0.00    +0.000 C 
ATOM     17  O   UNL     1      -0.358  10.289  21.104  0.00  0.00    +0.000 OA
BRANCH  10  19
ATOM     18  C   UNL     1      -1.523  10.816  17.820  0.00  0.00    +0.000 C 
ATOM     19  O   UNL     1      -0.265  11.048  18.438  0.00  0.00    +0.000 OA
ENDBRANCH  10  19
ENDBRANCH   1  13
BRANCH   2  20
ATOM     20  O   UNL     1       1.972   4.580  19.211  0.00  0.00    +0.000 OA
ATOM     21  H   UNL     1       1.499   5.301  19.661  0.00  0.00    +0.000 HD
ENDBRANCH   2  20
BRANCH   3  22
ATOM     22  C   UNL     1       4.534   2.942  19.617  0.00  0.00    +0.000 C 
ATOM     23  N   UNL     1       4.669   1.903  20.121  0.00  0.00    +0.000 NA
ENDBRANCH   3  22
TORSDOF 4
ENDMDL
MODEL 6
REMARK VINA RESULT:      -7.2      1.707      2.904
REMARK  Name = 
REMARK  5 active torsions:
REMARK  status: ('A' for Active; 'I' for Inactive)
REMARK    1  A    between atoms: C_1  and  O_2
REMARK    2  A    between atoms: O_2  and  C_3
REMARK    3  A    between atoms: C_6  and  C_7
REMARK    4  A    between atoms: C_8  and  O_9
REMARK    5  A    between atoms: C_10  and  C_11
REMARK                            x       y       z     vdW  Elec       q    Type
REMARK                         _______ _______ _______ _____ _____    ______ ____
ROOT
ATOM      1  C   UNL     1       3.005   4.902  18.072  0.00  0.00    +0.000 A 
ATOM      2  C   UNL     1       2.653   6.185  18.445  0.00  0.00    +0.000 A 
ATOM      3  C   UNL     1       2.273   6.188  19.798  0.00  0.00    +0.000 A 
ATOM      4  C   UNL     1       2.407   4.893  20.256  0.00  0.00    +0.000 A 
ATOM      5  C   UNL     1       2.163   4.261  21.513  0.00  0.00    +0.000 A 
ATOM      6  C   UNL     1       2.402   2.944  21.657  0.00  0.00    +0.000 A 
ATOM      7  C   UNL     1       2.912   2.144  20.559  0.00  0.00    +0.000 A 
ATOM      8  C   UNL     1       3.139   2.729  19.370  0.00  0.00    +0.000 A 
ATOM      9  N   UNL     1       2.883   4.098  19.206  0.00  0.00    +0.000 N 
ENDROOT
BRANCH   1  13
ATOM     10  C   UNL     1       6.148   4.202  14.376  0.00  0.00    +0.000 C 
ATOM     11  C   UNL     1       4.996   3.943  15.031  0.00  0.00    +0.000 C 
ATOM     12  C   UNL     1       4.627   4.628  16.270  0.00  0.00    +0.000 C 
ATOM     13  C   UNL     1       3.420   4.368  16.821  0.00  0.00    +0.000 C 
ATOM     14  C   UNL     1       5.591   5.537  16.877  0.00  0.00    +0.000 C 
ATOM     15  C   UNL     1       6.734   5.845  16.254  0.00  0.00    +0.000 C 
ATOM     16  C   UNL     1       7.077   5.246  14.941  0.00  0.00    +0.000 C 
ATOM     17  O   UNL     1       8.103   5.600  14.367  0.00  0.00    +0.000 OA
BRANCH  10  19
ATOM     18  C   UNL     1       5.602   3.225  12.248  0.00  0.00    +0.000 C 
ATOM     19  O   UNL     1       6.578   3.590  13.214  0.00  0.00    +0.000 OA
ENDBRANCH  10  19
ENDBRANCH   1  13
BRANCH   2  20
ATOM     20  O   UNL     1       2.653   7.241  17.615  0.00  0.00    +0.000 OA
ATOM     21  H   UNL     1       3.353   7.154  16.945  0.00  0.00    +0.000 HD
ENDBRANCH   2  20
BRANCH   3  22
ATOM     22  C   UNL     1       1.813   7.300  20.565  0.00  0.00    +0.000 C 
ATOM     23  N   UNL     1       1.429   8.224  21.156  0.00  0.00    +0.000 NA
ENDBRANCH   3  22
TORSDOF 4
ENDMDL
MODEL 7
REMARK VINA RESULT:      -6.9      0.921      1.041
REMARK  Name = 
REMARK  5 active torsions:
REMARK  status: ('A' for Active; 'I' for Inactive)
REMARK    1  A    between atoms: C_1  and  O_2
REMARK    2  A    between atoms: O_2  and  C_3
REMARK    3  A    between atoms: C_6  and  C_7
REMARK    4  A    between atoms: C_8  and  O_9
REMARK    5  A    between atoms: C_10  and  C_11
REMARK                            x       y       z     vdW  Elec       q    Type
REMARK                         _______ _______ _______ _____ _____    ______ ____
ROOT
ATOM      1  C   UNL     1       2.815   4.173  18.467  0.00  0.00    +0.000 A 
ATOM      2  C   UNL     1       2.492   3.132  19.316  0.00  0.00    +0.000 A 
ATOM      3  C   UNL     1       1.895   3.648  20.479  0.00  0.00    +0.000 A 
ATOM      4  C   UNL     1       1.844   5.019  20.330  0.00  0.00    +0.000 A 
ATOM      5  C   UNL     1       1.378   6.085  21.158  0.00  0.00    +0.000 A 
ATOM      6  C   UNL     1       1.459   7.355  20.721  0.00  0.00    +0.000 A 
ATOM      7  C   UNL     1       2.008   7.673  19.416  0.00  0.00    +0.000 A 
ATOM      8  C   UNL     1       2.455   6.676  18.632  0.00  0.00    +0.000 A 
ATOM      9  N   UNL     1       2.386   5.350  19.081  0.00  0.00    +0.000 N 
ENDROOT
BRANCH   1  13
ATOM     10  C   UNL     1       6.440   5.261  15.351  0.00  0.00    +0.000 C 
ATOM     11  C   UNL     1       5.285   4.640  15.671  0.00  0.00    +0.000 C 
ATOM     12  C   UNL     1       4.658   4.778  16.987  0.00  0.00    +0.000 C 
ATOM     13  C   UNL     1       3.461   4.186  17.201  0.00  0.00    +0.000 C 
ATOM     14  C   UNL     1       5.366   5.519  18.021  0.00  0.00    +0.000 C 
ATOM     15  C   UNL     1       6.500   6.173  17.746  0.00  0.00    +0.000 C 
ATOM     16  C   UNL     1       7.095   6.139  16.388  0.00  0.00    +0.000 C 
ATOM     17  O   UNL     1       8.101   6.802  16.154  0.00  0.00    +0.000 OA
BRANCH  10  19
ATOM     18  C   UNL     1       6.680   4.181  13.217  0.00  0.00    +0.000 C 
ATOM     19  O   UNL     1       7.104   5.171  14.143  0.00  0.00    +0.000 OA
ENDBRANCH  10  19
ENDBRANCH   1  13
BRANCH   2  20
ATOM     20  O   UNL     1       2.749   1.838  19.059  0.00  0.00    +0.000 OA
ATOM     21  H   UNL     1       1.928   1.355  18.862  0.00  0.00    +0.000 HD
ENDBRANCH   2  20
BRANCH   3  22
ATOM     22  C   UNL     1       1.442   2.916  21.616  0.00  0.00    +0.000 C 
ATOM     23  N   UNL     1       1.050   2.299  22.520  0.00  0.00    +0.000 NA
ENDBRANCH   3  22
TORSDOF 4
ENDMDL
MODEL 8
REMARK VINA RESULT:      -6.7      1.270      2.008
REMARK  Name = 
REMARK  5 active torsions:
REMARK  status: ('A' for Active; 'I' for Inactive)
REMARK    1  A    between atoms: C_1  and  O_2
REMARK    2  A    between atoms: O_2  and  C_3
REMARK    3  A    between atoms: C_6  and  C_7
REMARK    4  A    between atoms: C_8  and  O_9
REMARK    5  A    between atoms: C_10  and  C_11
REMARK                            x       y       z     vdW  Elec       q    Type
REMARK                         _______ _______ _______ _____ _____    ______ ____
ROOT
ATOM      1  C   UNL     1       4.734   4.753  18.940  0.00  0.00    +0.000 A 
ATOM      2  C   UNL     1       4.397   3.637  19.683  0.00  0.00    +0.000 A 
ATOM      3  C   UNL     1       3.184   3.873  20.352  0.00  0.00    +0.000 A 
ATOM      4  C   UNL     1       2.773   5.144  20.003  0.00  0.00    +0.000 A 
ATOM      5  C   UNL     1       1.651   5.951  20.361  0.00  0.00    +0.000 A 
ATOM      6  C   UNL     1       1.519   7.183  19.836  0.00  0.00    +0.000 A 
ATOM      7  C   UNL     1       2.493   7.715  18.901  0.00  0.00    +0.000 A 
ATOM      8  C   UNL     1       3.555   6.964  18.562  0.00  0.00    +0.000 A 
ATOM      9  N   UNL     1       3.710   5.684  19.113  0.00  0.00    +0.000 N 
ENDROOT
BRANCH   1  13
ATOM     10  C   UNL     1       7.242   4.888  14.731  0.00  0.00    +0.000 C 
ATOM     11  C   UNL     1       7.083   5.186  16.037  0.00  0.00    +0.000 C 
ATOM     12  C   UNL     1       5.911   4.760  16.804  0.00  0.00    +0.000 C 
ATOM     13  C   UNL     1       5.866   5.032  18.127  0.00  0.00    +0.000 C 
ATOM     14  C   UNL     1       4.825   4.091  16.099  0.00  0.00    +0.000 C 
ATOM     15  C   UNL     1       4.946   3.752  14.811  0.00  0.00    +0.000 C 
ATOM     16  C   UNL     1       6.173   4.075  14.044  0.00  0.00    +0.000 C 
ATOM     17  O   UNL     1       6.276   3.692  12.882  0.00  0.00    +0.000 OA
BRANCH  10  19
ATOM     18  C   UNL     1       8.024   5.831  12.663  0.00  0.00    +0.000 C 
ATOM     19  O   UNL     1       8.306   5.264  13.934  0.00  0.00    +0.000 OA
ENDBRANCH  10  19
ENDBRANCH   1  13
BRANCH   2  20
ATOM     20  O   UNL     1       5.146   2.525  19.760  0.00  0.00    +0.000 OA
ATOM     21  H   UNL     1       5.735   2.451  18.989  0.00  0.00    +0.000 HD
ENDBRANCH   2  20
BRANCH   3  22
ATOM     22  C   UNL     1       2.502   2.993  21.243  0.00  0.00    +0.000 C 
ATOM     23  N   UNL     1       1.921   2.303  21.976  0.00  0.00    +0.000 NA
ENDBRANCH   3  22
TORSDOF 4
ENDMDL
MODEL 9
REMARK VINA RESULT:      -6.5      4.054      7.285
REMARK  Name = 
REMARK  5 active torsions:
REMARK  status: ('A' for Active; 'I' for Inactive)
REMARK    1  A    between atoms: C_1  and  O_2
REMARK    2  A    between atoms: O_2  and  C_3
REMARK    3  A    between atoms: C_6  and  C_7
REMARK    4  A    between atoms: C_8  and  O_9
REMARK    5  A    between atoms: C_10  and  C_11
REMARK                            x       y       z     vdW  Elec       q    Type
REMARK                         _______ _______ _______ _____ _____    ______ ____
ROOT
ATOM      1  C   UNL     1       2.631   6.305  19.235  0.00  0.00    +0.000 A 
ATOM      2  C   UNL     1       3.549   6.290  18.203  0.00  0.00    +0.000 A 
ATOM      3  C   UNL     1       3.672   4.981  17.708  0.00  0.00    +0.000 A 
ATOM      4  C   UNL     1       2.808   4.192  18.440  0.00  0.00    +0.000 A 
ATOM      5  C   UNL     1       2.495   2.799  18.429  0.00  0.00    +0.000 A 
ATOM      6  C   UNL     1       1.578   2.313  19.286  0.00  0.00    +0.000 A 
ATOM      7  C   UNL     1       0.888   3.178  20.226  0.00  0.00    +0.000 A 
ATOM      8  C   UNL     1       1.181   4.489  20.247  0.00  0.00    +0.000 A 
ATOM      9  N   UNL     1       2.143   5.005  19.367  0.00  0.00    +0.000 N 
ENDROOT
BRANCH   1  13
ATOM     10  C   UNL     1       0.301  10.501  20.231  0.00  0.00    +0.000 C 
ATOM     11  C   UNL     1       0.962   9.384  20.602  0.00  0.00    +0.000 C 
ATOM     12  C   UNL     1       1.463   8.410  19.631  0.00  0.00    +0.000 C 
ATOM     13  C   UNL     1       2.184   7.358  20.080  0.00  0.00    +0.000 C 
ATOM     14  C   UNL     1       1.135   8.598  18.224  0.00  0.00    +0.000 C 
ATOM     15  C   UNL     1       0.504   9.701  17.805  0.00  0.00    +0.000 C 
ATOM     16  C   UNL     1       0.086  10.755  18.760  0.00  0.00    +0.000 C 
ATOM     17  O   UNL     1      -0.433  11.783  18.334  0.00  0.00    +0.000 OA
BRANCH  10  19
ATOM     18  C   UNL     1       0.582  12.595  21.378  0.00  0.00    +0.000 C 
ATOM     19  O   UNL     1      -0.218  11.459  21.081  0.00  0.00    +0.000 OA
ENDBRANCH  10  19
ENDBRANCH   1  13
BRANCH   2  20
ATOM     20  O   UNL     1       4.229   7.370  17.780  0.00  0.00    +0.000 OA
ATOM     21  H   UNL     1       3.655   8.154  17.759  0.00  0.00    +0.000 HD
ENDBRANCH   2  20
BRANCH   3  22
ATOM     22  C   UNL     1       4.533   4.528  16.665  0.00  0.00    +0.000 C 
ATOM     23  N   UNL     1       5.216   4.182  15.790  0.00  0.00    +0.000 NA
ENDBRANCH   3  22
TORSDOF 4
ENDMDL
