MODEL 1
REMARK VINA RESULT:      -7.8      0.000      0.000
REMARK  Name = 
REMARK  11 active torsions:
REMARK  status: ('A' for Active; 'I' for Inactive)
REMARK    1  A    between atoms: C_1  and  C_2
REMARK    2  A    between atoms: C_5  and  C_6
REMARK    3  A    between atoms: C_6  and  S_7
REMARK    4  A    between atoms: S_7  and  C_8
REMARK    5  A    between atoms: C_11  and  C_12
REMARK    6  A    between atoms: C_16  and  S_17
REMARK    7  A    between atoms: S_17  and  N_20
REMARK    8  A    between atoms: N_27  and  C_28
REMARK    9  A    between atoms: C_28  and  C_29
REMARK   10  A    between atoms: C_29  and  C_30
REMARK   11  A    between atoms: C_29  and  C_31
REMARK                            x       y       z     vdW  Elec       q    Type
REMARK                         _______ _______ _______ _____ _____    ______ ____
ROOT
ATOM      1  C   UNL     1       0.971   9.387  20.101  0.00  0.00    +0.000 A 
ATOM      2  N   UNL     1       1.186   9.035  21.343  0.00  0.00    +0.000 NA
ATOM      3  N   UNL     1       0.599   9.982  22.152  0.00  0.00    +0.000 NA
ATOM      4  C   UNL     1       0.011  10.906  21.403  0.00  0.00    +0.000 A 
ATOM      5  N   UNL     1       0.176  10.520  20.071  0.00  0.00    +0.000 N 
ENDROOT
BRANCH   4   6
ATOM      6  C   UNL     1      -0.606  12.139  21.956  0.00  0.00    +0.000 A 
ATOM      7  C   UNL     1       0.022  13.394  21.918  0.00  0.00    +0.000 A 
ATOM      8  C   UNL     1      -0.541  14.514  22.547  0.00  0.00    +0.000 A 
ATOM      9  C   UNL     1      -1.787  14.417  23.149  0.00  0.00    +0.000 A 
ATOM     10  C   UNL     1      -2.477  13.200  23.127  0.00  0.00    +0.000 A 
ATOM     11  C   UNL     1      -1.895  12.064  22.546  0.00  0.00    +0.000 A 
BRANCH  10  12
ATOM     12  S   UNL     1      -4.059  13.212  23.941  0.00  0.00    +0.000 S 
ATOM     13  O   UNL     1      -4.277  11.846  24.373  0.00  0.00    +0.000 OA
ATOM     14  O   UNL     1      -4.023  14.294  24.902  0.00  0.00    +0.000 OA
BRANCH  12  15
ATOM     15  N   UNL     1      -5.254  13.576  22.781  0.00  0.00    +0.000 NA
ATOM     16  C   UNL     1      -5.669  15.016  22.658  0.00  0.00    +0.000 C 
ATOM     17  C   UNL     1      -6.660  15.433  23.756  0.00  0.00    +0.000 C 
ATOM     18  O   UNL     1      -7.794  14.555  23.828  0.00  0.00    +0.000 OA
ATOM     19  C   UNL     1      -7.391  13.193  24.029  0.00  0.00    +0.000 C 
ATOM     20  C   UNL     1      -6.493  12.726  22.880  0.00  0.00    +0.000 C 
ENDBRANCH  12  15
ENDBRANCH  10  12
ENDBRANCH   4   6
BRANCH   1  21
ATOM     21  S   UNL     1       1.636   8.637  18.678  0.00  0.00    +0.000 S 
BRANCH  21  22
ATOM     22  C   UNL     1       2.811   7.404  19.319  0.00  0.00    +0.000 C 
BRANCH  22  27
ATOM     23  C   UNL     1       0.663   1.956  18.940  0.00  0.00    +0.000 C 
ATOM     24  C   UNL     1       1.219   3.347  19.032  0.00  0.00    +0.000 A 
ATOM     25  C   UNL     1       1.681   4.020  17.896  0.00  0.00    +0.000 A 
ATOM     26  C   UNL     1       2.186   5.325  17.992  0.00  0.00    +0.000 A 
ATOM     27  C   UNL     1       2.254   5.989  19.227  0.00  0.00    +0.000 A 
ATOM     28  C   UNL     1       1.786   5.311  20.363  0.00  0.00    +0.000 A 
ATOM     29  C   UNL     1       1.275   4.007  20.266  0.00  0.00    +0.000 A 
ENDBRANCH  22  27
ENDBRANCH  21  22
ENDBRANCH   1  21
BRANCH   5  30
ATOM     30  C   UNL     1      -0.455  11.069  18.886  0.00  0.00    +0.000 C 
BRANCH  30  31
ATOM     31  C   UNL     1      -1.876  10.587  18.546  0.00  0.00    +0.000 C 
ATOM     32  C   UNL     1      -2.913  11.706  18.591  0.00  0.00    +0.000 C 
ATOM     33  C   UNL     1      -1.865   9.926  17.164  0.00  0.00    +0.000 C 
ENDBRANCH  30  31
ENDBRANCH   5  30
TORSDOF 8
ENDMDL
MODEL 2
REMARK VINA RESULT:      -7.7      5.316     10.925
REMARK  Name = 
REMARK  11 active torsions:
REMARK  status: ('A' for Active; 'I' for Inactive)
REMARK    1  A    between atoms: C_1  and  C_2
REMARK    2  A    between atoms: C_5  and  C_6
REMARK    3  A    between atoms: C_6  and  S_7
REMARK    4  A    between atoms: S_7  and  C_8
REMARK    5  A    between atoms: C_11  and  C_12
REMARK    6  A    between atoms: C_16  and  S_17
REMARK    7  A    between atoms: S_17  and  N_20
REMARK    8  A    between atoms: N_27  and  C_28
REMARK    9  A    between atoms: C_28  and  C_29
REMARK   10  A    between atoms: C_29  and  C_30
REMARK   11  A    between atoms: C_29  and  C_31
REMARK                            x       y       z     vdW  Elec       q    Type
REMARK                         _______ _______ _______ _____ _____    ______ ____
ROOT
ATOM      1  C   UNL     1       0.989  10.914  19.087  0.00  0.00    +0.000 A 
ATOM      2  N   UNL     1       1.718  10.728  18.016  0.00  0.00    +0.000 NA
ATOM      3  N   UNL     1       2.117   9.410  18.006  0.00  0.00    +0.000 NA
ATOM      4  C   UNL     1       1.618   8.786  19.066  0.00  0.00    +0.000 A 
ATOM      5  N   UNL     1       0.830   9.712  19.754  0.00  0.00    +0.000 N 
ENDROOT
BRANCH   4   6
ATOM      6  C   UNL     1       1.958   7.387  19.429  0.00  0.00    +0.000 A 
ATOM      7  C   UNL     1       1.355   6.703  20.497  0.00  0.00    +0.000 A 
ATOM      8  C   UNL     1       1.780   5.422  20.879  0.00  0.00    +0.000 A 
ATOM      9  C   UNL     1       2.755   4.766  20.142  0.00  0.00    +0.000 A 
ATOM     10  C   UNL     1       3.312   5.387  19.020  0.00  0.00    +0.000 A 
ATOM     11  C   UNL     1       2.931   6.689  18.664  0.00  0.00    +0.000 A 
BRANCH  10  12
ATOM     12  S   UNL     1       4.557   4.440  18.170  0.00  0.00    +0.000 S 
ATOM     13  O   UNL     1       5.405   3.900  19.213  0.00  0.00    +0.000 OA
ATOM     14  O   UNL     1       3.857   3.561  17.258  0.00  0.00    +0.000 OA
BRANCH  12  15
ATOM     15  N   UNL     1       5.506   5.513  17.246  0.00  0.00    +0.000 NA
ATOM     16  C   UNL     1       5.617   5.231  15.773  0.00  0.00    +0.000 C 
ATOM     17  C   UNL     1       6.636   4.122  15.467  0.00  0.00    +0.000 C 
ATOM     18  O   UNL     1       7.919   4.383  16.058  0.00  0.00    +0.000 OA
ATOM     19  C   UNL     1       7.814   4.569  17.477  0.00  0.00    +0.000 C 
ATOM     20  C   UNL     1       6.888   5.746  17.795  0.00  0.00    +0.000 C 
ENDBRANCH  12  15
ENDBRANCH  10  12
ENDBRANCH   4   6
BRANCH   1  21
ATOM     21  S   UNL     1       0.372  12.432  19.674  0.00  0.00    +0.000 S 
BRANCH  21  22
ATOM     22  C   UNL     1      -1.334  12.506  19.043  0.00  0.00    +0.000 C 
BRANCH  22  27
ATOM     23  C   UNL     1      -5.223  13.078  23.400  0.00  0.00    +0.000 C 
ATOM     24  C   UNL     1      -4.224  12.939  22.288  0.00  0.00    +0.000 A 
ATOM     25  C   UNL     1      -2.852  13.061  22.528  0.00  0.00    +0.000 A 
ATOM     26  C   UNL     1      -1.927  12.916  21.483  0.00  0.00    +0.000 A 
ATOM     27  C   UNL     1      -2.348  12.655  20.170  0.00  0.00    +0.000 A 
ATOM     28  C   UNL     1      -3.726  12.529  19.936  0.00  0.00    +0.000 A 
ATOM     29  C   UNL     1      -4.652  12.669  20.982  0.00  0.00    +0.000 A 
ENDBRANCH  22  27
ENDBRANCH  21  22
ENDBRANCH   1  21
BRANCH   5  30
ATOM     30  C   UNL     1      -0.093   9.476  20.847  0.00  0.00    +0.000 C 
BRANCH  30  31
ATOM     31  C   UNL     1       0.313   9.976  22.245  0.00  0.00    +0.000 C 
ATOM     32  C   UNL     1      -0.805   9.844  23.275  0.00  0.00    +0.000 C 
ATOM     33  C   UNL     1       1.558   9.212  22.709  0.00  0.00    +0.000 C 
ENDBRANCH  30  31
ENDBRANCH   5  30
TORSDOF 8
ENDMDL
MODEL 3
REMARK VINA RESULT:      -7.6      4.278     10.232
REMARK  Name = 
REMARK  11 active torsions:
REMARK  status: ('A' for Active; 'I' for Inactive)
REMARK    1  A    between atoms: C_1  and  C_2
REMARK    2  A    between atoms: C_5  and  C_6
REMARK    3  A    between atoms: C_6  and  S_7
REMARK    4  A    between atoms: S_7  and  C_8
REMARK    5  A    between atoms: C_11  and  C_12
REMARK    6  A    between atoms: C_16  and  S_17
REMARK    7  A    between atoms: S_17  and  N_20
REMARK    8  A    between atoms: N_27  and  C_28
REMARK    9  A    between atoms: C_28  and  C_29
REMARK   10  A    between atoms: C_29  and  C_30
REMARK   11  A    between atoms: C_29  and  C_31
REMARK                            x       y       z     vdW  Elec       q    Type
REMARK                         _______ _______ _______ _____ _____    ______ ____
ROOT
ATOM      1  C   UNL     1      -0.943  11.374  21.871  0.00  0.00    +0.000 A 
ATOM      2  N   UNL     1      -0.121  10.903  22.774  0.00  0.00    +0.000 NA
ATOM      3  N   UNL     1       0.813  10.127  22.125  0.00  0.00    +0.000 NA
ATOM      4  C   UNL     1       0.571  10.136  20.820  0.00  0.00    +0.000 A 
ATOM      5  N   UNL     1      -0.520  10.984  20.612  0.00  0.00    +0.000 N 
ENDROOT
BRANCH   4   6
ATOM      6  C   UNL     1       1.312   9.300  19.843  0.00  0.00    +0.000 A 
ATOM      7  C   UNL     1       1.627   9.734  18.545  0.00  0.00    +0.000 A 
ATOM      8  C   UNL     1       2.231   8.878  17.613  0.00  0.00    +0.000 A 
ATOM      9  C   UNL     1       2.612   7.599  17.991  0.00  0.00    +0.000 A 
ATOM     10  C   UNL     1       2.390   7.168  19.303  0.00  0.00    +0.000 A 
ATOM     11  C   UNL     1       1.739   8.001  20.225  0.00  0.00    +0.000 A 
BRANCH  10  12
ATOM     12  S   UNL     1       2.920   5.505  19.654  0.00  0.00    +0.000 S 
ATOM     13  O   UNL     1       4.361   5.582  19.783  0.00  0.00    +0.000 OA
ATOM     14  O   UNL     1       2.103   5.034  20.753  0.00  0.00    +0.000 OA
BRANCH  12  15
ATOM     15  N   UNL     1       2.580   4.539  18.292  0.00  0.00    +0.000 NA
ATOM     16  C   UNL     1       1.272   3.797  18.289  0.00  0.00    +0.000 C 
ATOM     17  C   UNL     1       1.326   2.518  19.139  0.00  0.00    +0.000 C 
ATOM     18  O   UNL     1       2.422   1.665  18.772  0.00  0.00    +0.000 OA
ATOM     19  C   UNL     1       3.675   2.359  18.858  0.00  0.00    +0.000 C 
ATOM     20  C   UNL     1       3.679   3.575  17.928  0.00  0.00    +0.000 C 
ENDBRANCH  12  15
ENDBRANCH  10  12
ENDBRANCH   4   6
BRANCH   1  21
ATOM     21  S   UNL     1      -2.404  12.272  22.162  0.00  0.00    +0.000 S 
BRANCH  21  22
ATOM     22  C   UNL     1      -1.936  14.008  21.879  0.00  0.00    +0.000 C 
BRANCH  22  27
ATOM     23  C   UNL     1      -0.719  16.798  26.897  0.00  0.00    +0.000 C 
ATOM     24  C   UNL     1      -1.029  16.092  25.609  0.00  0.00    +0.000 A 
ATOM     25  C   UNL     1      -0.211  16.242  24.485  0.00  0.00    +0.000 A 
ATOM     26  C   UNL     1      -0.503  15.567  23.291  0.00  0.00    +0.000 A 
ATOM     27  C   UNL     1      -1.626  14.732  23.184  0.00  0.00    +0.000 A 
ATOM     28  C   UNL     1      -2.442  14.581  24.316  0.00  0.00    +0.000 A 
ATOM     29  C   UNL     1      -2.147  15.253  25.513  0.00  0.00    +0.000 A 
ENDBRANCH  22  27
ENDBRANCH  21  22
ENDBRANCH   1  21
BRANCH   5  30
ATOM     30  C   UNL     1      -1.040  11.496  19.358  0.00  0.00    +0.000 C 
BRANCH  30  31
ATOM     31  C   UNL     1      -2.198  10.727  18.698  0.00  0.00    +0.000 C 
ATOM     32  C   UNL     1      -3.428  11.596  18.451  0.00  0.00    +0.000 C 
ATOM     33  C   UNL     1      -1.707  10.111  17.384  0.00  0.00    +0.000 C 
ENDBRANCH  30  31
ENDBRANCH   5  30
TORSDOF 8
ENDMDL
MODEL 4
REMARK VINA RESULT:      -7.6      3.484      5.246
REMARK  Name = 
REMARK  11 active torsions:
REMARK  status: ('A' for Active; 'I' for Inactive)
REMARK    1  A    between atoms: C_1  and  C_2
REMARK    2  A    between atoms: C_5  and  C_6
REMARK    3  A    between atoms: C_6  and  S_7
REMARK    4  A    between atoms: S_7  and  C_8
REMARK    5  A    between atoms: C_11  and  C_12
REMARK    6  A    between atoms: C_16  and  S_17
REMARK    7  A    between atoms: S_17  and  N_20
REMARK    8  A    between atoms: N_27  and  C_28
REMARK    9  A    between atoms: C_28  and  C_29
REMARK   10  A    between atoms: C_29  and  C_30
REMARK   11  A    between atoms: C_29  and  C_31
REMARK                            x       y       z     vdW  Elec       q    Type
REMARK                         _______ _______ _______ _____ _____    ______ ____
ROOT
ATOM      1  C   UNL     1       1.516   8.566  19.651  0.00  0.00    +0.000 A 
ATOM      2  N   UNL     1       1.649   8.081  20.859  0.00  0.00    +0.000 NA
ATOM      3  N   UNL     1       1.063   8.969  21.733  0.00  0.00    +0.000 NA
ATOM      4  C   UNL     1       0.558   9.992  21.055  0.00  0.00    +0.000 A 
ATOM      5  N   UNL     1       0.776   9.734  19.700  0.00  0.00    +0.000 N 
ENDROOT
BRANCH   4   6
ATOM      6  C   UNL     1      -0.032  11.192  21.701  0.00  0.00    +0.000 A 
ATOM      7  C   UNL     1      -1.112  11.128  22.597  0.00  0.00    +0.000 A 
ATOM      8  C   UNL     1      -1.714  12.290  23.102  0.00  0.00    +0.000 A 
ATOM      9  C   UNL     1      -1.189  13.535  22.790  0.00  0.00    +0.000 A 
ATOM     10  C   UNL     1      -0.060  13.626  21.969  0.00  0.00    +0.000 A 
ATOM     11  C   UNL     1       0.514  12.472  21.418  0.00  0.00    +0.000 A 
BRANCH  10  12
ATOM     12  S   UNL     1       0.506  15.282  21.642  0.00  0.00    +0.000 S 
ATOM     13  O   UNL     1      -0.685  16.031  21.296  0.00  0.00    +0.000 OA
ATOM     14  O   UNL     1       1.323  15.672  22.772  0.00  0.00    +0.000 OA
BRANCH  12  15
ATOM     15  N   UNL     1       1.502  15.242  20.260  0.00  0.00    +0.000 NA
ATOM     16  C   UNL     1       2.983  15.381  20.481  0.00  0.00    +0.000 C 
ATOM     17  C   UNL     1       3.406  16.842  20.699  0.00  0.00    +0.000 C 
ATOM     18  O   UNL     1       2.941  17.706  19.650  0.00  0.00    +0.000 OA
ATOM     19  C   UNL     1       1.515  17.629  19.501  0.00  0.00    +0.000 C 
ATOM     20  C   UNL     1       1.088  16.196  19.170  0.00  0.00    +0.000 C 
ENDBRANCH  12  15
ENDBRANCH  10  12
ENDBRANCH   4   6
BRANCH   1  21
ATOM     21  S   UNL     1       2.222   7.930  18.192  0.00  0.00    +0.000 S 
BRANCH  21  22
ATOM     22  C   UNL     1       3.224   6.517  18.749  0.00  0.00    +0.000 C 
BRANCH  22  27
ATOM     23  C   UNL     1       6.150   4.056  14.296  0.00  0.00    +0.000 C 
ATOM     24  C   UNL     1       5.408   4.690  15.437  0.00  0.00    +0.000 A 
ATOM     25  C   UNL     1       5.375   6.079  15.596  0.00  0.00    +0.000 A 
ATOM     26  C   UNL     1       4.668   6.662  16.658  0.00  0.00    +0.000 A 
ATOM     27  C   UNL     1       3.983   5.872  17.595  0.00  0.00    +0.000 A 
ATOM     28  C   UNL     1       4.016   4.479  17.428  0.00  0.00    +0.000 A 
ATOM     29  C   UNL     1       4.719   3.896  16.362  0.00  0.00    +0.000 A 
ENDBRANCH  22  27
ENDBRANCH  21  22
ENDBRANCH   1  21
BRANCH   5  30
ATOM     30  C   UNL     1       0.234  10.431  18.549  0.00  0.00    +0.000 C 
BRANCH  30  31
ATOM     31  C   UNL     1      -1.297  10.558  18.447  0.00  0.00    +0.000 C 
ATOM     32  C   UNL     1      -1.781  12.004  18.500  0.00  0.00    +0.000 C 
ATOM     33  C   UNL     1      -1.772   9.884  17.155  0.00  0.00    +0.000 C 
ENDBRANCH  30  31
ENDBRANCH   5  30
TORSDOF 8
ENDMDL
MODEL 5
REMARK VINA RESULT:      -7.5      4.313     10.642
REMARK  Name = 
REMARK  11 active torsions:
REMARK  status: ('A' for Active; 'I' for Inactive)
REMARK    1  A    between atoms: C_1  and  C_2
REMARK    2  A    between atoms: C_5  and  C_6
REMARK    3  A    between atoms: C_6  and  S_7
REMARK    4  A    between atoms: S_7  and  C_8
REMARK    5  A    between atoms: C_11  and  C_12
REMARK    6  A    between atoms: C_16  and  S_17
REMARK    7  A    between atoms: S_17  and  N_20
REMARK    8  A    between atoms: N_27  and  C_28
REMARK    9  A    between atoms: C_28  and  C_29
REMARK   10  A    between atoms: C_29  and  C_30
REMARK   11  A    between atoms: C_29  and  C_31
REMARK                            x       y       z     vdW  Elec       q    Type
REMARK                         _______ _______ _______ _____ _____    ______ ____
ROOT
ATOM      1  C   UNL     1      -0.842  11.198  22.527  0.00  0.00    +0.000 A 
ATOM      2  N   UNL     1      -0.193  10.413  23.348  0.00  0.00    +0.000 NA
ATOM      3  N   UNL     1       0.639   9.616  22.594  0.00  0.00    +0.000 NA
ATOM      4  C   UNL     1       0.508   9.925  21.310  0.00  0.00    +0.000 A 
ATOM      5  N   UNL     1      -0.395  10.988  21.234  0.00  0.00    +0.000 N 
ENDROOT
BRANCH   4   6
ATOM      6  C   UNL     1       1.166   9.170  20.213  0.00  0.00    +0.000 A 
ATOM      7  C   UNL     1       1.335   9.688  18.919  0.00  0.00    +0.000 A 
ATOM      8  C   UNL     1       1.861   8.906  17.881  0.00  0.00    +0.000 A 
ATOM      9  C   UNL     1       2.311   7.620  18.140  0.00  0.00    +0.000 A 
ATOM     10  C   UNL     1       2.235   7.107  19.439  0.00  0.00    +0.000 A 
ATOM     11  C   UNL     1       1.661   7.864  20.471  0.00  0.00    +0.000 A 
BRANCH  10  12
ATOM     12  S   UNL     1       2.837   5.444  19.633  0.00  0.00    +0.000 S 
ATOM     13  O   UNL     1       4.268   5.528  19.421  0.00  0.00    +0.000 OA
ATOM     14  O   UNL     1       2.304   4.952  20.886  0.00  0.00    +0.000 OA
BRANCH  12  15
ATOM     15  N   UNL     1       2.191   4.492  18.375  0.00  0.00    +0.000 NA
ATOM     16  C   UNL     1       1.256   3.382  18.769  0.00  0.00    +0.000 C 
ATOM     17  C   UNL     1       2.007   2.140  19.275  0.00  0.00    +0.000 C 
ATOM     18  O   UNL     1       3.005   1.690  18.346  0.00  0.00    +0.000 OA
ATOM     19  C   UNL     1       3.942   2.733  18.040  0.00  0.00    +0.000 C 
ATOM     20  C   UNL     1       3.222   3.937  17.427  0.00  0.00    +0.000 C 
ENDBRANCH  12  15
ENDBRANCH  10  12
ENDBRANCH   4   6
BRANCH   1  21
ATOM     21  S   UNL     1      -2.140  12.284  22.935  0.00  0.00    +0.000 S 
BRANCH  21  22
ATOM     22  C   UNL     1      -1.306  13.807  23.481  0.00  0.00    +0.000 C 
BRANCH  22  27
ATOM     23  C   UNL     1      -5.096  18.241  24.128  0.00  0.00    +0.000 C 
ATOM     24  C   UNL     1      -4.125  17.107  23.971  0.00  0.00    +0.000 A 
ATOM     25  C   UNL     1      -4.154  16.004  24.830  0.00  0.00    +0.000 A 
ATOM     26  C   UNL     1      -3.251  14.943  24.665  0.00  0.00    +0.000 A 
ATOM     27  C   UNL     1      -2.287  14.962  23.646  0.00  0.00    +0.000 A 
ATOM     28  C   UNL     1      -2.264  16.069  22.784  0.00  0.00    +0.000 A 
ATOM     29  C   UNL     1      -3.172  17.128  22.945  0.00  0.00    +0.000 A 
ENDBRANCH  22  27
ENDBRANCH  21  22
ENDBRANCH   1  21
BRANCH   5  30
ATOM     30  C   UNL     1      -0.713  11.824  20.092  0.00  0.00    +0.000 C 
BRANCH  30  31
ATOM     31  C   UNL     1       0.038  13.160  19.954  0.00  0.00    +0.000 C 
ATOM     32  C   UNL     1       1.013  13.179  18.779  0.00  0.00    +0.000 C 
ATOM     33  C   UNL     1      -0.980  14.297  19.820  0.00  0.00    +0.000 C 
ENDBRANCH  30  31
ENDBRANCH   5  30
TORSDOF 8
ENDMDL
MODEL 6
REMARK VINA RESULT:      -7.5      1.453      2.072
REMARK  Name = 
REMARK  11 active torsions:
REMARK  status: ('A' for Active; 'I' for Inactive)
REMARK    1  A    between atoms: C_1  and  C_2
REMARK    2  A    between atoms: C_5  and  C_6
REMARK    3  A    between atoms: C_6  and  S_7
REMARK    4  A    between atoms: S_7  and  C_8
REMARK    5  A    between atoms: C_11  and  C_12
REMARK    6  A    between atoms: C_16  and  S_17
REMARK    7  A    between atoms: S_17  and  N_20
REMARK    8  A    between atoms: N_27  and  C_28
REMARK    9  A    between atoms: C_28  and  C_29
REMARK   10  A    between atoms: C_29  and  C_30
REMARK   11  A    between atoms: C_29  and  C_31
REMARK                            x       y       z     vdW  Elec       q    Type
REMARK                         _______ _______ _______ _____ _____    ______ ____
ROOT
ATOM      1  C   UNL     1       0.986   9.588  19.814  0.00  0.00    +0.000 A 
ATOM      2  N   UNL     1       1.202   9.399  21.090  0.00  0.00    +0.000 NA
ATOM      3  N   UNL     1       0.465  10.333  21.783  0.00  0.00    +0.000 NA
ATOM      4  C   UNL     1      -0.215  11.086  20.927  0.00  0.00    +0.000 A 
ATOM      5  N   UNL     1       0.047  10.593  19.648  0.00  0.00    +0.000 N 
ENDROOT
BRANCH   4   6
ATOM      6  C   UNL     1      -1.011  12.273  21.334  0.00  0.00    +0.000 A 
ATOM      7  C   UNL     1      -0.693  13.582  20.938  0.00  0.00    +0.000 A 
ATOM      8  C   UNL     1      -1.402  14.688  21.429  0.00  0.00    +0.000 A 
ATOM      9  C   UNL     1      -2.498  14.497  22.256  0.00  0.00    +0.000 A 
ATOM     10  C   UNL     1      -2.892  13.199  22.598  0.00  0.00    +0.000 A 
ATOM     11  C   UNL     1      -2.156  12.091  22.153  0.00  0.00    +0.000 A 
BRANCH  10  12
ATOM     12  S   UNL     1      -4.309  13.096  23.671  0.00  0.00    +0.000 S 
ATOM     13  O   UNL     1      -4.085  11.920  24.488  0.00  0.00    +0.000 OA
ATOM     14  O   UNL     1      -4.463  14.400  24.280  0.00  0.00    +0.000 OA
BRANCH  12  15
ATOM     15  N   UNL     1      -5.684  12.795  22.711  0.00  0.00    +0.000 NA
ATOM     16  C   UNL     1      -6.038  13.831  21.680  0.00  0.00    +0.000 C 
ATOM     17  C   UNL     1      -6.772  15.035  22.291  0.00  0.00    +0.000 C 
ATOM     18  O   UNL     1      -7.916  14.640  23.064  0.00  0.00    +0.000 OA
ATOM     19  C   UNL     1      -7.555  13.714  24.099  0.00  0.00    +0.000 C 
ATOM     20  C   UNL     1      -6.925  12.456  23.496  0.00  0.00    +0.000 C 
ENDBRANCH  12  15
ENDBRANCH  10  12
ENDBRANCH   4   6
BRANCH   1  21
ATOM     21  S   UNL     1       1.795   8.796  18.493  0.00  0.00    +0.000 S 
BRANCH  21  22
ATOM     22  C   UNL     1       2.350   7.207  19.186  0.00  0.00    +0.000 C 
BRANCH  22  27
ATOM     23  C   UNL     1       5.681   4.200  15.403  0.00  0.00    +0.000 C 
ATOM     24  C   UNL     1       4.822   4.964  16.368  0.00  0.00    +0.000 A 
ATOM     25  C   UNL     1       3.937   4.307  17.227  0.00  0.00    +0.000 A 
ATOM     26  C   UNL     1       3.148   5.030  18.135  0.00  0.00    +0.000 A 
ATOM     27  C   UNL     1       3.216   6.431  18.200  0.00  0.00    +0.000 A 
ATOM     28  C   UNL     1       4.109   7.086  17.338  0.00  0.00    +0.000 A 
ATOM     29  C   UNL     1       4.902   6.361  16.434  0.00  0.00    +0.000 A 
ENDBRANCH  22  27
ENDBRANCH  21  22
ENDBRANCH   1  21
BRANCH   5  30
ATOM     30  C   UNL     1      -0.610  10.926  18.398  0.00  0.00    +0.000 C 
BRANCH  30  31
ATOM     31  C   UNL     1      -2.058  10.444  18.203  0.00  0.00    +0.000 C 
ATOM     32  C   UNL     1      -3.089  11.553  18.395  0.00  0.00    +0.000 C 
ATOM     33  C   UNL     1      -2.197   9.822  16.810  0.00  0.00    +0.000 C 
ENDBRANCH  30  31
ENDBRANCH   5  30
TORSDOF 8
ENDMDL
MODEL 7
REMARK VINA RESULT:      -7.4      1.647      2.373
REMARK  Name = 
REMARK  11 active torsions:
REMARK  status: ('A' for Active; 'I' for Inactive)
REMARK    1  A    between atoms: C_1  and  C_2
REMARK    2  A    between atoms: C_5  and  C_6
REMARK    3  A    between atoms: C_6  and  S_7
REMARK    4  A    between atoms: S_7  and  C_8
REMARK    5  A    between atoms: C_11  and  C_12
REMARK    6  A    between atoms: C_16  and  S_17
REMARK    7  A    between atoms: S_17  and  N_20
REMARK    8  A    between atoms: N_27  and  C_28
REMARK    9  A    between atoms: C_28  and  C_29
REMARK   10  A    between atoms: C_29  and  C_30
REMARK   11  A    between atoms: C_29  and  C_31
REMARK                            x       y       z     vdW  Elec       q    Type
REMARK                         _______ _______ _______ _____ _____    ______ ____
ROOT
ATOM      1  C   UNL     1       1.071   9.252  19.878  0.00  0.00    +0.000 A 
ATOM      2  N   UNL     1       0.948   8.731  21.072  0.00  0.00    +0.000 NA
ATOM      3  N   UNL     1       0.374   9.682  21.886  0.00  0.00    +0.000 NA
ATOM      4  C   UNL     1       0.132  10.782  21.183  0.00  0.00    +0.000 A 
ATOM      5  N   UNL     1       0.512  10.518  19.865  0.00  0.00    +0.000 N 
ENDROOT
BRANCH   4   6
ATOM      6  C   UNL     1      -0.365  12.046  21.784  0.00  0.00    +0.000 A 
ATOM      7  C   UNL     1       0.331  13.262  21.698  0.00  0.00    +0.000 A 
ATOM      8  C   UNL     1      -0.114  14.409  22.371  0.00  0.00    +0.000 A 
ATOM      9  C   UNL     1      -1.312  14.384  23.068  0.00  0.00    +0.000 A 
ATOM     10  C   UNL     1      -2.072  13.209  23.099  0.00  0.00    +0.000 A 
ATOM     11  C   UNL     1      -1.607  12.044  22.473  0.00  0.00    +0.000 A 
BRANCH  10  12
ATOM     12  S   UNL     1      -3.583  13.310  24.035  0.00  0.00    +0.000 S 
ATOM     13  O   UNL     1      -4.049  11.943  24.157  0.00  0.00    +0.000 OA
ATOM     14  O   UNL     1      -3.289  14.098  25.214  0.00  0.00    +0.000 OA
BRANCH  12  15
ATOM     15  N   UNL     1      -4.731  14.159  23.106  0.00  0.00    +0.000 NA
ATOM     16  C   UNL     1      -6.169  14.051  23.531  0.00  0.00    +0.000 C 
ATOM     17  C   UNL     1      -6.818  12.737  23.067  0.00  0.00    +0.000 C 
ATOM     18  O   UNL     1      -6.663  12.522  21.655  0.00  0.00    +0.000 OA
ATOM     19  C   UNL     1      -5.280  12.545  21.271  0.00  0.00    +0.000 C 
ATOM     20  C   UNL     1      -4.648  13.894  21.625  0.00  0.00    +0.000 C 
ENDBRANCH  12  15
ENDBRANCH  10  12
ENDBRANCH   4   6
BRANCH   1  21
ATOM     21  S   UNL     1       1.887   8.544  18.514  0.00  0.00    +0.000 S 
BRANCH  21  22
ATOM     22  C   UNL     1       2.497   6.943  19.129  0.00  0.00    +0.000 C 
BRANCH  22  27
ATOM     23  C   UNL     1       5.855   4.238  15.147  0.00  0.00    +0.000 C 
ATOM     24  C   UNL     1       5.003   4.934  16.168  0.00  0.00    +0.000 A 
ATOM     25  C   UNL     1       5.071   6.319  16.346  0.00  0.00    +0.000 A 
ATOM     26  C   UNL     1       4.260   6.962  17.294  0.00  0.00    +0.000 A 
ATOM     27  C   UNL     1       3.368   6.235  18.097  0.00  0.00    +0.000 A 
ATOM     28  C   UNL     1       3.301   4.845  17.912  0.00  0.00    +0.000 A 
ATOM     29  C   UNL     1       4.108   4.204  16.960  0.00  0.00    +0.000 A 
ENDBRANCH  22  27
ENDBRANCH  21  22
ENDBRANCH   1  21
BRANCH   5  30
ATOM     30  C   UNL     1       0.257  11.309  18.676  0.00  0.00    +0.000 C 
BRANCH  30  31
ATOM     31  C   UNL     1      -1.169  11.290  18.098  0.00  0.00    +0.000 C 
ATOM     32  C   UNL     1      -1.843   9.926  18.215  0.00  0.00    +0.000 C 
ATOM     33  C   UNL     1      -2.009  12.363  18.799  0.00  0.00    +0.000 C 
ENDBRANCH  30  31
ENDBRANCH   5  30
TORSDOF 8
ENDMDL
MODEL 8
REMARK VINA RESULT:      -7.3      3.436      4.480
REMARK  Name = 
REMARK  11 active torsions:
REMARK  status: ('A' for Active; 'I' for Inactive)
REMARK    1  A    between atoms: C_1  and  C_2
REMARK    2  A    between atoms: C_5  and  C_6
REMARK    3  A    between atoms: C_6  and  S_7
REMARK    4  A    between atoms: S_7  and  C_8
REMARK    5  A    between atoms: C_11  and  C_12
REMARK    6  A    between atoms: C_16  and  S_17
REMARK    7  A    between atoms: S_17  and  N_20
REMARK    8  A    between atoms: N_27  and  C_28
REMARK    9  A    between atoms: C_28  and  C_29
REMARK   10  A    between atoms: C_29  and  C_30
REMARK   11  A    between atoms: C_29  and  C_31
REMARK                            x       y       z     vdW  Elec       q    Type
REMARK                         _______ _______ _______ _____ _____    ______ ____
ROOT
ATOM      1  C   UNL     1       1.468   8.551  19.685  0.00  0.00    +0.000 A 
ATOM      2  N   UNL     1       1.520   7.999  20.871  0.00  0.00    +0.000 NA
ATOM      3  N   UNL     1       0.903   8.854  21.756  0.00  0.00    +0.000 NA
ATOM      4  C   UNL     1       0.460   9.923  21.108  0.00  0.00    +0.000 A 
ATOM      5  N   UNL     1       0.751   9.733  19.755  0.00  0.00    +0.000 N 
ENDROOT
BRANCH   4   6
ATOM      6  C   UNL     1      -0.141  11.101  21.784  0.00  0.00    +0.000 A 
ATOM      7  C   UNL     1      -1.203  11.002  22.697  0.00  0.00    +0.000 A 
ATOM      8  C   UNL     1      -1.818  12.144  23.232  0.00  0.00    +0.000 A 
ATOM      9  C   UNL     1      -1.322  13.404  22.932  0.00  0.00    +0.000 A 
ATOM     10  C   UNL     1      -0.210  13.530  22.093  0.00  0.00    +0.000 A 
ATOM     11  C   UNL     1       0.376  12.395  21.512  0.00  0.00    +0.000 A 
BRANCH  10  12
ATOM     12  S   UNL     1       0.319  15.201  21.782  0.00  0.00    +0.000 S 
ATOM     13  O   UNL     1       0.977  15.626  23.001  0.00  0.00    +0.000 OA
ATOM     14  O   UNL     1       1.034  15.182  20.524  0.00  0.00    +0.000 OA
BRANCH  12  15
ATOM     15  N   UNL     1      -1.068  16.172  21.587  0.00  0.00    +0.000 NA
ATOM     16  C   UNL     1      -1.731  16.152  20.237  0.00  0.00    +0.000 C 
ATOM     17  C   UNL     1      -1.006  17.045  19.218  0.00  0.00    +0.000 C 
ATOM     18  O   UNL     1      -0.823  18.385  19.702  0.00  0.00    +0.000 OA
ATOM     19  C   UNL     1      -0.115  18.398  20.950  0.00  0.00    +0.000 C 
ATOM     20  C   UNL     1      -0.885  17.605  22.010  0.00  0.00    +0.000 C 
ENDBRANCH  12  15
ENDBRANCH  10  12
ENDBRANCH   4   6
BRANCH   1  21
ATOM     21  S   UNL     1       2.243   7.977  18.236  0.00  0.00    +0.000 S 
BRANCH  21  22
ATOM     22  C   UNL     1       3.131   6.476  18.758  0.00  0.00    +0.000 C 
BRANCH  22  27
ATOM     23  C   UNL     1       6.130   4.045  14.338  0.00  0.00    +0.000 C 
ATOM     24  C   UNL     1       5.356   4.662  15.467  0.00  0.00    +0.000 A 
ATOM     25  C   UNL     1       4.667   3.870  16.390  0.00  0.00    +0.000 A 
ATOM     26  C   UNL     1       3.958   4.456  17.450  0.00  0.00    +0.000 A 
ATOM     27  C   UNL     1       3.910   5.850  17.607  0.00  0.00    +0.000 A 
ATOM     28  C   UNL     1       4.607   6.640  16.680  0.00  0.00    +0.000 A 
ATOM     29  C   UNL     1       5.321   6.053  15.624  0.00  0.00    +0.000 A 
ENDBRANCH  22  27
ENDBRANCH  21  22
ENDBRANCH   1  21
BRANCH   5  30
ATOM     30  C   UNL     1       0.292  10.502  18.615  0.00  0.00    +0.000 C 
BRANCH  30  31
ATOM     31  C   UNL     1      -1.227  10.667  18.430  0.00  0.00    +0.000 C 
ATOM     32  C   UNL     1      -1.663  12.127  18.336  0.00  0.00    +0.000 C 
ATOM     33  C   UNL     1      -1.667   9.898  17.179  0.00  0.00    +0.000 C 
ENDBRANCH  30  31
ENDBRANCH   5  30
TORSDOF 8
ENDMDL
MODEL 9
REMARK VINA RESULT:      -7.2      4.455     10.751
REMARK  Name = 
REMARK  11 active torsions:
REMARK  status: ('A' for Active; 'I' for Inactive)
REMARK    1  A    between atoms: C_1  and  C_2
REMARK    2  A    between atoms: C_5  and  C_6
REMARK    3  A    between atoms: C_6  and  S_7
REMARK    4  A    between atoms: S_7  and  C_8
REMARK    5  A    between atoms: C_11  and  C_12
REMARK    6  A    between atoms: C_16  and  S_17
REMARK    7  A    between atoms: S_17  and  N_20
REMARK    8  A    between atoms: N_27  and  C_28
REMARK    9  A    between atoms: C_28  and  C_29
REMARK   10  A    between atoms: C_29  and  C_30
REMARK   11  A    between atoms: C_29  and  C_31
REMARK                            x       y       z     vdW  Elec       q    Type
REMARK                         _______ _______ _______ _____ _____    ______ ____
ROOT
ATOM      1  C   UNL     1      -0.698  10.875  22.620  0.00  0.00    +0.000 A 
ATOM      2  N   UNL     1       0.058  10.225  23.468  0.00  0.00    +0.000 NA
ATOM      3  N   UNL     1       0.878   9.391  22.742  0.00  0.00    +0.000 NA
ATOM      4  C   UNL     1       0.632   9.542  21.447  0.00  0.00    +0.000 A 
ATOM      5  N   UNL     1      -0.337  10.540  21.327  0.00  0.00    +0.000 N 
ENDROOT
BRANCH   4   6
ATOM      6  C   UNL     1       1.251   8.700  20.391  0.00  0.00    +0.000 A 
ATOM      7  C   UNL     1       1.662   9.208  19.148  0.00  0.00    +0.000 A 
ATOM      8  C   UNL     1       2.141   8.365  18.135  0.00  0.00    +0.000 A 
ATOM      9  C   UNL     1       2.302   7.009  18.379  0.00  0.00    +0.000 A 
ATOM     10  C   UNL     1       1.982   6.488  19.637  0.00  0.00    +0.000 A 
ATOM     11  C   UNL     1       1.453   7.317  20.637  0.00  0.00    +0.000 A 
BRANCH  10  12
ATOM     12  S   UNL     1       2.227   4.734  19.814  0.00  0.00    +0.000 S 
ATOM     13  O   UNL     1       2.779   4.557  21.142  0.00  0.00    +0.000 OA
ATOM     14  O   UNL     1       0.979   4.102  19.443  0.00  0.00    +0.000 OA
BRANCH  12  15
ATOM     15  N   UNL     1       3.419   4.246  18.698  0.00  0.00    +0.000 NA
ATOM     16  C   UNL     1       2.947   3.517  17.470  0.00  0.00    +0.000 C 
ATOM     17  C   UNL     1       2.653   2.035  17.749  0.00  0.00    +0.000 C 
ATOM     18  O   UNL     1       3.761   1.367  18.372  0.00  0.00    +0.000 OA
ATOM     19  C   UNL     1       4.151   2.022  19.588  0.00  0.00    +0.000 C 
ATOM     20  C   UNL     1       4.558   3.472  19.307  0.00  0.00    +0.000 C 
ENDBRANCH  12  15
ENDBRANCH  10  12
ENDBRANCH   4   6
BRANCH   1  21
ATOM     21  S   UNL     1      -2.026  11.931  23.009  0.00  0.00    +0.000 S 
BRANCH  21  22
ATOM     22  C   UNL     1      -1.286  13.593  23.063  0.00  0.00    +0.000 C 
BRANCH  22  27
ATOM     23  C   UNL     1      -5.054  17.584  25.141  0.00  0.00    +0.000 C 
ATOM     24  C   UNL     1      -4.084  16.566  24.615  0.00  0.00    +0.000 A 
ATOM     25  C   UNL     1      -3.249  15.848  25.476  0.00  0.00    +0.000 A 
ATOM     26  C   UNL     1      -2.356  14.889  24.974  0.00  0.00    +0.000 A 
ATOM     27  C   UNL     1      -2.265  14.632  23.597  0.00  0.00    +0.000 A 
ATOM     28  C   UNL     1      -3.108  15.353  22.737  0.00  0.00    +0.000 A 
ATOM     29  C   UNL     1      -4.006  16.308  23.240  0.00  0.00    +0.000 A 
ENDBRANCH  22  27
ENDBRANCH  21  22
ENDBRANCH   1  21
BRANCH   5  30
ATOM     30  C   UNL     1      -0.791  11.220  20.129  0.00  0.00    +0.000 C 
BRANCH  30  31
ATOM     31  C   UNL     1       0.220  12.116  19.390  0.00  0.00    +0.000 C 
ATOM     32  C   UNL     1      -0.432  13.015  18.343  0.00  0.00    +0.000 C 
ATOM     33  C   UNL     1       0.985  12.960  20.414  0.00  0.00    +0.000 C 
ENDBRANCH  30  31
ENDBRANCH   5  30
TORSDOF 8
ENDMDL
