MODEL 1
REMARK VINA RESULT:      -7.1      0.000      0.000
REMARK  Name = 
REMARK  5 active torsions:
REMARK  status: ('A' for Active; 'I' for Inactive)
REMARK    1  A    between atoms: C_1  and  N_2
REMARK    2  A    between atoms: N_5  and  C_6
REMARK    3  A    between atoms: C_6  and  C_7
REMARK    4  A    between atoms: N_17  and  C_18
REMARK    5  A    between atoms: C_18  and  C_19
REMARK                            x       y       z     vdW  Elec       q    Type
REMARK                         _______ _______ _______ _____ _____    ______ ____
ROOT
ATOM      1  C   UNL     1       5.640   3.408  14.891  0.00  0.00    +0.000 C 
ATOM      2  N   UNL     1       5.743   4.095  16.167  0.00  0.00    +0.000 N 
ATOM      3  C   UNL     1       6.903   4.801  16.503  0.00  0.00    +0.000 A 
ATOM      4  O   UNL     1       7.885   4.850  15.759  0.00  0.00    +0.000 OA
ATOM      5  N   UNL     1       6.913   5.449  17.749  0.00  0.00    +0.000 N 
ATOM      6  C   UNL     1       5.962   5.271  18.752  0.00  0.00    +0.000 A 
ATOM      7  O   UNL     1       6.145   5.570  19.926  0.00  0.00    +0.000 OA
ATOM      8  C   UNL     1       4.757   4.697  18.263  0.00  0.00    +0.000 A 
ATOM      9  C   UNL     1       4.676   4.113  17.035  0.00  0.00    +0.000 A 
ATOM     10  N   UNL     1       3.454   3.565  16.820  0.00  0.00    +0.000 NA
ATOM     11  C   UNL     1       2.759   3.855  17.905  0.00  0.00    +0.000 A 
ATOM     12 BR   UNL     1       1.007   3.230  18.140  0.00  0.00    +0.000 Br
ATOM     13  N   UNL     1       3.494   4.612  18.786  0.00  0.00    +0.000 N 
ENDROOT
BRANCH   5  14
ATOM     14  C   UNL     1       7.954   6.437  18.001  0.00  0.00    +0.000 C 
BRANCH  14  15
ATOM     15  C   UNL     1       7.691   7.893  17.635  0.00  0.00    +0.000 C 
ATOM     16  N   UNL     1       8.420   8.865  18.244  0.00  0.00    +0.000 N 
ATOM     17  O   UNL     1       6.842   8.204  16.800  0.00  0.00    +0.000 OA
ATOM     18  H   UNL     1       9.146   8.683  18.919  0.00  0.00    +0.000 HD
ATOM     19  H   UNL     1       8.252   9.819  17.947  0.00  0.00    +0.000 HD
ENDBRANCH  14  15
ENDBRANCH   5  14
BRANCH  13  20
ATOM     20  C   UNL     1       3.053   5.157  20.064  0.00  0.00    +0.000 C 
BRANCH  20  21
ATOM     21  C   UNL     1       2.329   6.484  19.940  0.00  0.00    +0.000 A 
ATOM     22  C   UNL     1       1.578   6.999  21.007  0.00  0.00    +0.000 A 
ATOM     23  C   UNL     1       1.016   8.277  20.940  0.00  0.00    +0.000 A 
ATOM     24  C   UNL     1       1.192   9.060  19.802  0.00  0.00    +0.000 A 
ATOM     25  C   UNL     1       1.903   8.551  18.719  0.00  0.00    +0.000 A 
ATOM     26  C   UNL     1       2.459   7.268  18.784  0.00  0.00    +0.000 A 
ENDBRANCH  20  21
ENDBRANCH  13  20
TORSDOF 4
ENDMDL
MODEL 2
REMARK VINA RESULT:      -6.9      0.232      1.009
REMARK  Name = 
REMARK  5 active torsions:
REMARK  status: ('A' for Active; 'I' for Inactive)
REMARK    1  A    between atoms: C_1  and  N_2
REMARK    2  A    between atoms: N_5  and  C_6
REMARK    3  A    between atoms: C_6  and  C_7
REMARK    4  A    between atoms: N_17  and  C_18
REMARK    5  A    between atoms: C_18  and  C_19
REMARK                            x       y       z     vdW  Elec       q    Type
REMARK                         _______ _______ _______ _____ _____    ______ ____
ROOT
ATOM      1  C   UNL     1       5.594   3.520  14.885  0.00  0.00    +0.000 C 
ATOM      2  N   UNL     1       5.686   4.143  16.195  0.00  0.00    +0.000 N 
ATOM      3  C   UNL     1       6.877   4.745  16.613  0.00  0.00    +0.000 A 
ATOM      4  O   UNL     1       7.893   4.753  15.916  0.00  0.00    +0.000 OA
ATOM      5  N   UNL     1       6.875   5.337  17.887  0.00  0.00    +0.000 N 
ATOM      6  C   UNL     1       5.867   5.188  18.838  0.00  0.00    +0.000 A 
ATOM      7  O   UNL     1       6.016   5.422  20.031  0.00  0.00    +0.000 OA
ATOM      8  C   UNL     1       4.648   4.727  18.271  0.00  0.00    +0.000 A 
ATOM      9  C   UNL     1       4.583   4.203  17.015  0.00  0.00    +0.000 A 
ATOM     10  N   UNL     1       3.336   3.757  16.722  0.00  0.00    +0.000 NA
ATOM     11  C   UNL     1       2.614   4.051  17.787  0.00  0.00    +0.000 A 
ATOM     12 BR   UNL     1       0.812   3.550  17.917  0.00  0.00    +0.000 Br
ATOM     13  N   UNL     1       3.360   4.714  18.733  0.00  0.00    +0.000 N 
ENDROOT
BRANCH   5  14
ATOM     14  C   UNL     1       7.972   6.233  18.230  0.00  0.00    +0.000 C 
BRANCH  14  15
ATOM     15  C   UNL     1       7.847   7.714  17.889  0.00  0.00    +0.000 C 
ATOM     16  N   UNL     1       8.615   8.610  18.562  0.00  0.00    +0.000 N 
ATOM     17  O   UNL     1       7.073   8.110  17.018  0.00  0.00    +0.000 OA
ATOM     18  H   UNL     1       9.285   8.354  19.271  0.00  0.00    +0.000 HD
ATOM     19  H   UNL     1       8.540   9.580  18.282  0.00  0.00    +0.000 HD
ENDBRANCH  14  15
ENDBRANCH   5  14
BRANCH  13  20
ATOM     20  C   UNL     1       2.899   5.235  20.015  0.00  0.00    +0.000 C 
BRANCH  20  21
ATOM     21  C   UNL     1       2.340   6.643  19.931  0.00  0.00    +0.000 A 
ATOM     22  C   UNL     1       2.494   7.413  18.768  0.00  0.00    +0.000 A 
ATOM     23  C   UNL     1       1.872   8.658  18.643  0.00  0.00    +0.000 A 
ATOM     24  C   UNL     1       1.088   9.157  19.681  0.00  0.00    +0.000 A 
ATOM     25  C   UNL     1       0.955   8.424  20.857  0.00  0.00    +0.000 A 
ATOM     26  C   UNL     1       1.584   7.179  20.984  0.00  0.00    +0.000 A 
ENDBRANCH  20  21
ENDBRANCH  13  20
TORSDOF 4
ENDMDL
MODEL 3
REMARK VINA RESULT:      -6.7      4.147      6.922
REMARK  Name = 
REMARK  5 active torsions:
REMARK  status: ('A' for Active; 'I' for Inactive)
REMARK    1  A    between atoms: C_1  and  N_2
REMARK    2  A    between atoms: N_5  and  C_6
REMARK    3  A    between atoms: C_6  and  C_7
REMARK    4  A    between atoms: N_17  and  C_18
REMARK    5  A    between atoms: C_18  and  C_19
REMARK                            x       y       z     vdW  Elec       q    Type
REMARK                         _______ _______ _______ _____ _____    ______ ____
ROOT
ATOM      1  C   UNL     1       0.746  10.820  17.633  0.00  0.00    +0.000 C 
ATOM      2  N   UNL     1       0.941   9.858  18.705  0.00  0.00    +0.000 N 
ATOM      3  C   UNL     1       0.181   9.935  19.877  0.00  0.00    +0.000 A 
ATOM      4  O   UNL     1      -0.654  10.822  20.064  0.00  0.00    +0.000 OA
ATOM      5  N   UNL     1       0.423   8.957  20.855  0.00  0.00    +0.000 N 
ATOM      6  C   UNL     1       1.489   8.060  20.843  0.00  0.00    +0.000 A 
ATOM      7  O   UNL     1       1.876   7.449  21.833  0.00  0.00    +0.000 OA
ATOM      8  C   UNL     1       2.082   7.935  19.558  0.00  0.00    +0.000 A 
ATOM      9  C   UNL     1       1.831   8.821  18.553  0.00  0.00    +0.000 A 
ATOM     10  N   UNL     1       2.569   8.547  17.449  0.00  0.00    +0.000 NA
ATOM     11  C   UNL     1       3.245   7.456  17.757  0.00  0.00    +0.000 A 
ATOM     12 BR   UNL     1       4.499   6.715  16.575  0.00  0.00    +0.000 Br
ATOM     13  N   UNL     1       2.922   7.002  19.013  0.00  0.00    +0.000 N 
ENDROOT
BRANCH   5  14
ATOM     14  C   UNL     1      -0.544   8.813  21.935  0.00  0.00    +0.000 C 
BRANCH  14  15
ATOM     15  C   UNL     1      -0.466   9.763  23.125  0.00  0.00    +0.000 C 
ATOM     16  N   UNL     1      -1.336  10.805  23.191  0.00  0.00    +0.000 N 
ATOM     17  O   UNL     1       0.359   9.603  24.024  0.00  0.00    +0.000 OA
ATOM     18  H   UNL     1      -2.052  10.984  22.504  0.00  0.00    +0.000 HD
ATOM     19  H   UNL     1      -1.287  11.392  24.015  0.00  0.00    +0.000 HD
ENDBRANCH  14  15
ENDBRANCH   5  14
BRANCH  13  20
ATOM     20  C   UNL     1       3.429   5.807  19.678  0.00  0.00    +0.000 C 
BRANCH  20  21
ATOM     21  C   UNL     1       2.583   4.572  19.432  0.00  0.00    +0.000 A 
ATOM     22  C   UNL     1       1.508   4.253  20.276  0.00  0.00    +0.000 A 
ATOM     23  C   UNL     1       0.652   3.189  19.979  0.00  0.00    +0.000 A 
ATOM     24  C   UNL     1       0.858   2.423  18.834  0.00  0.00    +0.000 A 
ATOM     25  C   UNL     1       1.941   2.701  18.005  0.00  0.00    +0.000 A 
ATOM     26  C   UNL     1       2.803   3.764  18.308  0.00  0.00    +0.000 A 
ENDBRANCH  20  21
ENDBRANCH  13  20
TORSDOF 4
ENDMDL
MODEL 4
REMARK VINA RESULT:      -6.7      8.868     11.993
REMARK  Name = 
REMARK  5 active torsions:
REMARK  status: ('A' for Active; 'I' for Inactive)
REMARK    1  A    between atoms: C_1  and  N_2
REMARK    2  A    between atoms: N_5  and  C_6
REMARK    3  A    between atoms: C_6  and  C_7
REMARK    4  A    between atoms: N_17  and  C_18
REMARK    5  A    between atoms: C_18  and  C_19
REMARK                            x       y       z     vdW  Elec       q    Type
REMARK                         _______ _______ _______ _____ _____    ______ ____
ROOT
ATOM      1  C   UNL     1      -7.201  11.857  18.817  0.00  0.00    +0.000 C 
ATOM      2  N   UNL     1      -6.071  12.348  19.588  0.00  0.00    +0.000 N 
ATOM      3  C   UNL     1      -6.277  13.102  20.749  0.00  0.00    +0.000 A 
ATOM      4  O   UNL     1      -7.403  13.404  21.149  0.00  0.00    +0.000 OA
ATOM      5  N   UNL     1      -5.130  13.524  21.442  0.00  0.00    +0.000 N 
ATOM      6  C   UNL     1      -3.826  13.436  20.961  0.00  0.00    +0.000 A 
ATOM      7  O   UNL     1      -2.889  14.087  21.409  0.00  0.00    +0.000 OA
ATOM      8  C   UNL     1      -3.702  12.513  19.887  0.00  0.00    +0.000 A 
ATOM      9  C   UNL     1      -4.786  12.023  19.222  0.00  0.00    +0.000 A 
ATOM     10  N   UNL     1      -4.420  11.225  18.188  0.00  0.00    +0.000 NA
ATOM     11  C   UNL     1      -3.102  11.183  18.244  0.00  0.00    +0.000 A 
ATOM     12 BR   UNL     1      -2.096  10.269  16.953  0.00  0.00    +0.000 Br
ATOM     13  N   UNL     1      -2.621  11.898  19.316  0.00  0.00    +0.000 N 
ENDROOT
BRANCH   5  14
ATOM     14  C   UNL     1      -5.296  14.031  22.798  0.00  0.00    +0.000 C 
BRANCH  14  15
ATOM     15  C   UNL     1      -5.743  13.070  23.894  0.00  0.00    +0.000 C 
ATOM     16  N   UNL     1      -7.008  13.170  24.379  0.00  0.00    +0.000 N 
ATOM     17  O   UNL     1      -4.987  12.208  24.341  0.00  0.00    +0.000 OA
ATOM     18  H   UNL     1      -7.687  13.836  24.045  0.00  0.00    +0.000 HD
ATOM     19  H   UNL     1      -7.288  12.489  25.075  0.00  0.00    +0.000 HD
ENDBRANCH  14  15
ENDBRANCH   5  14
BRANCH  13  20
ATOM     20  C   UNL     1      -1.230  12.046  19.726  0.00  0.00    +0.000 C 
BRANCH  20  21
ATOM     21  C   UNL     1      -0.799  11.042  20.779  0.00  0.00    +0.000 A 
ATOM     22  C   UNL     1      -1.028  11.281  22.142  0.00  0.00    +0.000 A 
ATOM     23  C   UNL     1      -0.747  10.304  23.101  0.00  0.00    +0.000 A 
ATOM     24  C   UNL     1      -0.228   9.071  22.713  0.00  0.00    +0.000 A 
ATOM     25  C   UNL     1       0.041   8.830  21.369  0.00  0.00    +0.000 A 
ATOM     26  C   UNL     1      -0.235   9.812  20.409  0.00  0.00    +0.000 A 
ENDBRANCH  20  21
ENDBRANCH  13  20
TORSDOF 4
ENDMDL
MODEL 5
REMARK VINA RESULT:      -6.6      2.596      4.456
REMARK  Name = 
REMARK  5 active torsions:
REMARK  status: ('A' for Active; 'I' for Inactive)
REMARK    1  A    between atoms: C_1  and  N_2
REMARK    2  A    between atoms: N_5  and  C_6
REMARK    3  A    between atoms: C_6  and  C_7
REMARK    4  A    between atoms: N_17  and  C_18
REMARK    5  A    between atoms: C_18  and  C_19
REMARK                            x       y       z     vdW  Elec       q    Type
REMARK                         _______ _______ _______ _____ _____    ______ ____
ROOT
ATOM      1  C   UNL     1       2.418   3.540  20.903  0.00  0.00    +0.000 C 
ATOM      2  N   UNL     1       2.815   4.423  19.819  0.00  0.00    +0.000 N 
ATOM      3  C   UNL     1       3.511   3.922  18.713  0.00  0.00    +0.000 A 
ATOM      4  O   UNL     1       3.839   2.737  18.622  0.00  0.00    +0.000 OA
ATOM      5  N   UNL     1       3.843   4.839  17.703  0.00  0.00    +0.000 N 
ATOM      6  C   UNL     1       3.725   6.224  17.810  0.00  0.00    +0.000 A 
ATOM      7  O   UNL     1       4.308   7.015  17.077  0.00  0.00    +0.000 OA
ATOM      8  C   UNL     1       2.859   6.618  18.865  0.00  0.00    +0.000 A 
ATOM      9  C   UNL     1       2.455   5.750  19.836  0.00  0.00    +0.000 A 
ATOM     10  N   UNL     1       1.701   6.368  20.778  0.00  0.00    +0.000 NA
ATOM     11  C   UNL     1       1.598   7.617  20.362  0.00  0.00    +0.000 A 
ATOM     12 BR   UNL     1       0.714   8.919  21.382  0.00  0.00    +0.000 Br
ATOM     13  N   UNL     1       2.230   7.798  19.155  0.00  0.00    +0.000 N 
ENDROOT
BRANCH   5  14
ATOM     14  C   UNL     1       4.280   4.315  16.416  0.00  0.00    +0.000 C 
BRANCH  14  15
ATOM     15  C   UNL     1       5.767   4.069  16.188  0.00  0.00    +0.000 C 
ATOM     16  N   UNL     1       6.607   4.088  17.257  0.00  0.00    +0.000 N 
ATOM     17  O   UNL     1       6.218   3.849  15.064  0.00  0.00    +0.000 OA
ATOM     18  H   UNL     1       6.304   4.238  18.206  0.00  0.00    +0.000 HD
ATOM     19  H   UNL     1       7.581   3.877  17.078  0.00  0.00    +0.000 HD
ENDBRANCH  14  15
ENDBRANCH   5  14
BRANCH  13  20
ATOM     20  C   UNL     1       2.293   9.023  18.366  0.00  0.00    +0.000 C 
BRANCH  20  21
ATOM     21  C   UNL     1       0.990   9.799  18.346  0.00  0.00    +0.000 A 
ATOM     22  C   UNL     1       0.912  11.094  18.880  0.00  0.00    +0.000 A 
ATOM     23  C   UNL     1      -0.251  11.857  18.749  0.00  0.00    +0.000 A 
ATOM     24  C   UNL     1      -1.359  11.336  18.085  0.00  0.00    +0.000 A 
ATOM     25  C   UNL     1      -1.313  10.039  17.582  0.00  0.00    +0.000 A 
ATOM     26  C   UNL     1      -0.149   9.273  17.719  0.00  0.00    +0.000 A 
ENDBRANCH  20  21
ENDBRANCH  13  20
TORSDOF 4
ENDMDL
MODEL 6
REMARK VINA RESULT:      -6.5      8.413     11.566
REMARK  Name = 
REMARK  5 active torsions:
REMARK  status: ('A' for Active; 'I' for Inactive)
REMARK    1  A    between atoms: C_1  and  N_2
REMARK    2  A    between atoms: N_5  and  C_6
REMARK    3  A    between atoms: C_6  and  C_7
REMARK    4  A    between atoms: N_17  and  C_18
REMARK    5  A    between atoms: C_18  and  C_19
REMARK                            x       y       z     vdW  Elec       q    Type
REMARK                         _______ _______ _______ _____ _____    ______ ____
ROOT
ATOM      1  C   UNL     1      -7.223  11.497  19.211  0.00  0.00    +0.000 C 
ATOM      2  N   UNL     1      -5.979  12.029  19.743  0.00  0.00    +0.000 N 
ATOM      3  C   UNL     1      -5.964  12.715  20.962  0.00  0.00    +0.000 A 
ATOM      4  O   UNL     1      -6.988  12.920  21.617  0.00  0.00    +0.000 OA
ATOM      5  N   UNL     1      -4.718  13.184  21.410  0.00  0.00    +0.000 N 
ATOM      6  C   UNL     1      -3.551  13.207  20.649  0.00  0.00    +0.000 A 
ATOM      7  O   UNL     1      -2.576  13.901  20.918  0.00  0.00    +0.000 OA
ATOM      8  C   UNL     1      -3.617  12.344  19.523  0.00  0.00    +0.000 A 
ATOM      9  C   UNL     1      -4.792  11.810  19.084  0.00  0.00    +0.000 A 
ATOM     10  N   UNL     1      -4.621  11.086  17.951  0.00  0.00    +0.000 NA
ATOM     11  C   UNL     1      -3.323  11.133  17.713  0.00  0.00    +0.000 A 
ATOM     12 BR   UNL     1      -2.580  10.348  16.181  0.00  0.00    +0.000 Br
ATOM     13  N   UNL     1      -2.657  11.831  18.692  0.00  0.00    +0.000 N 
ENDROOT
BRANCH   5  14
ATOM     14  C   UNL     1      -4.606  13.618  22.797  0.00  0.00    +0.000 C 
BRANCH  14  15
ATOM     15  C   UNL     1      -4.496  12.562  23.892  0.00  0.00    +0.000 C 
ATOM     16  N   UNL     1      -5.546  12.378  24.734  0.00  0.00    +0.000 N 
ATOM     17  O   UNL     1      -3.484  11.875  24.023  0.00  0.00    +0.000 OA
ATOM     18  H   UNL     1      -6.413  12.889  24.670  0.00  0.00    +0.000 HD
ATOM     19  H   UNL     1      -5.459  11.640  25.422  0.00  0.00    +0.000 HD
ENDBRANCH  14  15
ENDBRANCH   5  14
BRANCH  13  20
ATOM     20  C   UNL     1      -1.221  12.055  18.795  0.00  0.00    +0.000 C 
BRANCH  20  21
ATOM     21  C   UNL     1      -0.456  10.856  19.321  0.00  0.00    +0.000 A 
ATOM     22  C   UNL     1       0.475  10.182  18.516  0.00  0.00    +0.000 A 
ATOM     23  C   UNL     1       1.271   9.159  19.037  0.00  0.00    +0.000 A 
ATOM     24  C   UNL     1       1.147   8.789  20.375  0.00  0.00    +0.000 A 
ATOM     25  C   UNL     1       0.203   9.420  21.179  0.00  0.00    +0.000 A 
ATOM     26  C   UNL     1      -0.599  10.441  20.653  0.00  0.00    +0.000 A 
ENDBRANCH  20  21
ENDBRANCH  13  20
TORSDOF 4
ENDMDL
MODEL 7
REMARK VINA RESULT:      -6.4      2.801      5.594
REMARK  Name = 
REMARK  5 active torsions:
REMARK  status: ('A' for Active; 'I' for Inactive)
REMARK    1  A    between atoms: C_1  and  N_2
REMARK    2  A    between atoms: N_5  and  C_6
REMARK    3  A    between atoms: C_6  and  C_7
REMARK    4  A    between atoms: N_17  and  C_18
REMARK    5  A    between atoms: C_18  and  C_19
REMARK                            x       y       z     vdW  Elec       q    Type
REMARK                         _______ _______ _______ _____ _____    ______ ____
ROOT
ATOM      1  C   UNL     1       1.751   2.558  18.915  0.00  0.00    +0.000 C 
ATOM      2  N   UNL     1       2.198   3.939  18.837  0.00  0.00    +0.000 N 
ATOM      3  C   UNL     1       1.746   4.885  19.763  0.00  0.00    +0.000 A 
ATOM      4  O   UNL     1       0.942   4.605  20.655  0.00  0.00    +0.000 OA
ATOM      5  N   UNL     1       2.239   6.193  19.625  0.00  0.00    +0.000 N 
ATOM      6  C   UNL     1       2.961   6.665  18.530  0.00  0.00    +0.000 A 
ATOM      7  O   UNL     1       3.098   7.854  18.266  0.00  0.00    +0.000 OA
ATOM      8  C   UNL     1       3.516   5.615  17.750  0.00  0.00    +0.000 A 
ATOM      9  C   UNL     1       3.119   4.318  17.890  0.00  0.00    +0.000 A 
ATOM     10  N   UNL     1       3.726   3.509  16.987  0.00  0.00    +0.000 NA
ATOM     11  C   UNL     1       4.540   4.303  16.315  0.00  0.00    +0.000 A 
ATOM     12 BR   UNL     1       5.555   3.670  14.871  0.00  0.00    +0.000 Br
ATOM     13  N   UNL     1       4.500   5.590  16.799  0.00  0.00    +0.000 N 
ENDROOT
BRANCH   5  14
ATOM     14  C   UNL     1       2.046   7.120  20.733  0.00  0.00    +0.000 C 
BRANCH  14  15
ATOM     15  C   UNL     1       0.908   8.131  20.657  0.00  0.00    +0.000 C 
ATOM     16  N   UNL     1       1.051   9.223  19.860  0.00  0.00    +0.000 N 
ATOM     17  O   UNL     1      -0.133   7.977  21.295  0.00  0.00    +0.000 OA
ATOM     18  H   UNL     1       1.865   9.401  19.293  0.00  0.00    +0.000 HD
ATOM     19  H   UNL     1       0.260   9.852  19.798  0.00  0.00    +0.000 HD
ENDBRANCH  14  15
ENDBRANCH   5  14
BRANCH  13  20
ATOM     20  C   UNL     1       5.286   6.729  16.344  0.00  0.00    +0.000 C 
BRANCH  20  21
ATOM     21  C   UNL     1       6.415   7.102  17.287  0.00  0.00    +0.000 A 
ATOM     22  C   UNL     1       6.958   6.159  18.172  0.00  0.00    +0.000 A 
ATOM     23  C   UNL     1       8.078   6.464  18.950  0.00  0.00    +0.000 A 
ATOM     24  C   UNL     1       8.672   7.721  18.858  0.00  0.00    +0.000 A 
ATOM     25  C   UNL     1       8.125   8.682  18.013  0.00  0.00    +0.000 A 
ATOM     26  C   UNL     1       6.998   8.377  17.239  0.00  0.00    +0.000 A 
ENDBRANCH  20  21
ENDBRANCH  13  20
TORSDOF 4
ENDMDL
MODEL 8
REMARK VINA RESULT:      -6.4      2.532      4.261
REMARK  Name = 
REMARK  5 active torsions:
REMARK  status: ('A' for Active; 'I' for Inactive)
REMARK    1  A    between atoms: C_1  and  N_2
REMARK    2  A    between atoms: N_5  and  C_6
REMARK    3  A    between atoms: C_6  and  C_7
REMARK    4  A    between atoms: N_17  and  C_18
REMARK    5  A    between atoms: C_18  and  C_19
REMARK                            x       y       z     vdW  Elec       q    Type
REMARK                         _______ _______ _______ _____ _____    ______ ____
ROOT
ATOM      1  C   UNL     1       2.551   3.449  20.518  0.00  0.00    +0.000 C 
ATOM      2  N   UNL     1       2.986   4.402  19.510  0.00  0.00    +0.000 N 
ATOM      3  C   UNL     1       3.739   3.980  18.410  0.00  0.00    +0.000 A 
ATOM      4  O   UNL     1       4.086   2.807  18.259  0.00  0.00    +0.000 OA
ATOM      5  N   UNL     1       4.104   4.963  17.476  0.00  0.00    +0.000 N 
ATOM      6  C   UNL     1       3.963   6.337  17.664  0.00  0.00    +0.000 A 
ATOM      7  O   UNL     1       4.569   7.179  17.011  0.00  0.00    +0.000 OA
ATOM      8  C   UNL     1       3.045   6.654  18.701  0.00  0.00    +0.000 A 
ATOM      9  C   UNL     1       2.608   5.722  19.594  0.00  0.00    +0.000 A 
ATOM     10  N   UNL     1       1.803   6.271  20.537  0.00  0.00    +0.000 NA
ATOM     11  C   UNL     1       1.703   7.543  20.197  0.00  0.00    +0.000 A 
ATOM     12 BR   UNL     1       0.756   8.768  21.254  0.00  0.00    +0.000 Br
ATOM     13  N   UNL     1       2.388   7.808  19.034  0.00  0.00    +0.000 N 
ENDROOT
BRANCH   5  14
ATOM     14  C   UNL     1       4.607   4.527  16.180  0.00  0.00    +0.000 C 
BRANCH  14  15
ATOM     15  C   UNL     1       6.081   4.742  15.852  0.00  0.00    +0.000 C 
ATOM     16  N   UNL     1       6.411   5.572  14.828  0.00  0.00    +0.000 N 
ATOM     17  O   UNL     1       6.971   4.187  16.495  0.00  0.00    +0.000 OA
ATOM     18  H   UNL     1       5.736   6.077  14.274  0.00  0.00    +0.000 HD
ATOM     19  H   UNL     1       7.398   5.728  14.664  0.00  0.00    +0.000 HD
ENDBRANCH  14  15
ENDBRANCH   5  14
BRANCH  13  20
ATOM     20  C   UNL     1       2.471   9.080  18.329  0.00  0.00    +0.000 C 
BRANCH  20  21
ATOM     21  C   UNL     1       1.141   9.801  18.220  0.00  0.00    +0.000 A 
ATOM     22  C   UNL     1       0.040   9.195  17.596  0.00  0.00    +0.000 A 
ATOM     23  C   UNL     1      -1.218   9.804  17.606  0.00  0.00    +0.000 A 
ATOM     24  C   UNL     1      -1.395  11.033  18.238  0.00  0.00    +0.000 A 
ATOM     25  C   UNL     1      -0.307  11.667  18.829  0.00  0.00    +0.000 A 
ATOM     26  C   UNL     1       0.955  11.059  18.812  0.00  0.00    +0.000 A 
ENDBRANCH  20  21
ENDBRANCH  13  20
TORSDOF 4
ENDMDL
MODEL 9
REMARK VINA RESULT:      -6.4      6.804      9.463
REMARK  Name = 
REMARK  5 active torsions:
REMARK  status: ('A' for Active; 'I' for Inactive)
REMARK    1  A    between atoms: C_1  and  N_2
REMARK    2  A    between atoms: N_5  and  C_6
REMARK    3  A    between atoms: C_6  and  C_7
REMARK    4  A    between atoms: N_17  and  C_18
REMARK    5  A    between atoms: C_18  and  C_19
REMARK                            x       y       z     vdW  Elec       q    Type
REMARK                         _______ _______ _______ _____ _____    ______ ____
ROOT
ATOM      1  C   UNL     1       0.255   9.474  23.426  0.00  0.00    +0.000 C 
ATOM      2  N   UNL     1      -0.161  10.093  22.178  0.00  0.00    +0.000 N 
ATOM      3  C   UNL     1       0.415   9.704  20.965  0.00  0.00    +0.000 A 
ATOM      4  O   UNL     1       1.306   8.854  20.899  0.00  0.00    +0.000 OA
ATOM      5  N   UNL     1      -0.056  10.342  19.805  0.00  0.00    +0.000 N 
ATOM      6  C   UNL     1      -0.884  11.462  19.789  0.00  0.00    +0.000 A 
ATOM      7  O   UNL     1      -1.019  12.195  18.816  0.00  0.00    +0.000 OA
ATOM      8  C   UNL     1      -1.550  11.666  21.028  0.00  0.00    +0.000 A 
ATOM      9  C   UNL     1      -1.174  11.024  22.169  0.00  0.00    +0.000 A 
ATOM     10  N   UNL     1      -1.899  11.436  23.238  0.00  0.00    +0.000 NA
ATOM     11  C   UNL     1      -2.762  12.305  22.745  0.00  0.00    +0.000 A 
ATOM     12 BR   UNL     1      -3.948  13.243  23.854  0.00  0.00    +0.000 Br
ATOM     13  N   UNL     1      -2.635  12.422  21.381  0.00  0.00    +0.000 N 
ENDROOT
BRANCH   5  14
ATOM     14  C   UNL     1       0.283   9.757  18.514  0.00  0.00    +0.000 C 
BRANCH  14  15
ATOM     15  C   UNL     1       1.653  10.049  17.911  0.00  0.00    +0.000 C 
ATOM     16  N   UNL     1       2.113  11.328  17.914  0.00  0.00    +0.000 N 
ATOM     17  O   UNL     1       2.348   9.154  17.430  0.00  0.00    +0.000 OA
ATOM     18  H   UNL     1       1.608  12.105  18.311  0.00  0.00    +0.000 HD
ATOM     19  H   UNL     1       3.044  11.481  17.546  0.00  0.00    +0.000 HD
ENDBRANCH  14  15
ENDBRANCH   5  14
BRANCH  13  20
ATOM     20  C   UNL     1      -3.438  13.247  20.487  0.00  0.00    +0.000 C 
BRANCH  20  21
ATOM     21  C   UNL     1      -4.611  12.507  19.871  0.00  0.00    +0.000 A 
ATOM     22  C   UNL     1      -4.503  11.907  18.608  0.00  0.00    +0.000 A 
ATOM     23  C   UNL     1      -5.538  11.120  18.095  0.00  0.00    +0.000 A 
ATOM     24  C   UNL     1      -6.701  10.923  18.836  0.00  0.00    +0.000 A 
ATOM     25  C   UNL     1      -6.841  11.541  20.075  0.00  0.00    +0.000 A 
ATOM     26  C   UNL     1      -5.806  12.336  20.585  0.00  0.00    +0.000 A 
ENDBRANCH  20  21
ENDBRANCH  13  20
TORSDOF 4
ENDMDL
