MODEL 1
REMARK VINA RESULT:      -8.4      0.000      0.000
REMARK  Name = 
REMARK  12 active torsions:
REMARK  status: ('A' for Active; 'I' for Inactive)
REMARK    1  A    between atoms: C_1  and  C_2
REMARK    2  A    between atoms: C_2  and  N_3
REMARK    3  A    between atoms: C_4  and  C_6
REMARK    4  A    between atoms: C_9  and  N_10
REMARK    5  A    between atoms: C_14  and  N_15
REMARK    6  A    between atoms: N_15  and  C_16
REMARK    7  A    between atoms: C_16  and  C_17
REMARK    8  A    between atoms: C_17  and  C_18
REMARK    9  A    between atoms: C_23  and  O_24
REMARK   10  A    between atoms: O_24  and  C_25
REMARK   11  A    between atoms: C_29  and  O_30
REMARK   12  A    between atoms: C_35  and  C_36
REMARK                            x       y       z     vdW  Elec       q    Type
REMARK                         _______ _______ _______ _____ _____    ______ ____
ROOT
ATOM      1  N   UNL     1       0.979  10.149  19.736  0.00  0.00    +0.000 N 
ATOM      2  C   UNL     1       1.440  10.859  18.646  0.00  0.00    +0.000 A 
ATOM      3  N   UNL     1       2.203  10.148  17.861  0.00  0.00    +0.000 NA
ATOM      4  C   UNL     1       2.248   8.903  18.437  0.00  0.00    +0.000 A 
ATOM      5  C   UNL     1       2.858   7.725  17.933  0.00  0.00    +0.000 A 
ATOM      6  C   UNL     1       2.653   6.547  18.668  0.00  0.00    +0.000 A 
ATOM      7  C   UNL     1       2.048   6.555  19.928  0.00  0.00    +0.000 A 
ATOM      8  C   UNL     1       1.440   7.714  20.423  0.00  0.00    +0.000 A 
ATOM      9  C   UNL     1       1.537   8.882  19.646  0.00  0.00    +0.000 A 
ENDROOT
BRANCH   1  13
ATOM     10  C   UNL     1      -1.862  11.789  22.424  0.00  0.00    +0.000 A 
ATOM     11  C   UNL     1      -0.866  10.908  22.892  0.00  0.00    +0.000 A 
ATOM     12  C   UNL     1       0.070  10.327  22.021  0.00  0.00    +0.000 A 
ATOM     13  C   UNL     1       0.036  10.656  20.670  0.00  0.00    +0.000 A 
ATOM     14  C   UNL     1      -0.953  11.532  20.198  0.00  0.00    +0.000 A 
ATOM     15  C   UNL     1      -1.910  12.105  21.053  0.00  0.00    +0.000 A 
ATOM     16  C   UNL     1      -2.978  12.937  20.397  0.00  0.00    +0.000 C 
BRANCH  10  18
ATOM     17  N   UNL     1      -2.424  13.736  23.811  0.00  0.00    +0.000 N 
ATOM     18  C   UNL     1      -2.761  12.452  23.425  0.00  0.00    +0.000 C 
ATOM     19  O   UNL     1      -3.763  11.885  23.847  0.00  0.00    +0.000 OA
ATOM     20  H   UNL     1      -1.481  14.069  23.657  0.00  0.00    +0.000 HD
BRANCH  17  22
ATOM     21  C   UNL     1      -3.980  15.636  24.065  0.00  0.00    +0.000 C 
ATOM     22  C   UNL     1      -3.282  14.464  24.729  0.00  0.00    +0.000 C 
ENDBRANCH  17  22
ENDBRANCH  10  18
ENDBRANCH   1  13
BRANCH   5  23
ATOM     23  N   UNL     1       3.672   7.619  16.777  0.00  0.00    +0.000 N 
ATOM     24  H   UNL     1       3.727   8.522  16.310  0.00  0.00    +0.000 HD
BRANCH  23  25
ATOM     25  C   UNL     1       4.967   6.958  16.945  0.00  0.00    +0.000 C 
BRANCH  25  26
ATOM     26  C   UNL     1       5.084   5.834  15.927  0.00  0.00    +0.000 C 
BRANCH  26  27
ATOM     27  C   UNL     1       5.027   4.483  16.597  0.00  0.00    +0.000 C 
ATOM     28  F   UNL     1       5.643   3.511  15.896  0.00  0.00    +0.000 F 
ATOM     29  F   UNL     1       5.605   4.530  17.820  0.00  0.00    +0.000 F 
ATOM     30  F   UNL     1       3.743   4.098  16.779  0.00  0.00    +0.000 F 
ENDBRANCH  26  27
ENDBRANCH  25  26
ENDBRANCH  23  25
ENDBRANCH   5  23
BRANCH   7  31
ATOM     31  O   UNL     1       1.984   5.443  20.749  0.00  0.00    +0.000 OA
BRANCH  31  32
ATOM     32  C   UNL     1       2.165   4.195  20.189  0.00  0.00    +0.000 A 
ATOM     33  C   UNL     1       1.128   3.433  19.635  0.00  0.00    +0.000 A 
ATOM     34  C   UNL     1       1.369   2.127  19.205  0.00  0.00    +0.000 A 
ATOM     35  C   UNL     1       2.661   1.605  19.258  0.00  0.00    +0.000 A 
ATOM     36  C   UNL     1       3.702   2.404  19.724  0.00  0.00    +0.000 A 
ATOM     37  C   UNL     1       3.467   3.696  20.183  0.00  0.00    +0.000 A 
BRANCH  36  38
ATOM     38  O   UNL     1       4.984   1.938  19.763  0.00  0.00    +0.000 OA
ATOM     39  H   UNL     1       5.406   2.120  18.907  0.00  0.00    +0.000 HD
ENDBRANCH  36  38
ENDBRANCH  31  32
ENDBRANCH   7  31
TORSDOF 10
ENDMDL
MODEL 2
REMARK VINA RESULT:      -8.2      3.203      4.731
REMARK  Name = 
REMARK  12 active torsions:
REMARK  status: ('A' for Active; 'I' for Inactive)
REMARK    1  A    between atoms: C_1  and  C_2
REMARK    2  A    between atoms: C_2  and  N_3
REMARK    3  A    between atoms: C_4  and  C_6
REMARK    4  A    between atoms: C_9  and  N_10
REMARK    5  A    between atoms: C_14  and  N_15
REMARK    6  A    between atoms: N_15  and  C_16
REMARK    7  A    between atoms: C_16  and  C_17
REMARK    8  A    between atoms: C_17  and  C_18
REMARK    9  A    between atoms: C_23  and  O_24
REMARK   10  A    between atoms: O_24  and  C_25
REMARK   11  A    between atoms: C_29  and  O_30
REMARK   12  A    between atoms: C_35  and  C_36
REMARK                            x       y       z     vdW  Elec       q    Type
REMARK                         _______ _______ _______ _____ _____    ______ ____
ROOT
ATOM      1  N   UNL     1       0.833   9.883  20.127  0.00  0.00    +0.000 N 
ATOM      2  C   UNL     1       0.283   9.395  21.294  0.00  0.00    +0.000 A 
ATOM      3  N   UNL     1       0.583   8.144  21.515  0.00  0.00    +0.000 NA
ATOM      4  C   UNL     1       1.380   7.775  20.460  0.00  0.00    +0.000 A 
ATOM      5  C   UNL     1       2.063   6.547  20.264  0.00  0.00    +0.000 A 
ATOM      6  C   UNL     1       2.914   6.472  19.151  0.00  0.00    +0.000 A 
ATOM      7  C   UNL     1       2.949   7.473  18.175  0.00  0.00    +0.000 A 
ATOM      8  C   UNL     1       2.283   8.688  18.371  0.00  0.00    +0.000 A 
ATOM      9  C   UNL     1       1.513   8.826  19.539  0.00  0.00    +0.000 A 
ENDROOT
BRANCH   1  13
ATOM     10  C   UNL     1       0.651  13.989  19.079  0.00  0.00    +0.000 A 
ATOM     11  C   UNL     1      -0.057  13.030  18.326  0.00  0.00    +0.000 A 
ATOM     12  C   UNL     1       0.008  11.661  18.631  0.00  0.00    +0.000 A 
ATOM     13  C   UNL     1       0.760  11.243  19.724  0.00  0.00    +0.000 A 
ATOM     14  C   UNL     1       1.466  12.193  20.478  0.00  0.00    +0.000 A 
ATOM     15  C   UNL     1       1.430  13.564  20.173  0.00  0.00    +0.000 A 
ATOM     16  C   UNL     1       2.321  14.455  20.994  0.00  0.00    +0.000 C 
BRANCH  10  18
ATOM     17  N   UNL     1      -0.824  15.946  18.924  0.00  0.00    +0.000 N 
ATOM     18  C   UNL     1       0.452  15.441  18.760  0.00  0.00    +0.000 C 
ATOM     19  O   UNL     1       1.392  16.144  18.406  0.00  0.00    +0.000 OA
ATOM     20  H   UNL     1      -1.609  15.309  18.960  0.00  0.00    +0.000 HD
BRANCH  17  22
ATOM     21  C   UNL     1      -2.410  17.807  19.265  0.00  0.00    +0.000 C 
ATOM     22  C   UNL     1      -1.078  17.357  18.695  0.00  0.00    +0.000 C 
ENDBRANCH  17  22
ENDBRANCH  10  18
ENDBRANCH   1  13
BRANCH   5  23
ATOM     23  N   UNL     1       1.955   5.379  21.062  0.00  0.00    +0.000 N 
ATOM     24  H   UNL     1       0.988   5.247  21.350  0.00  0.00    +0.000 HD
BRANCH  23  25
ATOM     25  C   UNL     1       2.591   4.168  20.541  0.00  0.00    +0.000 C 
BRANCH  25  26
ATOM     26  C   UNL     1       1.538   3.081  20.396  0.00  0.00    +0.000 C 
BRANCH  26  27
ATOM     27  C   UNL     1       1.480   2.564  18.979  0.00  0.00    +0.000 C 
ATOM     28  F   UNL     1       1.883   3.466  18.063  0.00  0.00    +0.000 F 
ATOM     29  F   UNL     1       2.259   1.466  18.838  0.00  0.00    +0.000 F 
ATOM     30  F   UNL     1       0.217   2.199  18.659  0.00  0.00    +0.000 F 
ENDBRANCH  26  27
ENDBRANCH  25  26
ENDBRANCH  23  25
ENDBRANCH   5  23
BRANCH   7  31
ATOM     31  O   UNL     1       3.647   7.353  16.986  0.00  0.00    +0.000 OA
BRANCH  31  32
ATOM     32  C   UNL     1       4.816   6.621  16.975  0.00  0.00    +0.000 A 
ATOM     33  C   UNL     1       6.066   7.146  17.330  0.00  0.00    +0.000 A 
ATOM     34  C   UNL     1       7.220   6.379  17.170  0.00  0.00    +0.000 A 
ATOM     35  C   UNL     1       7.124   5.061  16.724  0.00  0.00    +0.000 A 
ATOM     36  C   UNL     1       5.868   4.518  16.462  0.00  0.00    +0.000 A 
ATOM     37  C   UNL     1       4.714   5.284  16.590  0.00  0.00    +0.000 A 
BRANCH  36  38
ATOM     38  O   UNL     1       5.731   3.224  16.052  0.00  0.00    +0.000 OA
ATOM     39  H   UNL     1       6.045   2.640  16.763  0.00  0.00    +0.000 HD
ENDBRANCH  36  38
ENDBRANCH  31  32
ENDBRANCH   7  31
TORSDOF 10
ENDMDL
MODEL 3
REMARK VINA RESULT:      -8.1      4.947     10.342
REMARK  Name = 
REMARK  12 active torsions:
REMARK  status: ('A' for Active; 'I' for Inactive)
REMARK    1  A    between atoms: C_1  and  C_2
REMARK    2  A    between atoms: C_2  and  N_3
REMARK    3  A    between atoms: C_4  and  C_6
REMARK    4  A    between atoms: C_9  and  N_10
REMARK    5  A    between atoms: C_14  and  N_15
REMARK    6  A    between atoms: N_15  and  C_16
REMARK    7  A    between atoms: C_16  and  C_17
REMARK    8  A    between atoms: C_17  and  C_18
REMARK    9  A    between atoms: C_23  and  O_24
REMARK   10  A    between atoms: O_24  and  C_25
REMARK   11  A    between atoms: C_29  and  O_30
REMARK   12  A    between atoms: C_35  and  C_36
REMARK                            x       y       z     vdW  Elec       q    Type
REMARK                         _______ _______ _______ _____ _____    ______ ____
ROOT
ATOM      1  N   UNL     1       1.014   9.100  21.109  0.00  0.00    +0.000 N 
ATOM      2  C   UNL     1       1.093   9.055  22.485  0.00  0.00    +0.000 A 
ATOM      3  N   UNL     1       0.390   9.989  23.068  0.00  0.00    +0.000 NA
ATOM      4  C   UNL     1      -0.201  10.684  22.041  0.00  0.00    +0.000 A 
ATOM      5  C   UNL     1      -1.149  11.736  22.127  0.00  0.00    +0.000 A 
ATOM      6  C   UNL     1      -1.688  12.196  20.916  0.00  0.00    +0.000 A 
ATOM      7  C   UNL     1      -1.187  11.784  19.677  0.00  0.00    +0.000 A 
ATOM      8  C   UNL     1      -0.256  10.743  19.591  0.00  0.00    +0.000 A 
ATOM      9  C   UNL     1       0.213  10.189  20.795  0.00  0.00    +0.000 A 
ENDROOT
BRANCH   1  13
ATOM     10  C   UNL     1       2.765   6.099  18.677  0.00  0.00    +0.000 A 
ATOM     11  C   UNL     1       2.584   7.405  18.177  0.00  0.00    +0.000 A 
ATOM     12  C   UNL     1       1.980   8.411  18.948  0.00  0.00    +0.000 A 
ATOM     13  C   UNL     1       1.584   8.123  20.250  0.00  0.00    +0.000 A 
ATOM     14  C   UNL     1       1.762   6.826  20.754  0.00  0.00    +0.000 A 
ATOM     15  C   UNL     1       2.343   5.802  19.988  0.00  0.00    +0.000 A 
ATOM     16  C   UNL     1       2.371   4.434  20.612  0.00  0.00    +0.000 C 
BRANCH  10  18
ATOM     17  N   UNL     1       4.881   5.264  17.752  0.00  0.00    +0.000 N 
ATOM     18  C   UNL     1       3.509   5.105  17.836  0.00  0.00    +0.000 C 
ATOM     19  O   UNL     1       2.924   4.180  17.284  0.00  0.00    +0.000 OA
ATOM     20  H   UNL     1       5.292   6.156  17.991  0.00  0.00    +0.000 HD
BRANCH  17  22
ATOM     21  C   UNL     1       7.161   4.595  17.084  0.00  0.00    +0.000 C 
ATOM     22  C   UNL     1       5.675   4.302  17.007  0.00  0.00    +0.000 C 
ENDBRANCH  17  22
ENDBRANCH  10  18
ENDBRANCH   1  13
BRANCH   5  23
ATOM     23  N   UNL     1      -1.591  12.387  23.307  0.00  0.00    +0.000 N 
ATOM     24  H   UNL     1      -0.791  12.613  23.896  0.00  0.00    +0.000 HD
BRANCH  23  25
ATOM     25  C   UNL     1      -2.532  13.494  23.132  0.00  0.00    +0.000 C 
BRANCH  25  26
ATOM     26  C   UNL     1      -3.439  13.567  24.350  0.00  0.00    +0.000 C 
BRANCH  26  27
ATOM     27  C   UNL     1      -4.812  13.018  24.042  0.00  0.00    +0.000 C 
ATOM     28  F   UNL     1      -5.790  13.941  24.127  0.00  0.00    +0.000 F 
ATOM     29  F   UNL     1      -4.850  12.501  22.792  0.00  0.00    +0.000 F 
ATOM     30  F   UNL     1      -5.125  12.017  24.896  0.00  0.00    +0.000 F 
ENDBRANCH  26  27
ENDBRANCH  25  26
ENDBRANCH  23  25
ENDBRANCH   5  23
BRANCH   7  31
ATOM     31  O   UNL     1      -1.578  12.344  18.474  0.00  0.00    +0.000 OA
BRANCH  31  32
ATOM     32  C   UNL     1      -2.407  11.617  17.643  0.00  0.00    +0.000 A 
ATOM     33  C   UNL     1      -1.942  10.708  16.683  0.00  0.00    +0.000 A 
ATOM     34  C   UNL     1      -2.836  10.108  15.795  0.00  0.00    +0.000 A 
ATOM     35  C   UNL     1      -4.203  10.356  15.910  0.00  0.00    +0.000 A 
ATOM     36  C   UNL     1      -4.664  11.189  16.928  0.00  0.00    +0.000 A 
ATOM     37  C   UNL     1      -3.778  11.816  17.798  0.00  0.00    +0.000 A 
BRANCH  36  38
ATOM     38  O   UNL     1      -5.996  11.433  17.090  0.00  0.00    +0.000 OA
ATOM     39  H   UNL     1      -6.216  11.333  18.031  0.00  0.00    +0.000 HD
ENDBRANCH  36  38
ENDBRANCH  31  32
ENDBRANCH   7  31
TORSDOF 10
ENDMDL
MODEL 4
REMARK VINA RESULT:      -8.1      0.943      1.341
REMARK  Name = 
REMARK  12 active torsions:
REMARK  status: ('A' for Active; 'I' for Inactive)
REMARK    1  A    between atoms: C_1  and  C_2
REMARK    2  A    between atoms: C_2  and  N_3
REMARK    3  A    between atoms: C_4  and  C_6
REMARK    4  A    between atoms: C_9  and  N_10
REMARK    5  A    between atoms: C_14  and  N_15
REMARK    6  A    between atoms: N_15  and  C_16
REMARK    7  A    between atoms: C_16  and  C_17
REMARK    8  A    between atoms: C_17  and  C_18
REMARK    9  A    between atoms: C_23  and  O_24
REMARK   10  A    between atoms: O_24  and  C_25
REMARK   11  A    between atoms: C_29  and  O_30
REMARK   12  A    between atoms: C_35  and  C_36
REMARK                            x       y       z     vdW  Elec       q    Type
REMARK                         _______ _______ _______ _____ _____    ______ ____
ROOT
ATOM      1  N   UNL     1       1.000  10.164  19.699  0.00  0.00    +0.000 N 
ATOM      2  C   UNL     1       1.466  10.867  18.608  0.00  0.00    +0.000 A 
ATOM      3  N   UNL     1       2.240  10.156  17.834  0.00  0.00    +0.000 NA
ATOM      4  C   UNL     1       2.288   8.915  18.420  0.00  0.00    +0.000 A 
ATOM      5  C   UNL     1       2.910   7.737  17.929  0.00  0.00    +0.000 A 
ATOM      6  C   UNL     1       2.706   6.564  18.672  0.00  0.00    +0.000 A 
ATOM      7  C   UNL     1       2.090   6.578  19.927  0.00  0.00    +0.000 A 
ATOM      8  C   UNL     1       1.472   7.737  20.409  0.00  0.00    +0.000 A 
ATOM      9  C   UNL     1       1.567   8.899  19.624  0.00  0.00    +0.000 A 
ENDROOT
BRANCH   1  13
ATOM     10  C   UNL     1      -1.874  11.804  22.351  0.00  0.00    +0.000 A 
ATOM     11  C   UNL     1      -0.866  10.946  22.836  0.00  0.00    +0.000 A 
ATOM     12  C   UNL     1       0.081  10.364  21.977  0.00  0.00    +0.000 A 
ATOM     13  C   UNL     1       0.047  10.671  20.621  0.00  0.00    +0.000 A 
ATOM     14  C   UNL     1      -0.953  11.525  20.132  0.00  0.00    +0.000 A 
ATOM     15  C   UNL     1      -1.922  12.097  20.974  0.00  0.00    +0.000 A 
ATOM     16  C   UNL     1      -2.999  12.903  20.301  0.00  0.00    +0.000 C 
BRANCH  10  18
ATOM     17  N   UNL     1      -2.480  13.772  23.689  0.00  0.00    +0.000 N 
ATOM     18  C   UNL     1      -2.786  12.470  23.338  0.00  0.00    +0.000 C 
ATOM     19  O   UNL     1      -3.773  11.890  23.777  0.00  0.00    +0.000 OA
ATOM     20  H   UNL     1      -1.546  14.124  23.524  0.00  0.00    +0.000 HD
BRANCH  17  22
ATOM     21  C   UNL     1      -2.586  15.225  25.682  0.00  0.00    +0.000 C 
ATOM     22  C   UNL     1      -3.353  14.501  24.592  0.00  0.00    +0.000 C 
ENDBRANCH  17  22
ENDBRANCH  10  18
ENDBRANCH   1  13
BRANCH   5  23
ATOM     23  N   UNL     1       3.734   7.627  16.781  0.00  0.00    +0.000 N 
ATOM     24  H   UNL     1       4.105   8.543  16.534  0.00  0.00    +0.000 HD
BRANCH  23  25
ATOM     25  C   UNL     1       4.738   6.563  16.794  0.00  0.00    +0.000 C 
BRANCH  25  26
ATOM     26  C   UNL     1       6.097   7.171  17.105  0.00  0.00    +0.000 C 
BRANCH  26  27
ATOM     27  C   UNL     1       6.929   6.239  17.953  0.00  0.00    +0.000 C 
ATOM     28  F   UNL     1       6.213   5.581  18.886  0.00  0.00    +0.000 F 
ATOM     29  F   UNL     1       7.543   5.311  17.184  0.00  0.00    +0.000 F 
ATOM     30  F   UNL     1       7.899   6.925  18.599  0.00  0.00    +0.000 F 
ENDBRANCH  26  27
ENDBRANCH  25  26
ENDBRANCH  23  25
ENDBRANCH   5  23
BRANCH   7  31
ATOM     31  O   UNL     1       2.027   5.472  20.756  0.00  0.00    +0.000 OA
BRANCH  31  32
ATOM     32  C   UNL     1       2.176   4.217  20.200  0.00  0.00    +0.000 A 
ATOM     33  C   UNL     1       1.116   3.472  19.667  0.00  0.00    +0.000 A 
ATOM     34  C   UNL     1       1.325   2.160  19.240  0.00  0.00    +0.000 A 
ATOM     35  C   UNL     1       2.608   1.614  19.275  0.00  0.00    +0.000 A 
ATOM     36  C   UNL     1       3.672   2.395  19.721  0.00  0.00    +0.000 A 
ATOM     37  C   UNL     1       3.468   3.693  20.177  0.00  0.00    +0.000 A 
BRANCH  36  38
ATOM     38  O   UNL     1       4.944   1.905  19.743  0.00  0.00    +0.000 OA
ATOM     39  H   UNL     1       5.211   1.780  20.669  0.00  0.00    +0.000 HD
ENDBRANCH  36  38
ENDBRANCH  31  32
ENDBRANCH   7  31
TORSDOF 10
ENDMDL
MODEL 5
REMARK VINA RESULT:      -8.1      3.205      4.831
REMARK  Name = 
REMARK  12 active torsions:
REMARK  status: ('A' for Active; 'I' for Inactive)
REMARK    1  A    between atoms: C_1  and  C_2
REMARK    2  A    between atoms: C_2  and  N_3
REMARK    3  A    between atoms: C_4  and  C_6
REMARK    4  A    between atoms: C_9  and  N_10
REMARK    5  A    between atoms: C_14  and  N_15
REMARK    6  A    between atoms: N_15  and  C_16
REMARK    7  A    between atoms: C_16  and  C_17
REMARK    8  A    between atoms: C_17  and  C_18
REMARK    9  A    between atoms: C_23  and  O_24
REMARK   10  A    between atoms: O_24  and  C_25
REMARK   11  A    between atoms: C_29  and  O_30
REMARK   12  A    between atoms: C_35  and  C_36
REMARK                            x       y       z     vdW  Elec       q    Type
REMARK                         _______ _______ _______ _____ _____    ______ ____
ROOT
ATOM      1  N   UNL     1       0.812   9.651  20.184  0.00  0.00    +0.000 N 
ATOM      2  C   UNL     1       0.270   9.098  21.325  0.00  0.00    +0.000 A 
ATOM      3  N   UNL     1       0.619   7.852  21.504  0.00  0.00    +0.000 NA
ATOM      4  C   UNL     1       1.443   7.557  20.446  0.00  0.00    +0.000 A 
ATOM      5  C   UNL     1       2.178   6.365  20.214  0.00  0.00    +0.000 A 
ATOM      6  C   UNL     1       3.044   6.367  19.110  0.00  0.00    +0.000 A 
ATOM      7  C   UNL     1       3.049   7.405  18.173  0.00  0.00    +0.000 A 
ATOM      8  C   UNL     1       2.330   8.582  18.404  0.00  0.00    +0.000 A 
ATOM      9  C   UNL     1       1.542   8.645  19.566  0.00  0.00    +0.000 A 
ENDROOT
BRANCH   1  13
ATOM     10  C   UNL     1       0.470  13.781  19.285  0.00  0.00    +0.000 A 
ATOM     11  C   UNL     1      -0.185  12.823  18.487  0.00  0.00    +0.000 A 
ATOM     12  C   UNL     1      -0.067  11.447  18.742  0.00  0.00    +0.000 A 
ATOM     13  C   UNL     1       0.687  11.021  19.831  0.00  0.00    +0.000 A 
ATOM     14  C   UNL     1       1.341  11.970  20.630  0.00  0.00    +0.000 A 
ATOM     15  C   UNL     1       1.251  13.349  20.374  0.00  0.00    +0.000 A 
ATOM     16  C   UNL     1       2.092  14.245  21.242  0.00  0.00    +0.000 C 
BRANCH  10  18
ATOM     17  N   UNL     1       1.273  15.971  18.515  0.00  0.00    +0.000 N 
ATOM     18  C   UNL     1       0.215  15.235  19.017  0.00  0.00    +0.000 C 
ATOM     19  O   UNL     1      -0.892  15.727  19.205  0.00  0.00    +0.000 OA
ATOM     20  H   UNL     1       2.215  15.617  18.617  0.00  0.00    +0.000 HD
BRANCH  17  22
ATOM     21  C   UNL     1       1.397  18.298  19.330  0.00  0.00    +0.000 C 
ATOM     22  C   UNL     1       1.082  17.369  18.173  0.00  0.00    +0.000 C 
ENDBRANCH  17  22
ENDBRANCH  10  18
ENDBRANCH   1  13
BRANCH   5  23
ATOM     23  N   UNL     1       2.111   5.166  20.967  0.00  0.00    +0.000 N 
ATOM     24  H   UNL     1       2.135   5.382  21.962  0.00  0.00    +0.000 HD
BRANCH  23  25
ATOM     25  C   UNL     1       1.065   4.214  20.591  0.00  0.00    +0.000 C 
BRANCH  25  26
ATOM     26  C   UNL     1       1.715   2.980  19.985  0.00  0.00    +0.000 C 
BRANCH  26  27
ATOM     27  C   UNL     1       1.318   2.809  18.539  0.00  0.00    +0.000 C 
ATOM     28  F   UNL     1       1.069   3.975  17.911  0.00  0.00    +0.000 F 
ATOM     29  F   UNL     1       2.292   2.174  17.846  0.00  0.00    +0.000 F 
ATOM     30  F   UNL     1       0.202   2.051  18.441  0.00  0.00    +0.000 F 
ENDBRANCH  26  27
ENDBRANCH  25  26
ENDBRANCH  23  25
ENDBRANCH   5  23
BRANCH   7  31
ATOM     31  O   UNL     1       3.764   7.357  16.989  0.00  0.00    +0.000 OA
BRANCH  31  32
ATOM     32  C   UNL     1       4.937   6.630  16.951  0.00  0.00    +0.000 A 
ATOM     33  C   UNL     1       6.185   7.148  17.323  0.00  0.00    +0.000 A 
ATOM     34  C   UNL     1       7.342   6.391  17.135  0.00  0.00    +0.000 A 
ATOM     35  C   UNL     1       7.250   5.089  16.645  0.00  0.00    +0.000 A 
ATOM     36  C   UNL     1       5.996   4.551  16.366  0.00  0.00    +0.000 A 
ATOM     37  C   UNL     1       4.839   5.308  16.521  0.00  0.00    +0.000 A 
BRANCH  36  38
ATOM     38  O   UNL     1       5.864   3.272  15.912  0.00  0.00    +0.000 OA
ATOM     39  H   UNL     1       5.022   2.913  16.239  0.00  0.00    +0.000 HD
ENDBRANCH  36  38
ENDBRANCH  31  32
ENDBRANCH   7  31
TORSDOF 10
ENDMDL
MODEL 6
REMARK VINA RESULT:      -8.1      1.227      1.412
REMARK  Name = 
REMARK  12 active torsions:
REMARK  status: ('A' for Active; 'I' for Inactive)
REMARK    1  A    between atoms: C_1  and  C_2
REMARK    2  A    between atoms: C_2  and  N_3
REMARK    3  A    between atoms: C_4  and  C_6
REMARK    4  A    between atoms: C_9  and  N_10
REMARK    5  A    between atoms: C_14  and  N_15
REMARK    6  A    between atoms: N_15  and  C_16
REMARK    7  A    between atoms: C_16  and  C_17
REMARK    8  A    between atoms: C_17  and  C_18
REMARK    9  A    between atoms: C_23  and  O_24
REMARK   10  A    between atoms: O_24  and  C_25
REMARK   11  A    between atoms: C_29  and  O_30
REMARK   12  A    between atoms: C_35  and  C_36
REMARK                            x       y       z     vdW  Elec       q    Type
REMARK                         _______ _______ _______ _____ _____    ______ ____
ROOT
ATOM      1  N   UNL     1       0.940  10.239  19.738  0.00  0.00    +0.000 N 
ATOM      2  C   UNL     1       1.416  10.931  18.643  0.00  0.00    +0.000 A 
ATOM      3  N   UNL     1       2.187  10.208  17.877  0.00  0.00    +0.000 NA
ATOM      4  C   UNL     1       2.222   8.970  18.472  0.00  0.00    +0.000 A 
ATOM      5  C   UNL     1       2.836   7.784  17.993  0.00  0.00    +0.000 A 
ATOM      6  C   UNL     1       2.619   6.618  18.743  0.00  0.00    +0.000 A 
ATOM      7  C   UNL     1       1.999   6.646  19.996  0.00  0.00    +0.000 A 
ATOM      8  C   UNL     1       1.388   7.814  20.466  0.00  0.00    +0.000 A 
ATOM      9  C   UNL     1       1.497   8.969  19.673  0.00  0.00    +0.000 A 
ENDROOT
BRANCH   1  13
ATOM     10  C   UNL     1      -1.930  11.924  22.366  0.00  0.00    +0.000 A 
ATOM     11  C   UNL     1      -0.932  11.060  22.861  0.00  0.00    +0.000 A 
ATOM     12  C   UNL     1       0.013  10.464  22.010  0.00  0.00    +0.000 A 
ATOM     13  C   UNL     1      -0.012  10.761  20.652  0.00  0.00    +0.000 A 
ATOM     14  C   UNL     1      -1.002  11.621  20.153  0.00  0.00    +0.000 A 
ATOM     15  C   UNL     1      -1.969  12.207  20.987  0.00  0.00    +0.000 A 
ATOM     16  C   UNL     1      -3.037  13.018  20.304  0.00  0.00    +0.000 C 
BRANCH  10  18
ATOM     17  N   UNL     1      -3.975  11.911  23.725  0.00  0.00    +0.000 N 
ATOM     18  C   UNL     1      -2.840  12.604  23.344  0.00  0.00    +0.000 C 
ATOM     19  O   UNL     1      -2.563  13.706  23.804  0.00  0.00    +0.000 OA
ATOM     20  H   UNL     1      -4.305  11.147  23.151  0.00  0.00    +0.000 HD
BRANCH  17  22
ATOM     21  C   UNL     1      -6.278  12.671  24.185  0.00  0.00    +0.000 C 
ATOM     22  C   UNL     1      -4.870  12.481  24.717  0.00  0.00    +0.000 C 
ENDBRANCH  17  22
ENDBRANCH  10  18
ENDBRANCH   1  13
BRANCH   5  23
ATOM     23  N   UNL     1       3.663   7.659  16.848  0.00  0.00    +0.000 N 
ATOM     24  H   UNL     1       4.088   8.559  16.630  0.00  0.00    +0.000 HD
BRANCH  23  25
ATOM     25  C   UNL     1       4.606   6.540  16.840  0.00  0.00    +0.000 C 
BRANCH  25  26
ATOM     26  C   UNL     1       6.011   7.075  17.066  0.00  0.00    +0.000 C 
BRANCH  26  27
ATOM     27  C   UNL     1       6.846   6.098  17.858  0.00  0.00    +0.000 C 
ATOM     28  F   UNL     1       7.527   5.227  17.087  0.00  0.00    +0.000 F 
ATOM     29  F   UNL     1       7.749   6.751  18.625  0.00  0.00    +0.000 F 
ATOM     30  F   UNL     1       6.065   5.374  18.692  0.00  0.00    +0.000 F 
ENDBRANCH  26  27
ENDBRANCH  25  26
ENDBRANCH  23  25
ENDBRANCH   5  23
BRANCH   7  31
ATOM     31  O   UNL     1       1.923   5.547  20.832  0.00  0.00    +0.000 OA
BRANCH  31  32
ATOM     32  C   UNL     1       2.089   4.289  20.290  0.00  0.00    +0.000 A 
ATOM     33  C   UNL     1       1.036   3.517  19.779  0.00  0.00    +0.000 A 
ATOM     34  C   UNL     1       1.266   2.204  19.366  0.00  0.00    +0.000 A 
ATOM     35  C   UNL     1       2.558   1.682  19.392  0.00  0.00    +0.000 A 
ATOM     36  C   UNL     1       3.613   2.489  19.815  0.00  0.00    +0.000 A 
ATOM     37  C   UNL     1       3.390   3.789  20.257  0.00  0.00    +0.000 A 
BRANCH  36  38
ATOM     38  O   UNL     1       4.895   2.023  19.827  0.00  0.00    +0.000 OA
ATOM     39  H   UNL     1       4.879   1.080  20.063  0.00  0.00    +0.000 HD
ENDBRANCH  36  38
ENDBRANCH  31  32
ENDBRANCH   7  31
TORSDOF 10
ENDMDL
MODEL 7
REMARK VINA RESULT:      -8.1      0.905      1.277
REMARK  Name = 
REMARK  12 active torsions:
REMARK  status: ('A' for Active; 'I' for Inactive)
REMARK    1  A    between atoms: C_1  and  C_2
REMARK    2  A    between atoms: C_2  and  N_3
REMARK    3  A    between atoms: C_4  and  C_6
REMARK    4  A    between atoms: C_9  and  N_10
REMARK    5  A    between atoms: C_14  and  N_15
REMARK    6  A    between atoms: N_15  and  C_16
REMARK    7  A    between atoms: C_16  and  C_17
REMARK    8  A    between atoms: C_17  and  C_18
REMARK    9  A    between atoms: C_23  and  O_24
REMARK   10  A    between atoms: O_24  and  C_25
REMARK   11  A    between atoms: C_29  and  O_30
REMARK   12  A    between atoms: C_35  and  C_36
REMARK                            x       y       z     vdW  Elec       q    Type
REMARK                         _______ _______ _______ _____ _____    ______ ____
ROOT
ATOM      1  N   UNL     1       0.911  10.158  19.764  0.00  0.00    +0.000 N 
ATOM      2  C   UNL     1       1.366  10.849  18.660  0.00  0.00    +0.000 A 
ATOM      3  N   UNL     1       2.137  10.131  17.890  0.00  0.00    +0.000 NA
ATOM      4  C   UNL     1       2.193   8.897  18.491  0.00  0.00    +0.000 A 
ATOM      5  C   UNL     1       2.815   7.716  18.010  0.00  0.00    +0.000 A 
ATOM      6  C   UNL     1       2.621   6.551  18.769  0.00  0.00    +0.000 A 
ATOM      7  C   UNL     1       2.014   6.579  20.029  0.00  0.00    +0.000 A 
ATOM      8  C   UNL     1       1.396   7.742  20.500  0.00  0.00    +0.000 A 
ATOM      9  C   UNL     1       1.481   8.894  19.700  0.00  0.00    +0.000 A 
ENDROOT
BRANCH   1  13
ATOM     10  C   UNL     1      -1.944  11.826  22.419  0.00  0.00    +0.000 A 
ATOM     11  C   UNL     1      -0.961  10.936  22.898  0.00  0.00    +0.000 A 
ATOM     12  C   UNL     1      -0.022  10.345  22.038  0.00  0.00    +0.000 A 
ATOM     13  C   UNL     1      -0.037  10.674  20.687  0.00  0.00    +0.000 A 
ATOM     14  C   UNL     1      -1.012  11.559  20.204  0.00  0.00    +0.000 A 
ATOM     15  C   UNL     1      -1.974  12.141  21.047  0.00  0.00    +0.000 A 
ATOM     16  C   UNL     1      -3.026  12.984  20.379  0.00  0.00    +0.000 C 
BRANCH  10  18
ATOM     17  N   UNL     1      -2.512  13.786  23.786  0.00  0.00    +0.000 N 
ATOM     18  C   UNL     1      -2.848  12.498  23.410  0.00  0.00    +0.000 C 
ATOM     19  O   UNL     1      -3.852  11.935  23.831  0.00  0.00    +0.000 OA
ATOM     20  H   UNL     1      -1.568  14.117  23.633  0.00  0.00    +0.000 HD
BRANCH  17  22
ATOM     21  C   UNL     1      -4.328  15.449  23.963  0.00  0.00    +0.000 C 
ATOM     22  C   UNL     1      -3.375  14.522  24.693  0.00  0.00    +0.000 C 
ENDBRANCH  17  22
ENDBRANCH  10  18
ENDBRANCH   1  13
BRANCH   5  23
ATOM     23  N   UNL     1       3.631   7.594  16.857  0.00  0.00    +0.000 N 
ATOM     24  H   UNL     1       3.726   8.502  16.405  0.00  0.00    +0.000 HD
BRANCH  23  25
ATOM     25  C   UNL     1       4.896   6.878  17.022  0.00  0.00    +0.000 C 
BRANCH  25  26
ATOM     26  C   UNL     1       5.283   6.248  15.693  0.00  0.00    +0.000 C 
BRANCH  26  27
ATOM     27  C   UNL     1       5.472   4.756  15.832  0.00  0.00    +0.000 C 
ATOM     28  F   UNL     1       4.828   4.045  14.884  0.00  0.00    +0.000 F 
ATOM     29  F   UNL     1       6.783   4.430  15.763  0.00  0.00    +0.000 F 
ATOM     30  F   UNL     1       5.019   4.331  17.033  0.00  0.00    +0.000 F 
ENDBRANCH  26  27
ENDBRANCH  25  26
ENDBRANCH  23  25
ENDBRANCH   5  23
BRANCH   7  31
ATOM     31  O   UNL     1       1.961   5.483  20.871  0.00  0.00    +0.000 OA
BRANCH  31  32
ATOM     32  C   UNL     1       2.182   4.228  20.342  0.00  0.00    +0.000 A 
ATOM     33  C   UNL     1       3.404   3.548  20.436  0.00  0.00    +0.000 A 
ATOM     34  C   UNL     1       3.587   2.339  19.765  0.00  0.00    +0.000 A 
ATOM     35  C   UNL     1       2.530   1.768  19.058  0.00  0.00    +0.000 A 
ATOM     36  C   UNL     1       1.291   2.406  19.047  0.00  0.00    +0.000 A 
ATOM     37  C   UNL     1       1.107   3.627  19.688  0.00  0.00    +0.000 A 
BRANCH  36  38
ATOM     38  O   UNL     1       0.226   1.864  18.390  0.00  0.00    +0.000 OA
ATOM     39  H   UNL     1      -0.130   1.136  18.926  0.00  0.00    +0.000 HD
ENDBRANCH  36  38
ENDBRANCH  31  32
ENDBRANCH   7  31
TORSDOF 10
ENDMDL
MODEL 8
REMARK VINA RESULT:      -8.0      4.956     10.447
REMARK  Name = 
REMARK  12 active torsions:
REMARK  status: ('A' for Active; 'I' for Inactive)
REMARK    1  A    between atoms: C_1  and  C_2
REMARK    2  A    between atoms: C_2  and  N_3
REMARK    3  A    between atoms: C_4  and  C_6
REMARK    4  A    between atoms: C_9  and  N_10
REMARK    5  A    between atoms: C_14  and  N_15
REMARK    6  A    between atoms: N_15  and  C_16
REMARK    7  A    between atoms: C_16  and  C_17
REMARK    8  A    between atoms: C_17  and  C_18
REMARK    9  A    between atoms: C_23  and  O_24
REMARK   10  A    between atoms: O_24  and  C_25
REMARK   11  A    between atoms: C_29  and  O_30
REMARK   12  A    between atoms: C_35  and  C_36
REMARK                            x       y       z     vdW  Elec       q    Type
REMARK                         _______ _______ _______ _____ _____    ______ ____
ROOT
ATOM      1  N   UNL     1       0.798  10.128  20.022  0.00  0.00    +0.000 N 
ATOM      2  C   UNL     1       1.204  10.763  21.177  0.00  0.00    +0.000 A 
ATOM      3  N   UNL     1       0.380  11.700  21.562  0.00  0.00    +0.000 NA
ATOM      4  C   UNL     1      -0.634  11.686  20.635  0.00  0.00    +0.000 A 
ATOM      5  C   UNL     1      -1.838  12.438  20.641  0.00  0.00    +0.000 A 
ATOM      6  C   UNL     1      -2.766  12.145  19.631  0.00  0.00    +0.000 A 
ATOM      7  C   UNL     1      -2.455  11.301  18.560  0.00  0.00    +0.000 A 
ATOM      8  C   UNL     1      -1.272  10.554  18.556  0.00  0.00    +0.000 A 
ATOM      9  C   UNL     1      -0.377  10.750  19.622  0.00  0.00    +0.000 A 
ENDROOT
BRANCH   1  13
ATOM     10  C   UNL     1       2.781   6.693  18.522  0.00  0.00    +0.000 A 
ATOM     11  C   UNL     1       2.699   7.865  17.743  0.00  0.00    +0.000 A 
ATOM     12  C   UNL     1       2.024   9.008  18.201  0.00  0.00    +0.000 A 
ATOM     13  C   UNL     1       1.452   8.995  19.469  0.00  0.00    +0.000 A 
ATOM     14  C   UNL     1       1.530   7.832  20.249  0.00  0.00    +0.000 A 
ATOM     15  C   UNL     1       2.182   6.673  19.796  0.00  0.00    +0.000 A 
ATOM     16  C   UNL     1       2.093   5.465  20.688  0.00  0.00    +0.000 C 
BRANCH  10  18
ATOM     17  N   UNL     1       4.960   5.587  18.285  0.00  0.00    +0.000 N 
ATOM     18  C   UNL     1       3.605   5.548  18.012  0.00  0.00    +0.000 C 
ATOM     19  O   UNL     1       3.086   4.612  17.415  0.00  0.00    +0.000 OA
ATOM     20  H   UNL     1       5.391   6.467  18.538  0.00  0.00    +0.000 HD
BRANCH  17  22
ATOM     21  C   UNL     1       7.211   4.935  17.508  0.00  0.00    +0.000 C 
ATOM     22  C   UNL     1       5.811   4.483  17.878  0.00  0.00    +0.000 C 
ENDBRANCH  17  22
ENDBRANCH  10  18
ENDBRANCH   1  13
BRANCH   5  23
ATOM     23  N   UNL     1      -2.189  13.470  21.548  0.00  0.00    +0.000 N 
ATOM     24  H   UNL     1      -3.100  13.852  21.299  0.00  0.00    +0.000 HD
BRANCH  23  25
ATOM     25  C   UNL     1      -2.039  13.171  22.972  0.00  0.00    +0.000 C 
BRANCH  25  26
ATOM     26  C   UNL     1      -3.094  12.152  23.376  0.00  0.00    +0.000 C 
BRANCH  26  27
ATOM     27  C   UNL     1      -4.218  12.807  24.144  0.00  0.00    +0.000 C 
ATOM     28  F   UNL     1      -4.404  12.283  25.371  0.00  0.00    +0.000 F 
ATOM     29  F   UNL     1      -3.984  14.130  24.299  0.00  0.00    +0.000 F 
ATOM     30  F   UNL     1      -5.385  12.686  23.471  0.00  0.00    +0.000 F 
ENDBRANCH  26  27
ENDBRANCH  25  26
ENDBRANCH  23  25
ENDBRANCH   5  23
BRANCH   7  31
ATOM     31  O   UNL     1      -3.282  11.126  17.464  0.00  0.00    +0.000 OA
BRANCH  31  32
ATOM     32  C   UNL     1      -4.635  11.353  17.612  0.00  0.00    +0.000 A 
ATOM     33  C   UNL     1      -5.305  12.452  17.056  0.00  0.00    +0.000 A 
ATOM     34  C   UNL     1      -6.648  12.681  17.358  0.00  0.00    +0.000 A 
ATOM     35  C   UNL     1      -7.346  11.774  18.154  0.00  0.00    +0.000 A 
ATOM     36  C   UNL     1      -6.696  10.636  18.625  0.00  0.00    +0.000 A 
ATOM     37  C   UNL     1      -5.349  10.415  18.356  0.00  0.00    +0.000 A 
BRANCH  36  38
ATOM     38  O   UNL     1      -7.354   9.712  19.383  0.00  0.00    +0.000 OA
ATOM     39  H   UNL     1      -6.721   9.314  20.005  0.00  0.00    +0.000 HD
ENDBRANCH  36  38
ENDBRANCH  31  32
ENDBRANCH   7  31
TORSDOF 10
ENDMDL
MODEL 9
REMARK VINA RESULT:      -7.9      1.540      1.938
REMARK  Name = 
REMARK  12 active torsions:
REMARK  status: ('A' for Active; 'I' for Inactive)
REMARK    1  A    between atoms: C_1  and  C_2
REMARK    2  A    between atoms: C_2  and  N_3
REMARK    3  A    between atoms: C_4  and  C_6
REMARK    4  A    between atoms: C_9  and  N_10
REMARK    5  A    between atoms: C_14  and  N_15
REMARK    6  A    between atoms: N_15  and  C_16
REMARK    7  A    between atoms: C_16  and  C_17
REMARK    8  A    between atoms: C_17  and  C_18
REMARK    9  A    between atoms: C_23  and  O_24
REMARK   10  A    between atoms: O_24  and  C_25
REMARK   11  A    between atoms: C_29  and  O_30
REMARK   12  A    between atoms: C_35  and  C_36
REMARK                            x       y       z     vdW  Elec       q    Type
REMARK                         _______ _______ _______ _____ _____    ______ ____
ROOT
ATOM      1  N   UNL     1       0.971  10.146  19.692  0.00  0.00    +0.000 N 
ATOM      2  C   UNL     1       1.417  10.820  18.574  0.00  0.00    +0.000 A 
ATOM      3  N   UNL     1       2.173  10.086  17.803  0.00  0.00    +0.000 NA
ATOM      4  C   UNL     1       2.228   8.860  18.419  0.00  0.00    +0.000 A 
ATOM      5  C   UNL     1       2.834   7.667  17.946  0.00  0.00    +0.000 A 
ATOM      6  C   UNL     1       2.640   6.514  18.722  0.00  0.00    +0.000 A 
ATOM      7  C   UNL     1       2.050   6.562  19.988  0.00  0.00    +0.000 A 
ATOM      8  C   UNL     1       1.446   7.736  20.452  0.00  0.00    +0.000 A 
ATOM      9  C   UNL     1       1.531   8.877  19.637  0.00  0.00    +0.000 A 
ENDROOT
BRANCH   1  13
ATOM     10  C   UNL     1      -1.843  11.866  22.357  0.00  0.00    +0.000 A 
ATOM     11  C   UNL     1      -0.826  11.021  22.844  0.00  0.00    +0.000 A 
ATOM     12  C   UNL     1       0.102  10.414  21.983  0.00  0.00    +0.000 A 
ATOM     13  C   UNL     1       0.038  10.681  20.619  0.00  0.00    +0.000 A 
ATOM     14  C   UNL     1      -0.972  11.522  20.128  0.00  0.00    +0.000 A 
ATOM     15  C   UNL     1      -1.921  12.119  20.974  0.00  0.00    +0.000 A 
ATOM     16  C   UNL     1      -3.013  12.906  20.302  0.00  0.00    +0.000 C 
BRANCH  10  18
ATOM     17  N   UNL     1      -3.814  11.843  23.822  0.00  0.00    +0.000 N 
ATOM     18  C   UNL     1      -2.733  12.561  23.344  0.00  0.00    +0.000 C 
ATOM     19  O   UNL     1      -2.484  13.698  23.728  0.00  0.00    +0.000 OA
ATOM     20  H   UNL     1      -4.138  11.034  23.308  0.00  0.00    +0.000 HD
BRANCH  17  22
ATOM     21  C   UNL     1      -6.022  12.858  24.256  0.00  0.00    +0.000 C 
ATOM     22  C   UNL     1      -4.684  12.428  24.827  0.00  0.00    +0.000 C 
ENDBRANCH  17  22
ENDBRANCH  10  18
ENDBRANCH   1  13
BRANCH   5  23
ATOM     23  N   UNL     1       3.635   7.525  16.784  0.00  0.00    +0.000 N 
ATOM     24  H   UNL     1       3.914   8.443  16.444  0.00  0.00    +0.000 HD
BRANCH  23  25
ATOM     25  C   UNL     1       4.732   6.559  16.859  0.00  0.00    +0.000 C 
BRANCH  25  26
ATOM     26  C   UNL     1       5.902   7.197  17.591  0.00  0.00    +0.000 C 
BRANCH  26  27
ATOM     27  C   UNL     1       7.212   6.573  17.173  0.00  0.00    +0.000 C 
ATOM     28  F   UNL     1       7.116   5.824  16.056  0.00  0.00    +0.000 F 
ATOM     29  F   UNL     1       8.145   7.526  16.943  0.00  0.00    +0.000 F 
ATOM     30  F   UNL     1       7.691   5.776  18.154  0.00  0.00    +0.000 F 
ENDBRANCH  26  27
ENDBRANCH  25  26
ENDBRANCH  23  25
ENDBRANCH   5  23
BRANCH   7  31
ATOM     31  O   UNL     1       1.998   5.477  20.846  0.00  0.00    +0.000 OA
BRANCH  31  32
ATOM     32  C   UNL     1       2.215   4.215  20.331  0.00  0.00    +0.000 A 
ATOM     33  C   UNL     1       3.437   3.537  20.424  0.00  0.00    +0.000 A 
ATOM     34  C   UNL     1       3.614   2.318  19.767  0.00  0.00    +0.000 A 
ATOM     35  C   UNL     1       2.550   1.738  19.078  0.00  0.00    +0.000 A 
ATOM     36  C   UNL     1       1.312   2.376  19.070  0.00  0.00    +0.000 A 
ATOM     37  C   UNL     1       1.134   3.606  19.696  0.00  0.00    +0.000 A 
BRANCH  36  38
ATOM     38  O   UNL     1       0.240   1.826  18.431  0.00  0.00    +0.000 OA
ATOM     39  H   UNL     1      -0.103   2.471  17.790  0.00  0.00    +0.000 HD
ENDBRANCH  36  38
ENDBRANCH  31  32
ENDBRANCH   7  31
TORSDOF 10
ENDMDL
