MODEL 1
REMARK VINA RESULT:      -9.7      0.000      0.000
REMARK  Name = 
REMARK  4 active torsions:
REMARK  status: ('A' for Active; 'I' for Inactive)
REMARK    1  A    between atoms: C_1  and  N_2
REMARK    2  A    between atoms: C_5  and  C_6
REMARK    3  A    between atoms: N_10  and  S_11
REMARK    4  A    between atoms: S_11  and  C_12
REMARK                            x       y       z     vdW  Elec       q    Type
REMARK                         _______ _______ _______ _____ _____    ______ ____
ROOT
ATOM      1  C   UNL     1       2.604  12.074  17.822  0.00  0.00    +0.000 C 
ATOM      2  N   UNL     1       1.428  11.677  18.587  0.00  0.00    +0.000 N 
ATOM      3  C   UNL     1       1.077  10.270  18.565  0.00  0.00    +0.000 C 
ATOM      4  C   UNL     1       1.148   9.576  19.868  0.00  0.00    +0.000 A 
ATOM      5  C   UNL     1       1.643   8.322  20.182  0.00  0.00    +0.000 A 
ATOM      6  N   UNL     1       1.198   8.022  21.443  0.00  0.00    +0.000 N 
ATOM      7  C   UNL     1       0.453   9.052  21.930  0.00  0.00    +0.000 A 
ATOM      8  N   UNL     1      -0.259   9.001  23.069  0.00  0.00    +0.000 NA
ATOM      9  C   UNL     1      -0.924  10.147  23.299  0.00  0.00    +0.000 A 
ATOM     10  C   UNL     1      -0.814  11.311  22.541  0.00  0.00    +0.000 A 
ATOM     11  C   UNL     1      -0.004  11.358  21.380  0.00  0.00    +0.000 A 
ATOM     12  C   UNL     1       0.557  10.115  21.041  0.00  0.00    +0.000 A 
ATOM     13  C   UNL     1       0.151  12.582  20.536  0.00  0.00    +0.000 A 
ATOM     14  C   UNL     1      -0.193  13.826  21.123  0.00  0.00    +0.000 A 
ATOM     15  C   UNL     1      -0.335  14.989  20.377  0.00  0.00    +0.000 A 
ATOM     16  F   UNL     1      -0.683  16.129  20.984  0.00  0.00    +0.000 F 
ATOM     17  C   UNL     1      -0.152  14.967  19.012  0.00  0.00    +0.000 A 
ATOM     18  C   UNL     1       0.359  13.810  18.438  0.00  0.00    +0.000 A 
ATOM     19  C   UNL     1       0.628  12.640  19.191  0.00  0.00    +0.000 A 
ATOM     20  H   UNL     1       1.304   7.135  21.916  0.00  0.00    +0.000 HD
ENDROOT
BRANCH   5  21
ATOM     21  C   UNL     1       2.370   7.334  19.498  0.00  0.00    +0.000 C 
ATOM     22  C   UNL     1       2.947   7.629  18.312  0.00  0.00    +0.000 C 
ATOM     23  C   UNL     1       3.473   6.367  17.723  0.00  0.00    +0.000 C 
ATOM     24  C   UNL     1       4.703   6.149  16.852  0.00  0.00    +0.000 C 
ATOM     25  N   UNL     1       5.366   4.905  17.435  0.00  0.00    +0.000 NA
ATOM     26  C   UNL     1       4.398   4.375  18.488  0.00  0.00    +0.000 C 
ATOM     27  C   UNL     1       3.843   5.663  19.022  0.00  0.00    +0.000 C 
ATOM     28  C   UNL     1       2.624   5.877  19.888  0.00  0.00    +0.000 C 
BRANCH  25  29
ATOM     29  S   UNL     1       6.961   5.205  18.051  0.00  0.00    +0.000 S 
ATOM     30  C   UNL     1       7.167   6.913  17.587  0.00  0.00    +0.000 C 
ATOM     31  O   UNL     1       6.923   5.116  19.481  0.00  0.00    +0.000 OA
ATOM     32  O   UNL     1       7.887   4.436  17.249  0.00  0.00    +0.000 OA
ENDBRANCH  25  29
ENDBRANCH   5  21
TORSDOF 2
ENDMDL
MODEL 2
REMARK VINA RESULT:      -9.1      0.898      1.007
REMARK  Name = 
REMARK  4 active torsions:
REMARK  status: ('A' for Active; 'I' for Inactive)
REMARK    1  A    between atoms: C_1  and  N_2
REMARK    2  A    between atoms: C_5  and  C_6
REMARK    3  A    between atoms: N_10  and  S_11
REMARK    4  A    between atoms: S_11  and  C_12
REMARK                            x       y       z     vdW  Elec       q    Type
REMARK                         _______ _______ _______ _____ _____    ______ ____
ROOT
ATOM      1  C   UNL     1       2.526  12.612  18.025  0.00  0.00    +0.000 C 
ATOM      2  N   UNL     1       1.299  12.243  18.719  0.00  0.00    +0.000 N 
ATOM      3  C   UNL     1       0.902  10.850  18.654  0.00  0.00    +0.000 C 
ATOM      4  C   UNL     1       0.880  10.133  19.947  0.00  0.00    +0.000 A 
ATOM      5  C   UNL     1       1.315   8.859  20.265  0.00  0.00    +0.000 A 
ATOM      6  N   UNL     1       0.794   8.554  21.496  0.00  0.00    +0.000 N 
ATOM      7  C   UNL     1       0.059   9.602  21.960  0.00  0.00    +0.000 A 
ATOM      8  N   UNL     1      -0.714   9.558  23.059  0.00  0.00    +0.000 NA
ATOM      9  C   UNL     1      -1.351  10.722  23.273  0.00  0.00    +0.000 A 
ATOM     10  C   UNL     1      -1.163  11.894  22.543  0.00  0.00    +0.000 A 
ATOM     11  C   UNL     1      -0.291  11.931  21.427  0.00  0.00    +0.000 A 
ATOM     12  C   UNL     1       0.246  10.675  21.097  0.00  0.00    +0.000 A 
ATOM     13  C   UNL     1      -0.050  13.162  20.614  0.00  0.00    +0.000 A 
ATOM     14  C   UNL     1      -0.383  14.407  21.203  0.00  0.00    +0.000 A 
ATOM     15  C   UNL     1      -0.447  15.585  20.471  0.00  0.00    +0.000 A 
ATOM     16  F   UNL     1      -0.787  16.728  21.078  0.00  0.00    +0.000 F 
ATOM     17  C   UNL     1      -0.191  15.579  19.117  0.00  0.00    +0.000 A 
ATOM     18  C   UNL     1       0.311  14.414  18.552  0.00  0.00    +0.000 A 
ATOM     19  C   UNL     1       0.500  13.224  19.297  0.00  0.00    +0.000 A 
ATOM     20  H   UNL     1       0.845   7.658  21.959  0.00  0.00    +0.000 HD
ENDROOT
BRANCH   5  21
ATOM     21  C   UNL     1       2.045   7.857  19.604  0.00  0.00    +0.000 C 
ATOM     22  C   UNL     1       2.655   8.138  18.432  0.00  0.00    +0.000 C 
ATOM     23  C   UNL     1       3.177   6.866  17.861  0.00  0.00    +0.000 C 
ATOM     24  C   UNL     1       4.425   6.626  17.022  0.00  0.00    +0.000 C 
ATOM     25  N   UNL     1       5.055   5.375  17.626  0.00  0.00    +0.000 NA
ATOM     26  C   UNL     1       4.054   4.864  18.656  0.00  0.00    +0.000 C 
ATOM     27  C   UNL     1       3.504   6.162  19.172  0.00  0.00    +0.000 C 
ATOM     28  C   UNL     1       2.267   6.398  20.006  0.00  0.00    +0.000 C 
BRANCH  25  29
ATOM     29  S   UNL     1       6.638   5.654  18.280  0.00  0.00    +0.000 S 
ATOM     30  C   UNL     1       7.578   4.442  17.374  0.00  0.00    +0.000 C 
ATOM     31  O   UNL     1       7.071   6.963  17.889  0.00  0.00    +0.000 OA
ATOM     32  O   UNL     1       6.618   5.224  19.661  0.00  0.00    +0.000 OA
ENDBRANCH  25  29
ENDBRANCH   5  21
TORSDOF 2
ENDMDL
MODEL 3
REMARK VINA RESULT:      -8.8      2.211      2.748
REMARK  Name = 
REMARK  4 active torsions:
REMARK  status: ('A' for Active; 'I' for Inactive)
REMARK    1  A    between atoms: C_1  and  N_2
REMARK    2  A    between atoms: C_5  and  C_6
REMARK    3  A    between atoms: N_10  and  S_11
REMARK    4  A    between atoms: S_11  and  C_12
REMARK                            x       y       z     vdW  Elec       q    Type
REMARK                         _______ _______ _______ _____ _____    ______ ____
ROOT
ATOM      1  C   UNL     1       2.558  12.645  18.127  0.00  0.00    +0.000 C 
ATOM      2  N   UNL     1       1.283  12.388  18.784  0.00  0.00    +0.000 N 
ATOM      3  C   UNL     1       0.819  11.014  18.798  0.00  0.00    +0.000 C 
ATOM      4  C   UNL     1       0.702  10.395  20.135  0.00  0.00    +0.000 A 
ATOM      5  C   UNL     1       1.056   9.127  20.563  0.00  0.00    +0.000 A 
ATOM      6  N   UNL     1       0.464   8.938  21.785  0.00  0.00    +0.000 N 
ATOM      7  C   UNL     1      -0.236  10.051  22.138  0.00  0.00    +0.000 A 
ATOM      8  N   UNL     1      -1.060  10.124  23.198  0.00  0.00    +0.000 NA
ATOM      9  C   UNL     1      -1.646  11.330  23.298  0.00  0.00    +0.000 A 
ATOM     10  C   UNL     1      -1.364  12.435  22.497  0.00  0.00    +0.000 A 
ATOM     11  C   UNL     1      -0.441  12.349  21.426  0.00  0.00    +0.000 A 
ATOM     12  C   UNL     1       0.045  11.048  21.212  0.00  0.00    +0.000 A 
ATOM     13  C   UNL     1      -0.101  13.505  20.541  0.00  0.00    +0.000 A 
ATOM     14  C   UNL     1      -0.396  14.804  21.024  0.00  0.00    +0.000 A 
ATOM     15  C   UNL     1      -0.366  15.928  20.209  0.00  0.00    +0.000 A 
ATOM     16  F   UNL     1      -0.674  17.126  20.717  0.00  0.00    +0.000 F 
ATOM     17  C   UNL     1      -0.050  15.810  18.873  0.00  0.00    +0.000 A 
ATOM     18  C   UNL     1       0.417  14.585  18.416  0.00  0.00    +0.000 A 
ATOM     19  C   UNL     1       0.510  13.445  19.252  0.00  0.00    +0.000 A 
ATOM     20  H   UNL     1       0.448   8.076  22.312  0.00  0.00    +0.000 HD
ENDROOT
BRANCH   5  21
ATOM     21  C   UNL     1       1.762   8.047  20.010  0.00  0.00    +0.000 C 
ATOM     22  C   UNL     1       2.029   6.963  20.771  0.00  0.00    +0.000 C 
ATOM     23  C   UNL     1       2.946   6.072  20.009  0.00  0.00    +0.000 C 
ATOM     24  C   UNL     1       3.041   4.552  20.016  0.00  0.00    +0.000 C 
ATOM     25  N   UNL     1       3.165   4.171  18.544  0.00  0.00    +0.000 NA
ATOM     26  C   UNL     1       3.312   5.487  17.788  0.00  0.00    +0.000 C 
ATOM     27  C   UNL     1       2.425   6.376  18.610  0.00  0.00    +0.000 C 
ATOM     28  C   UNL     1       2.331   7.884  18.599  0.00  0.00    +0.000 C 
BRANCH  25  29
ATOM     29  S   UNL     1       1.848   3.192  17.978  0.00  0.00    +0.000 S 
ATOM     30  C   UNL     1       1.006   2.867  19.515  0.00  0.00    +0.000 C 
ATOM     31  O   UNL     1       1.002   3.998  17.148  0.00  0.00    +0.000 OA
ATOM     32  O   UNL     1       2.405   1.934  17.530  0.00  0.00    +0.000 OA
ENDBRANCH  25  29
ENDBRANCH   5  21
TORSDOF 2
ENDMDL
MODEL 4
REMARK VINA RESULT:      -8.0      0.921      1.103
REMARK  Name = 
REMARK  4 active torsions:
REMARK  status: ('A' for Active; 'I' for Inactive)
REMARK    1  A    between atoms: C_1  and  N_2
REMARK    2  A    between atoms: C_5  and  C_6
REMARK    3  A    between atoms: N_10  and  S_11
REMARK    4  A    between atoms: S_11  and  C_12
REMARK                            x       y       z     vdW  Elec       q    Type
REMARK                         _______ _______ _______ _____ _____    ______ ____
ROOT
ATOM      1  C   UNL     1       2.572  12.821  17.959  0.00  0.00    +0.000 C 
ATOM      2  N   UNL     1       1.415  12.298  18.674  0.00  0.00    +0.000 N 
ATOM      3  C   UNL     1       1.073  10.908  18.440  0.00  0.00    +0.000 C 
ATOM      4  C   UNL     1       1.174  10.021  19.618  0.00  0.00    +0.000 A 
ATOM      5  C   UNL     1       1.684   8.739  19.725  0.00  0.00    +0.000 A 
ATOM      6  N   UNL     1       1.266   8.242  20.932  0.00  0.00    +0.000 N 
ATOM      7  C   UNL     1       0.523   9.177  21.585  0.00  0.00    +0.000 A 
ATOM      8  N   UNL     1      -0.167   8.943  22.716  0.00  0.00    +0.000 NA
ATOM      9  C   UNL     1      -0.835  10.033  23.132  0.00  0.00    +0.000 A 
ATOM     10  C   UNL     1      -0.749  11.301  22.563  0.00  0.00    +0.000 A 
ATOM     11  C   UNL     1       0.039  11.536  21.408  0.00  0.00    +0.000 A 
ATOM     12  C   UNL     1       0.603  10.366  20.871  0.00  0.00    +0.000 A 
ATOM     13  C   UNL     1       0.168  12.877  20.763  0.00  0.00    +0.000 A 
ATOM     14  C   UNL     1      -0.174  14.012  21.541  0.00  0.00    +0.000 A 
ATOM     15  C   UNL     1      -0.339  15.274  20.987  0.00  0.00    +0.000 A 
ATOM     16  F   UNL     1      -0.682  16.303  21.770  0.00  0.00    +0.000 F 
ATOM     17  C   UNL     1      -0.181  15.466  19.632  0.00  0.00    +0.000 A 
ATOM     18  C   UNL     1       0.328  14.417  18.877  0.00  0.00    +0.000 A 
ATOM     19  C   UNL     1       0.619  13.148  19.434  0.00  0.00    +0.000 A 
ATOM     20  H   UNL     1       1.388   7.294  21.260  0.00  0.00    +0.000 HD
ENDROOT
BRANCH   5  21
ATOM     21  C   UNL     1       2.405   7.876  18.883  0.00  0.00    +0.000 C 
ATOM     22  C   UNL     1       3.226   8.392  17.941  0.00  0.00    +0.000 C 
ATOM     23  C   UNL     1       3.700   7.278  17.076  0.00  0.00    +0.000 C 
ATOM     24  C   UNL     1       5.038   7.111  16.366  0.00  0.00    +0.000 C 
ATOM     25  N   UNL     1       5.428   5.660  16.628  0.00  0.00    +0.000 NA
ATOM     26  C   UNL     1       4.224   5.025  17.317  0.00  0.00    +0.000 C 
ATOM     27  C   UNL     1       3.734   6.184  18.135  0.00  0.00    +0.000 C 
ATOM     28  C   UNL     1       2.408   6.347  18.839  0.00  0.00    +0.000 C 
BRANCH  25  29
ATOM     29  S   UNL     1       6.903   5.500  17.530  0.00  0.00    +0.000 S 
ATOM     30  C   UNL     1       6.291   4.715  19.009  0.00  0.00    +0.000 C 
ATOM     31  O   UNL     1       7.763   4.584  16.842  0.00  0.00    +0.000 OA
ATOM     32  O   UNL     1       7.327   6.831  17.906  0.00  0.00    +0.000 OA
ENDBRANCH  25  29
ENDBRANCH   5  21
TORSDOF 2
ENDMDL
MODEL 5
REMARK VINA RESULT:      -7.9      2.568      3.929
REMARK  Name = 
REMARK  4 active torsions:
REMARK  status: ('A' for Active; 'I' for Inactive)
REMARK    1  A    between atoms: C_1  and  N_2
REMARK    2  A    between atoms: C_5  and  C_6
REMARK    3  A    between atoms: N_10  and  S_11
REMARK    4  A    between atoms: S_11  and  C_12
REMARK                            x       y       z     vdW  Elec       q    Type
REMARK                         _______ _______ _______ _____ _____    ______ ____
ROOT
ATOM      1  C   UNL     1       0.089  10.002  23.064  0.00  0.00    +0.000 C 
ATOM      2  N   UNL     1      -0.193  10.818  21.890  0.00  0.00    +0.000 N 
ATOM      3  C   UNL     1       0.721  10.696  20.771  0.00  0.00    +0.000 C 
ATOM      4  C   UNL     1       0.134  10.159  19.526  0.00  0.00    +0.000 A 
ATOM      5  C   UNL     1       0.643   9.237  18.627  0.00  0.00    +0.000 A 
ATOM      6  N   UNL     1      -0.128   9.313  17.497  0.00  0.00    +0.000 N 
ATOM      7  C   UNL     1      -1.108  10.243  17.666  0.00  0.00    +0.000 A 
ATOM      8  N   UNL     1      -1.925  10.670  16.687  0.00  0.00    +0.000 NA
ATOM      9  C   UNL     1      -2.782  11.611  17.121  0.00  0.00    +0.000 A 
ATOM     10  C   UNL     1      -2.923  12.028  18.443  0.00  0.00    +0.000 A 
ATOM     11  C   UNL     1      -2.092  11.513  19.468  0.00  0.00    +0.000 A 
ATOM     12  C   UNL     1      -1.085  10.657  18.992  0.00  0.00    +0.000 A 
ATOM     13  C   UNL     1      -2.207  11.923  20.901  0.00  0.00    +0.000 A 
ATOM     14  C   UNL     1      -3.420  12.531  21.310  0.00  0.00    +0.000 A 
ATOM     15  C   UNL     1      -3.556  13.178  22.531  0.00  0.00    +0.000 A 
ATOM     16  F   UNL     1      -4.721  13.752  22.853  0.00  0.00    +0.000 F 
ATOM     17  C   UNL     1      -2.488  13.261  23.398  0.00  0.00    +0.000 A 
ATOM     18  C   UNL     1      -1.348  12.524  23.104  0.00  0.00    +0.000 A 
ATOM     19  C   UNL     1      -1.220  11.755  21.920  0.00  0.00    +0.000 A 
ATOM     20  H   UNL     1       0.049   8.840  16.622  0.00  0.00    +0.000 HD
ENDROOT
BRANCH   5  21
ATOM     21  C   UNL     1       1.751   8.376  18.600  0.00  0.00    +0.000 C 
ATOM     22  C   UNL     1       1.888   7.430  19.556  0.00  0.00    +0.000 C 
ATOM     23  C   UNL     1       3.229   6.803  19.403  0.00  0.00    +0.000 C 
ATOM     24  C   UNL     1       3.659   5.368  19.680  0.00  0.00    +0.000 C 
ATOM     25  N   UNL     1       4.520   4.991  18.478  0.00  0.00    +0.000 NA
ATOM     26  C   UNL     1       4.685   6.273  17.669  0.00  0.00    +0.000 C 
ATOM     27  C   UNL     1       3.343   6.910  17.888  0.00  0.00    +0.000 C 
ATOM     28  C   UNL     1       2.918   8.332  17.611  0.00  0.00    +0.000 C 
BRANCH  25  29
ATOM     29  S   UNL     1       3.870   3.671  17.557  0.00  0.00    +0.000 S 
ATOM     30  C   UNL     1       3.982   2.358  18.756  0.00  0.00    +0.000 C 
ATOM     31  O   UNL     1       2.487   3.937  17.290  0.00  0.00    +0.000 OA
ATOM     32  O   UNL     1       4.818   3.366  16.509  0.00  0.00    +0.000 OA
ENDBRANCH  25  29
ENDBRANCH   5  21
TORSDOF 2
ENDMDL
MODEL 6
REMARK VINA RESULT:      -7.8      3.153      4.311
REMARK  Name = 
REMARK  4 active torsions:
REMARK  status: ('A' for Active; 'I' for Inactive)
REMARK    1  A    between atoms: C_1  and  N_2
REMARK    2  A    between atoms: C_5  and  C_6
REMARK    3  A    between atoms: N_10  and  S_11
REMARK    4  A    between atoms: S_11  and  C_12
REMARK                            x       y       z     vdW  Elec       q    Type
REMARK                         _______ _______ _______ _____ _____    ______ ____
ROOT
ATOM      1  C   UNL     1      -0.730  10.942  22.715  0.00  0.00    +0.000 C 
ATOM      2  N   UNL     1      -1.105  11.578  21.459  0.00  0.00    +0.000 N 
ATOM      3  C   UNL     1      -0.199  11.405  20.340  0.00  0.00    +0.000 C 
ATOM      4  C   UNL     1      -0.748  10.666  19.184  0.00  0.00    +0.000 A 
ATOM      5  C   UNL     1      -0.166   9.692  18.392  0.00  0.00    +0.000 A 
ATOM      6  N   UNL     1      -0.956   9.556  17.280  0.00  0.00    +0.000 N 
ATOM      7  C   UNL     1      -2.018  10.404  17.359  0.00  0.00    +0.000 A 
ATOM      8  N   UNL     1      -2.885  10.630  16.357  0.00  0.00    +0.000 NA
ATOM      9  C   UNL     1      -3.822  11.533  16.695  0.00  0.00    +0.000 A 
ATOM     10  C   UNL     1      -3.984  12.095  17.959  0.00  0.00    +0.000 A 
ATOM     11  C   UNL     1      -3.094  11.789  19.018  0.00  0.00    +0.000 A 
ATOM     12  C   UNL     1      -2.016  10.979  18.624  0.00  0.00    +0.000 A 
ATOM     13  C   UNL     1      -3.228  12.360  20.393  0.00  0.00    +0.000 A 
ATOM     14  C   UNL     1      -4.488  12.898  20.756  0.00  0.00    +0.000 A 
ATOM     15  C   UNL     1      -4.669  13.675  21.892  0.00  0.00    +0.000 A 
ATOM     16  F   UNL     1      -5.879  14.173  22.172  0.00  0.00    +0.000 F 
ATOM     17  C   UNL     1      -3.602  13.963  22.715  0.00  0.00    +0.000 A 
ATOM     18  C   UNL     1      -2.401  13.305  22.485  0.00  0.00    +0.000 A 
ATOM     19  C   UNL     1      -2.217  12.412  21.400  0.00  0.00    +0.000 A 
ATOM     20  H   UNL     1      -0.745   8.997  16.465  0.00  0.00    +0.000 HD
ENDROOT
BRANCH   5  21
ATOM     21  C   UNL     1       1.020   8.941  18.441  0.00  0.00    +0.000 C 
ATOM     22  C   UNL     1       1.191   8.026  19.421  0.00  0.00    +0.000 C 
ATOM     23  C   UNL     1       2.593   7.528  19.353  0.00  0.00    +0.000 C 
ATOM     24  C   UNL     1       3.141   6.145  19.680  0.00  0.00    +0.000 C 
ATOM     25  N   UNL     1       4.100   5.837  18.535  0.00  0.00    +0.000 NA
ATOM     26  C   UNL     1       4.188   7.117  17.711  0.00  0.00    +0.000 C 
ATOM     27  C   UNL     1       2.781   7.625  17.845  0.00  0.00    +0.000 C 
ATOM     28  C   UNL     1       2.239   8.996  17.519  0.00  0.00    +0.000 C 
BRANCH  25  29
ATOM     29  S   UNL     1       3.631   4.448  17.605  0.00  0.00    +0.000 S 
ATOM     30  C   UNL     1       4.222   3.140  18.661  0.00  0.00    +0.000 C 
ATOM     31  O   UNL     1       2.200   4.392  17.556  0.00  0.00    +0.000 OA
ATOM     32  O   UNL     1       4.451   4.428  16.413  0.00  0.00    +0.000 OA
ENDBRANCH  25  29
ENDBRANCH   5  21
TORSDOF 2
ENDMDL
MODEL 7
REMARK VINA RESULT:      -7.6      2.747      3.582
REMARK  Name = 
REMARK  4 active torsions:
REMARK  status: ('A' for Active; 'I' for Inactive)
REMARK    1  A    between atoms: C_1  and  N_2
REMARK    2  A    between atoms: C_5  and  C_6
REMARK    3  A    between atoms: N_10  and  S_11
REMARK    4  A    between atoms: S_11  and  C_12
REMARK                            x       y       z     vdW  Elec       q    Type
REMARK                         _______ _______ _______ _____ _____    ______ ____
ROOT
ATOM      1  C   UNL     1       4.337  13.191  18.387  0.00  0.00    +0.000 C 
ATOM      2  N   UNL     1       2.891  13.250  18.221  0.00  0.00    +0.000 N 
ATOM      3  C   UNL     1       2.223  12.017  17.852  0.00  0.00    +0.000 C 
ATOM      4  C   UNL     1       1.265  11.489  18.846  0.00  0.00    +0.000 A 
ATOM      5  C   UNL     1       1.055  10.190  19.277  0.00  0.00    +0.000 A 
ATOM      6  N   UNL     1      -0.134  10.183  19.958  0.00  0.00    +0.000 N 
ATOM      7  C   UNL     1      -0.665  11.436  19.978  0.00  0.00    +0.000 A 
ATOM      8  N   UNL     1      -1.899  11.730  20.423  0.00  0.00    +0.000 NA
ATOM      9  C   UNL     1      -2.179  13.040  20.302  0.00  0.00    +0.000 A 
ATOM     10  C   UNL     1      -1.283  14.024  19.890  0.00  0.00    +0.000 A 
ATOM     11  C   UNL     1       0.035  13.694  19.488  0.00  0.00    +0.000 A 
ATOM     12  C   UNL     1       0.277  12.311  19.450  0.00  0.00    +0.000 A 
ATOM     13  C   UNL     1       1.036  14.712  19.042  0.00  0.00    +0.000 A 
ATOM     14  C   UNL     1       0.800  16.061  19.407  0.00  0.00    +0.000 A 
ATOM     15  C   UNL     1       1.505  17.119  18.849  0.00  0.00    +0.000 A 
ATOM     16  F   UNL     1       1.224  18.374  19.218  0.00  0.00    +0.000 F 
ATOM     17  C   UNL     1       2.470  16.885  17.894  0.00  0.00    +0.000 A 
ATOM     18  C   UNL     1       2.846  15.571  17.650  0.00  0.00    +0.000 A 
ATOM     19  C   UNL     1       2.226  14.470  18.292  0.00  0.00    +0.000 A 
ATOM     20  H   UNL     1      -0.615   9.366  20.308  0.00  0.00    +0.000 HD
ENDROOT
BRANCH   5  21
ATOM     21  C   UNL     1       1.707   8.959  19.096  0.00  0.00    +0.000 C 
ATOM     22  C   UNL     1       1.803   8.095  20.131  0.00  0.00    +0.000 C 
ATOM     23  C   UNL     1       2.700   6.979  19.725  0.00  0.00    +0.000 C 
ATOM     24  C   UNL     1       2.654   5.511  20.125  0.00  0.00    +0.000 C 
ATOM     25  N   UNL     1       2.877   4.754  18.820  0.00  0.00    +0.000 NA
ATOM     26  C   UNL     1       3.213   5.815  17.778  0.00  0.00    +0.000 C 
ATOM     27  C   UNL     1       2.340   6.943  18.245  0.00  0.00    +0.000 C 
ATOM     28  C   UNL     1       2.386   8.399  17.845  0.00  0.00    +0.000 C 
BRANCH  25  29
ATOM     29  S   UNL     1       1.534   3.748  18.374  0.00  0.00    +0.000 S 
ATOM     30  C   UNL     1       2.384   2.230  17.990  0.00  0.00    +0.000 C 
ATOM     31  O   UNL     1       0.714   3.540  19.531  0.00  0.00    +0.000 OA
ATOM     32  O   UNL     1       1.005   4.260  17.129  0.00  0.00    +0.000 OA
ENDBRANCH  25  29
ENDBRANCH   5  21
TORSDOF 2
ENDMDL
MODEL 8
REMARK VINA RESULT:      -7.5      1.304      3.344
REMARK  Name = 
REMARK  4 active torsions:
REMARK  status: ('A' for Active; 'I' for Inactive)
REMARK    1  A    between atoms: C_1  and  N_2
REMARK    2  A    between atoms: C_5  and  C_6
REMARK    3  A    between atoms: N_10  and  S_11
REMARK    4  A    between atoms: S_11  and  C_12
REMARK                            x       y       z     vdW  Elec       q    Type
REMARK                         _______ _______ _______ _____ _____    ______ ____
ROOT
ATOM      1  C   UNL     1      -1.053   8.491  21.965  0.00  0.00    +0.000 C 
ATOM      2  N   UNL     1      -0.295   9.704  21.687  0.00  0.00    +0.000 N 
ATOM      3  C   UNL     1       1.057   9.532  21.191  0.00  0.00    +0.000 C 
ATOM      4  C   UNL     1       1.305  10.044  19.827  0.00  0.00    +0.000 A 
ATOM      5  C   UNL     1       2.022   9.486  18.783  0.00  0.00    +0.000 A 
ATOM      6  N   UNL     1       2.216  10.477  17.857  0.00  0.00    +0.000 N 
ATOM      7  C   UNL     1       1.633  11.630  18.282  0.00  0.00    +0.000 A 
ATOM      8  N   UNL     1       1.783  12.824  17.681  0.00  0.00    +0.000 NA
ATOM      9  C   UNL     1       1.120  13.800  18.326  0.00  0.00    +0.000 A 
ATOM     10  C   UNL     1       0.268  13.617  19.413  0.00  0.00    +0.000 A 
ATOM     11  C   UNL     1       0.076  12.337  19.988  0.00  0.00    +0.000 A 
ATOM     12  C   UNL     1       0.896  11.344  19.425  0.00  0.00    +0.000 A 
ATOM     13  C   UNL     1      -0.830  12.087  21.150  0.00  0.00    +0.000 A 
ATOM     14  C   UNL     1      -1.818  13.065  21.429  0.00  0.00    +0.000 A 
ATOM     15  C   UNL     1      -2.542  13.077  22.613  0.00  0.00    +0.000 A 
ATOM     16  F   UNL     1      -3.448  14.038  22.829  0.00  0.00    +0.000 F 
ATOM     17  C   UNL     1      -2.312  12.122  23.580  0.00  0.00    +0.000 A 
ATOM     18  C   UNL     1      -1.485  11.053  23.261  0.00  0.00    +0.000 A 
ATOM     19  C   UNL     1      -0.820  10.949  22.014  0.00  0.00    +0.000 A 
ATOM     20  H   UNL     1       2.791  10.413  17.028  0.00  0.00    +0.000 HD
ENDROOT
BRANCH   5  21
ATOM     21  C   UNL     1       2.624   8.241  18.537  0.00  0.00    +0.000 C 
ATOM     22  C   UNL     1       3.318   8.047  17.394  0.00  0.00    +0.000 C 
ATOM     23  C   UNL     1       3.670   6.604  17.301  0.00  0.00    +0.000 C 
ATOM     24  C   UNL     1       4.903   5.950  16.692  0.00  0.00    +0.000 C 
ATOM     25  N   UNL     1       5.317   4.894  17.712  0.00  0.00    +0.000 NA
ATOM     26  C   UNL     1       4.209   4.875  18.760  0.00  0.00    +0.000 C 
ATOM     27  C   UNL     1       3.835   6.328  18.790  0.00  0.00    +0.000 C 
ATOM     28  C   UNL     1       2.613   6.975  19.397  0.00  0.00    +0.000 C 
BRANCH  25  29
ATOM     29  S   UNL     1       6.895   5.170  18.381  0.00  0.00    +0.000 S 
ATOM     30  C   UNL     1       7.250   6.783  17.711  0.00  0.00    +0.000 C 
ATOM     31  O   UNL     1       6.777   5.276  19.805  0.00  0.00    +0.000 OA
ATOM     32  O   UNL     1       7.804   4.241  17.744  0.00  0.00    +0.000 OA
ENDBRANCH  25  29
ENDBRANCH   5  21
TORSDOF 2
ENDMDL
MODEL 9
REMARK VINA RESULT:      -7.5      6.955     10.198
REMARK  Name = 
REMARK  4 active torsions:
REMARK  status: ('A' for Active; 'I' for Inactive)
REMARK    1  A    between atoms: C_1  and  N_2
REMARK    2  A    between atoms: C_5  and  C_6
REMARK    3  A    between atoms: N_10  and  S_11
REMARK    4  A    between atoms: S_11  and  C_12
REMARK                            x       y       z     vdW  Elec       q    Type
REMARK                         _______ _______ _______ _____ _____    ______ ____
ROOT
ATOM      1  C   UNL     1      -0.816  12.972  19.269  0.00  0.00    +0.000 C 
ATOM      2  N   UNL     1      -2.074  12.269  19.485  0.00  0.00    +0.000 N 
ATOM      3  C   UNL     1      -2.681  12.400  20.796  0.00  0.00    +0.000 C 
ATOM      4  C   UNL     1      -3.996  13.073  20.825  0.00  0.00    +0.000 A 
ATOM      5  C   UNL     1      -4.494  14.015  21.708  0.00  0.00    +0.000 A 
ATOM      6  N   UNL     1      -5.846  14.085  21.496  0.00  0.00    +0.000 N 
ATOM      7  C   UNL     1      -6.205  13.228  20.501  0.00  0.00    +0.000 A 
ATOM      8  N   UNL     1      -7.476  12.942  20.168  0.00  0.00    +0.000 NA
ATOM      9  C   UNL     1      -7.544  12.043  19.170  0.00  0.00    +0.000 A 
ATOM     10  C   UNL     1      -6.457  11.542  18.457  0.00  0.00    +0.000 A 
ATOM     11  C   UNL     1      -5.130  11.912  18.786  0.00  0.00    +0.000 A 
ATOM     12  C   UNL     1      -5.044  12.717  19.935  0.00  0.00    +0.000 A 
ATOM     13  C   UNL     1      -3.931  11.407  18.050  0.00  0.00    +0.000 A 
ATOM     14  C   UNL     1      -4.140  10.871  16.754  0.00  0.00    +0.000 A 
ATOM     15  C   UNL     1      -3.165  10.148  16.080  0.00  0.00    +0.000 A 
ATOM     16  F   UNL     1      -3.427   9.648  14.867  0.00  0.00    +0.000 F 
ATOM     17  C   UNL     1      -1.940   9.915  16.667  0.00  0.00    +0.000 A 
ATOM     18  C   UNL     1      -1.646  10.577  17.852  0.00  0.00    +0.000 A 
ATOM     19  C   UNL     1      -2.578  11.419  18.507  0.00  0.00    +0.000 A 
ATOM     20  H   UNL     1      -6.510  14.607  22.052  0.00  0.00    +0.000 HD
ENDROOT
BRANCH   5  21
ATOM     21  C   UNL     1      -3.961  14.784  22.755  0.00  0.00    +0.000 C 
ATOM     22  C   UNL     1      -3.395  14.169  23.816  0.00  0.00    +0.000 C 
ATOM     23  C   UNL     1      -3.099  15.199  24.849  0.00  0.00    +0.000 C 
ATOM     24  C   UNL     1      -1.956  15.255  25.854  0.00  0.00    +0.000 C 
ATOM     25  N   UNL     1      -1.474  16.702  25.800  0.00  0.00    +0.000 NA
ATOM     26  C   UNL     1      -2.467  17.436  24.907  0.00  0.00    +0.000 C 
ATOM     27  C   UNL     1      -2.790  16.359  23.912  0.00  0.00    +0.000 C 
ATOM     28  C   UNL     1      -3.923  16.306  22.915  0.00  0.00    +0.000 C 
BRANCH  25  29
ATOM     29  S   UNL     1       0.173  16.853  25.271  0.00  0.00    +0.000 S 
ATOM     30  C   UNL     1       0.170  18.539  24.693  0.00  0.00    +0.000 C 
ATOM     31  O   UNL     1       1.032  16.758  26.415  0.00  0.00    +0.000 OA
ATOM     32  O   UNL     1       0.334  16.010  24.107  0.00  0.00    +0.000 OA
ENDBRANCH  25  29
ENDBRANCH   5  21
TORSDOF 2
ENDMDL
