MODEL 1
REMARK VINA RESULT:      -8.3      0.000      0.000
REMARK  Name = 
REMARK  5 active torsions:
REMARK  status: ('A' for Active; 'I' for Inactive)
REMARK    1  A    between atoms: C_1  and  N_2
REMARK    2  A    between atoms: C_3  and  C_5
REMARK    3  A    between atoms: C_8  and  N_9
REMARK    4  A    between atoms: C_19  and  O_20
REMARK    5  A    between atoms: C_21  and  O_22
REMARK                            x       y       z     vdW  Elec       q    Type
REMARK                         _______ _______ _______ _____ _____    ______ ____
ROOT
ATOM      1  C   UNL     1       6.314   5.295  15.519  0.00  0.00    +0.000 C 
ATOM      2  C   UNL     1       5.072   6.202  15.531  0.00  0.00    +0.000 C 
ATOM      3  C   UNL     1       5.083   4.949  16.336  0.00  0.00    +0.000 C 
ATOM      4  C   UNL     1       5.480   5.015  17.805  0.00  0.00    +0.000 C 
ATOM      5  C   UNL     1       6.969   4.630  17.772  0.00  0.00    +0.000 C 
ATOM      6  C   UNL     1       7.463   5.398  16.518  0.00  0.00    +0.000 C 
ENDROOT
BRANCH   4   7
ATOM      7  N   UNL     1       4.658   4.262  18.719  0.00  0.00    +0.000 N 
ATOM      8  C   UNL     1       4.832   2.926  19.002  0.00  0.00    +0.000 A 
ATOM      9  N   UNL     1       3.964   2.489  19.889  0.00  0.00    +0.000 NA
ATOM     10  C   UNL     1       3.162   3.579  20.156  0.00  0.00    +0.000 A 
ATOM     11  C   UNL     1       2.060   3.753  21.008  0.00  0.00    +0.000 A 
ATOM     12  N   UNL     1       1.545   2.737  21.803  0.00  0.00    +0.000 N 
ATOM     13  N   UNL     1       1.490   4.977  21.080  0.00  0.00    +0.000 NA
ATOM     14  C   UNL     1       1.992   5.964  20.308  0.00  0.00    +0.000 A 
ATOM     15  N   UNL     1       3.039   5.923  19.458  0.00  0.00    +0.000 NA
ATOM     16  C   UNL     1       3.577   4.690  19.436  0.00  0.00    +0.000 A 
ATOM     17  H   UNL     1       2.200   1.979  21.960  0.00  0.00    +0.000 HD
ATOM     18  H   UNL     1       1.042   3.099  22.602  0.00  0.00    +0.000 HD
ENDBRANCH   4   7
BRANCH   1  21
ATOM     19  C   UNL     1       6.307   3.159  12.399  0.00  0.00    +0.000 C 
ATOM     20  N   UNL     1       5.986   3.699  13.699  0.00  0.00    +0.000 N 
ATOM     21  C   UNL     1       6.668   4.800  14.161  0.00  0.00    +0.000 C 
ATOM     22  O   UNL     1       7.554   5.361  13.537  0.00  0.00    +0.000 OA
ATOM     23  H   UNL     1       5.200   3.325  14.215  0.00  0.00    +0.000 HD
ENDBRANCH   1  21
BRANCH   5  24
ATOM     24  O   UNL     1       7.657   5.048  18.947  0.00  0.00    +0.000 OA
ATOM     25  H   UNL     1       7.989   5.952  18.766  0.00  0.00    +0.000 HD
ENDBRANCH   5  24
BRANCH   6  26
ATOM     26  O   UNL     1       7.761   6.747  16.901  0.00  0.00    +0.000 OA
ATOM     27  H   UNL     1       7.958   6.780  17.852  0.00  0.00    +0.000 HD
ENDBRANCH   6  26
TORSDOF 4
ENDMDL
MODEL 2
REMARK VINA RESULT:      -8.2      1.125      1.935
REMARK  Name = 
REMARK  5 active torsions:
REMARK  status: ('A' for Active; 'I' for Inactive)
REMARK    1  A    between atoms: C_1  and  N_2
REMARK    2  A    between atoms: C_3  and  C_5
REMARK    3  A    between atoms: C_8  and  N_9
REMARK    4  A    between atoms: C_19  and  O_20
REMARK    5  A    between atoms: C_21  and  O_22
REMARK                            x       y       z     vdW  Elec       q    Type
REMARK                         _______ _______ _______ _____ _____    ______ ____
ROOT
ATOM      1  C   UNL     1       6.243   5.631  15.827  0.00  0.00    +0.000 C 
ATOM      2  C   UNL     1       5.275   6.813  15.645  0.00  0.00    +0.000 C 
ATOM      3  C   UNL     1       4.867   5.639  16.466  0.00  0.00    +0.000 C 
ATOM      4  C   UNL     1       5.067   5.684  17.974  0.00  0.00    +0.000 C 
ATOM      5  C   UNL     1       6.404   4.947  18.162  0.00  0.00    +0.000 C 
ATOM      6  C   UNL     1       7.237   5.504  16.978  0.00  0.00    +0.000 C 
ENDROOT
BRANCH   4   7
ATOM      7  N   UNL     1       3.969   5.204  18.776  0.00  0.00    +0.000 N 
ATOM      8  C   UNL     1       3.279   5.970  19.688  0.00  0.00    +0.000 A 
ATOM      9  N   UNL     1       2.307   5.298  20.267  0.00  0.00    +0.000 NA
ATOM     10  C   UNL     1       2.402   4.027  19.739  0.00  0.00    +0.000 A 
ATOM     11  C   UNL     1       1.657   2.857  19.956  0.00  0.00    +0.000 A 
ATOM     12  N   UNL     1       0.587   2.790  20.839  0.00  0.00    +0.000 N 
ATOM     13  N   UNL     1       1.977   1.750  19.249  0.00  0.00    +0.000 NA
ATOM     14  C   UNL     1       3.017   1.817  18.391  0.00  0.00    +0.000 A 
ATOM     15  N   UNL     1       3.802   2.873  18.095  0.00  0.00    +0.000 NA
ATOM     16  C   UNL     1       3.432   3.949  18.812  0.00  0.00    +0.000 A 
ATOM     17  H   UNL     1       0.194   3.697  21.065  0.00  0.00    +0.000 HD
ATOM     18  H   UNL     1      -0.054   2.044  20.603  0.00  0.00    +0.000 HD
ENDBRANCH   4   7
BRANCH   1  21
ATOM     19  C   UNL     1       6.116   3.410  12.769  0.00  0.00    +0.000 C 
ATOM     20  N   UNL     1       5.769   4.080  14.000  0.00  0.00    +0.000 N 
ATOM     21  C   UNL     1       6.642   4.993  14.542  0.00  0.00    +0.000 C 
ATOM     22  O   UNL     1       7.721   5.277  14.049  0.00  0.00    +0.000 OA
ATOM     23  H   UNL     1       4.849   3.945  14.400  0.00  0.00    +0.000 HD
ENDBRANCH   1  21
BRANCH   5  24
ATOM     24  O   UNL     1       7.010   5.247  19.415  0.00  0.00    +0.000 OA
ATOM     25  H   UNL     1       6.696   4.566  20.045  0.00  0.00    +0.000 HD
ENDBRANCH   5  24
BRANCH   6  26
ATOM     26  O   UNL     1       7.806   6.759  17.375  0.00  0.00    +0.000 OA
ATOM     27  H   UNL     1       7.409   7.476  16.855  0.00  0.00    +0.000 HD
ENDBRANCH   6  26
TORSDOF 4
ENDMDL
MODEL 3
REMARK VINA RESULT:      -7.9      1.020      1.959
REMARK  Name = 
REMARK  5 active torsions:
REMARK  status: ('A' for Active; 'I' for Inactive)
REMARK    1  A    between atoms: C_1  and  N_2
REMARK    2  A    between atoms: C_3  and  C_5
REMARK    3  A    between atoms: C_8  and  N_9
REMARK    4  A    between atoms: C_19  and  O_20
REMARK    5  A    between atoms: C_21  and  O_22
REMARK                            x       y       z     vdW  Elec       q    Type
REMARK                         _______ _______ _______ _____ _____    ______ ____
ROOT
ATOM      1  C   UNL     1       6.158   5.741  16.172  0.00  0.00    +0.000 C 
ATOM      2  C   UNL     1       5.119   6.858  15.975  0.00  0.00    +0.000 C 
ATOM      3  C   UNL     1       4.796   5.689  16.838  0.00  0.00    +0.000 C 
ATOM      4  C   UNL     1       5.021   5.792  18.341  0.00  0.00    +0.000 C 
ATOM      5  C   UNL     1       6.402   5.141  18.523  0.00  0.00    +0.000 C 
ATOM      6  C   UNL     1       7.179   5.709  17.306  0.00  0.00    +0.000 C 
ENDROOT
BRANCH   4   7
ATOM      7  N   UNL     1       3.968   5.273  19.178  0.00  0.00    +0.000 N 
ATOM      8  C   UNL     1       2.820   5.961  19.500  0.00  0.00    +0.000 A 
ATOM      9  N   UNL     1       2.011   5.251  20.258  0.00  0.00    +0.000 NA
ATOM     10  C   UNL     1       2.688   4.069  20.475  0.00  0.00    +0.000 A 
ATOM     11  C   UNL     1       2.359   2.914  21.201  0.00  0.00    +0.000 A 
ATOM     12  N   UNL     1       1.166   2.767  21.897  0.00  0.00    +0.000 N 
ATOM     13  N   UNL     1       3.234   1.883  21.200  0.00  0.00    +0.000 NA
ATOM     14  C   UNL     1       4.392   2.027  20.523  0.00  0.00    +0.000 A 
ATOM     15  N   UNL     1       4.819   3.077  19.791  0.00  0.00    +0.000 NA
ATOM     16  C   UNL     1       3.907   4.066  19.813  0.00  0.00    +0.000 A 
ATOM     17  H   UNL     1       0.439   3.402  21.586  0.00  0.00    +0.000 HD
ATOM     18  H   UNL     1       0.920   1.795  22.028  0.00  0.00    +0.000 HD
ENDBRANCH   4   7
BRANCH   1  21
ATOM     19  C   UNL     1       6.023   3.551  13.093  0.00  0.00    +0.000 C 
ATOM     20  N   UNL     1       5.666   4.232  14.315  0.00  0.00    +0.000 N 
ATOM     21  C   UNL     1       6.570   5.089  14.899  0.00  0.00    +0.000 C 
ATOM     22  O   UNL     1       7.683   5.311  14.452  0.00  0.00    +0.000 OA
ATOM     23  H   UNL     1       4.725   4.151  14.677  0.00  0.00    +0.000 HD
ENDBRANCH   1  21
BRANCH   5  24
ATOM     24  O   UNL     1       7.013   5.515  19.754  0.00  0.00    +0.000 OA
ATOM     25  H   UNL     1       6.775   4.821  20.403  0.00  0.00    +0.000 HD
ENDBRANCH   5  24
BRANCH   6  26
ATOM     26  O   UNL     1       7.680   7.006  17.654  0.00  0.00    +0.000 OA
ATOM     27  H   UNL     1       8.426   7.234  17.075  0.00  0.00    +0.000 HD
ENDBRANCH   6  26
TORSDOF 4
ENDMDL
MODEL 4
REMARK VINA RESULT:      -7.8      1.341      1.344
REMARK  Name = 
REMARK  5 active torsions:
REMARK  status: ('A' for Active; 'I' for Inactive)
REMARK    1  A    between atoms: C_1  and  N_2
REMARK    2  A    between atoms: C_3  and  C_5
REMARK    3  A    between atoms: C_8  and  N_9
REMARK    4  A    between atoms: C_19  and  O_20
REMARK    5  A    between atoms: C_21  and  O_22
REMARK                            x       y       z     vdW  Elec       q    Type
REMARK                         _______ _______ _______ _____ _____    ______ ____
ROOT
ATOM      1  C   UNL     1       6.385   5.230  15.255  0.00  0.00    +0.000 C 
ATOM      2  C   UNL     1       5.399   6.405  15.144  0.00  0.00    +0.000 C 
ATOM      3  C   UNL     1       4.927   5.085  15.649  0.00  0.00    +0.000 C 
ATOM      4  C   UNL     1       4.884   4.838  17.151  0.00  0.00    +0.000 C 
ATOM      5  C   UNL     1       6.211   4.105  17.412  0.00  0.00    +0.000 C 
ATOM      6  C   UNL     1       7.191   4.900  16.508  0.00  0.00    +0.000 C 
ENDROOT
BRANCH   4   7
ATOM      7  N   UNL     1       3.700   4.188  17.654  0.00  0.00    +0.000 N 
ATOM      8  C   UNL     1       2.959   3.267  16.949  0.00  0.00    +0.000 A 
ATOM      9  N   UNL     1       1.942   2.808  17.647  0.00  0.00    +0.000 NA
ATOM     10  C   UNL     1       2.001   3.498  18.840  0.00  0.00    +0.000 A 
ATOM     11  C   UNL     1       1.198   3.463  19.990  0.00  0.00    +0.000 A 
ATOM     12  N   UNL     1       0.091   2.633  20.120  0.00  0.00    +0.000 N 
ATOM     13  N   UNL     1       1.535   4.252  21.035  0.00  0.00    +0.000 NA
ATOM     14  C   UNL     1       2.612   5.056  20.908  0.00  0.00    +0.000 A 
ATOM     15  N   UNL     1       3.458   5.179  19.864  0.00  0.00    +0.000 NA
ATOM     16  C   UNL     1       3.086   4.363  18.861  0.00  0.00    +0.000 A 
ATOM     17  H   UNL     1       0.097   1.852  19.474  0.00  0.00    +0.000 HD
ATOM     18  H   UNL     1      -0.130   2.444  21.089  0.00  0.00    +0.000 HD
ENDBRANCH   4   7
BRANCH   1  21
ATOM     19  C   UNL     1       7.032   3.407  12.006  0.00  0.00    +0.000 C 
ATOM     20  N   UNL     1       6.448   3.823  13.259  0.00  0.00    +0.000 N 
ATOM     21  C   UNL     1       7.013   4.864  13.956  0.00  0.00    +0.000 C 
ATOM     22  O   UNL     1       8.005   5.471  13.585  0.00  0.00    +0.000 OA
ATOM     23  H   UNL     1       5.575   3.411  13.565  0.00  0.00    +0.000 HD
ENDBRANCH   1  21
BRANCH   5  24
ATOM     24  O   UNL     1       6.597   4.166  18.781  0.00  0.00    +0.000 OA
ATOM     25  H   UNL     1       7.175   3.392  18.941  0.00  0.00    +0.000 HD
ENDBRANCH   5  24
BRANCH   6  26
ATOM     26  O   UNL     1       7.625   6.064  17.225  0.00  0.00    +0.000 OA
ATOM     27  H   UNL     1       8.110   5.794  18.021  0.00  0.00    +0.000 HD
ENDBRANCH   6  26
TORSDOF 4
ENDMDL
MODEL 5
REMARK VINA RESULT:      -7.7      2.104      3.384
REMARK  Name = 
REMARK  5 active torsions:
REMARK  status: ('A' for Active; 'I' for Inactive)
REMARK    1  A    between atoms: C_1  and  N_2
REMARK    2  A    between atoms: C_3  and  C_5
REMARK    3  A    between atoms: C_8  and  N_9
REMARK    4  A    between atoms: C_19  and  O_20
REMARK    5  A    between atoms: C_21  and  O_22
REMARK                            x       y       z     vdW  Elec       q    Type
REMARK                         _______ _______ _______ _____ _____    ______ ____
ROOT
ATOM      1  C   UNL     1       7.364   6.221  17.908  0.00  0.00    +0.000 C 
ATOM      2  C   UNL     1       8.122   5.485  19.026  0.00  0.00    +0.000 C 
ATOM      3  C   UNL     1       6.632   5.477  19.010  0.00  0.00    +0.000 C 
ATOM      4  C   UNL     1       5.904   4.307  18.361  0.00  0.00    +0.000 C 
ATOM      5  C   UNL     1       5.599   4.838  16.950  0.00  0.00    +0.000 C 
ATOM      6  C   UNL     1       6.919   5.573  16.600  0.00  0.00    +0.000 C 
ENDROOT
BRANCH   4   7
ATOM      7  N   UNL     1       4.777   3.778  19.089  0.00  0.00    +0.000 N 
ATOM      8  C   UNL     1       4.627   2.454  19.432  0.00  0.00    +0.000 A 
ATOM      9  N   UNL     1       3.522   2.240  20.115  0.00  0.00    +0.000 NA
ATOM     10  C   UNL     1       2.908   3.474  20.176  0.00  0.00    +0.000 A 
ATOM     11  C   UNL     1       1.706   3.901  20.761  0.00  0.00    +0.000 A 
ATOM     12  N   UNL     1       0.848   3.050  21.446  0.00  0.00    +0.000 N 
ATOM     13  N   UNL     1       1.381   5.211  20.680  0.00  0.00    +0.000 NA
ATOM     14  C   UNL     1       2.216   6.038  20.015  0.00  0.00    +0.000 A 
ATOM     15  N   UNL     1       3.391   5.751  19.417  0.00  0.00    +0.000 NA
ATOM     16  C   UNL     1       3.673   4.442  19.541  0.00  0.00    +0.000 A 
ATOM     17  H   UNL     1       1.296   2.195  21.759  0.00  0.00    +0.000 HD
ATOM     18  H   UNL     1       0.267   3.547  22.106  0.00  0.00    +0.000 HD
ENDBRANCH   4   7
BRANCH   1  21
ATOM     19  C   UNL     1       8.889   9.572  18.771  0.00  0.00    +0.000 C 
ATOM     20  N   UNL     1       8.573   8.163  18.765  0.00  0.00    +0.000 N 
ATOM     21  C   UNL     1       7.671   7.676  17.848  0.00  0.00    +0.000 C 
ATOM     22  O   UNL     1       7.098   8.371  17.025  0.00  0.00    +0.000 OA
ATOM     23  H   UNL     1       9.087   7.533  19.367  0.00  0.00    +0.000 HD
ENDBRANCH   1  21
BRANCH   5  24
ATOM     24  O   UNL     1       5.326   3.786  16.029  0.00  0.00    +0.000 OA
ATOM     25  H   UNL     1       6.074   3.772  15.396  0.00  0.00    +0.000 HD
ENDBRANCH   5  24
BRANCH   6  26
ATOM     26  O   UNL     1       7.856   4.610  16.099  0.00  0.00    +0.000 OA
ATOM     27  H   UNL     1       8.760   4.894  16.310  0.00  0.00    +0.000 HD
ENDBRANCH   6  26
TORSDOF 4
ENDMDL
MODEL 6
REMARK VINA RESULT:      -7.6      2.632      6.755
REMARK  Name = 
REMARK  5 active torsions:
REMARK  status: ('A' for Active; 'I' for Inactive)
REMARK    1  A    between atoms: C_1  and  N_2
REMARK    2  A    between atoms: C_3  and  C_5
REMARK    3  A    between atoms: C_8  and  N_9
REMARK    4  A    between atoms: C_19  and  O_20
REMARK    5  A    between atoms: C_21  and  O_22
REMARK                            x       y       z     vdW  Elec       q    Type
REMARK                         _______ _______ _______ _____ _____    ______ ____
ROOT
ATOM      1  C   UNL     1       2.562   5.103  19.187  0.00  0.00    +0.000 C 
ATOM      2  C   UNL     1       1.879   4.959  17.816  0.00  0.00    +0.000 C 
ATOM      3  C   UNL     1       3.271   5.482  17.900  0.00  0.00    +0.000 C 
ATOM      4  C   UNL     1       4.437   4.520  17.723  0.00  0.00    +0.000 C 
ATOM      5  C   UNL     1       4.818   4.177  19.173  0.00  0.00    +0.000 C 
ATOM      6  C   UNL     1       3.423   4.023  19.835  0.00  0.00    +0.000 C 
ENDROOT
BRANCH   4   7
ATOM      7  N   UNL     1       5.517   4.976  16.883  0.00  0.00    +0.000 N 
ATOM      8  C   UNL     1       6.475   5.884  17.274  0.00  0.00    +0.000 A 
ATOM      9  N   UNL     1       7.360   6.110  16.327  0.00  0.00    +0.000 NA
ATOM     10  C   UNL     1       6.928   5.350  15.260  0.00  0.00    +0.000 A 
ATOM     11  C   UNL     1       7.438   5.166  13.966  0.00  0.00    +0.000 A 
ATOM     12  N   UNL     1       8.588   5.794  13.504  0.00  0.00    +0.000 N 
ATOM     13  N   UNL     1       6.797   4.312  13.137  0.00  0.00    +0.000 NA
ATOM     14  C   UNL     1       5.681   3.700  13.587  0.00  0.00    +0.000 A 
ATOM     15  N   UNL     1       5.096   3.792  14.799  0.00  0.00    +0.000 NA
ATOM     16  C   UNL     1       5.782   4.640  15.587  0.00  0.00    +0.000 A 
ATOM     17  H   UNL     1       9.188   6.131  14.249  0.00  0.00    +0.000 HD
ATOM     18  H   UNL     1       9.019   5.287  12.743  0.00  0.00    +0.000 HD
ENDBRANCH   4   7
BRANCH   1  21
ATOM     19  C   UNL     1       1.517   8.250  21.002  0.00  0.00    +0.000 C 
ATOM     20  N   UNL     1       2.176   7.335  20.101  0.00  0.00    +0.000 N 
ATOM     21  C   UNL     1       1.829   6.004  20.117  0.00  0.00    +0.000 C 
ATOM     22  O   UNL     1       0.990   5.530  20.865  0.00  0.00    +0.000 OA
ATOM     23  H   UNL     1       2.813   7.693  19.402  0.00  0.00    +0.000 HD
ENDBRANCH   1  21
BRANCH   5  24
ATOM     24  O   UNL     1       5.574   2.973  19.259  0.00  0.00    +0.000 OA
ATOM     25  H   UNL     1       6.411   3.136  18.777  0.00  0.00    +0.000 HD
ENDBRANCH   5  24
BRANCH   6  26
ATOM     26  O   UNL     1       2.947   2.693  19.584  0.00  0.00    +0.000 OA
ATOM     27  H   UNL     1       1.986   2.710  19.452  0.00  0.00    +0.000 HD
ENDBRANCH   6  26
TORSDOF 4
ENDMDL
MODEL 7
REMARK VINA RESULT:      -7.4      2.307      3.728
REMARK  Name = 
REMARK  5 active torsions:
REMARK  status: ('A' for Active; 'I' for Inactive)
REMARK    1  A    between atoms: C_1  and  N_2
REMARK    2  A    between atoms: C_3  and  C_5
REMARK    3  A    between atoms: C_8  and  N_9
REMARK    4  A    between atoms: C_19  and  O_20
REMARK    5  A    between atoms: C_21  and  O_22
REMARK                            x       y       z     vdW  Elec       q    Type
REMARK                         _______ _______ _______ _____ _____    ______ ____
ROOT
ATOM      1  C   UNL     1       7.251   6.089  18.074  0.00  0.00    +0.000 C 
ATOM      2  C   UNL     1       7.269   5.635  19.544  0.00  0.00    +0.000 C 
ATOM      3  C   UNL     1       5.982   5.675  18.796  0.00  0.00    +0.000 C 
ATOM      4  C   UNL     1       5.474   4.405  18.127  0.00  0.00    +0.000 C 
ATOM      5  C   UNL     1       5.955   4.570  16.675  0.00  0.00    +0.000 C 
ATOM      6  C   UNL     1       7.381   5.146  16.882  0.00  0.00    +0.000 C 
ENDROOT
BRANCH   4   7
ATOM      7  N   UNL     1       4.071   4.118  18.293  0.00  0.00    +0.000 N 
ATOM      8  C   UNL     1       3.095   4.453  17.381  0.00  0.00    +0.000 A 
ATOM      9  N   UNL     1       1.901   4.053  17.762  0.00  0.00    +0.000 NA
ATOM     10  C   UNL     1       2.106   3.476  18.998  0.00  0.00    +0.000 A 
ATOM     11  C   UNL     1       1.232   2.871  19.914  0.00  0.00    +0.000 A 
ATOM     12  N   UNL     1      -0.135   2.748  19.694  0.00  0.00    +0.000 N 
ATOM     13  N   UNL     1       1.747   2.356  21.053  0.00  0.00    +0.000 NA
ATOM     14  C   UNL     1       3.075   2.475  21.265  0.00  0.00    +0.000 A 
ATOM     15  N   UNL     1       4.013   3.028  20.468  0.00  0.00    +0.000 NA
ATOM     16  C   UNL     1       3.449   3.509  19.345  0.00  0.00    +0.000 A 
ATOM     17  H   UNL     1      -0.393   2.834  18.716  0.00  0.00    +0.000 HD
ATOM     18  H   UNL     1      -0.538   1.987  20.224  0.00  0.00    +0.000 HD
ENDBRANCH   4   7
BRANCH   1  21
ATOM     19  C   UNL     1       9.029   9.352  18.774  0.00  0.00    +0.000 C 
ATOM     20  N   UNL     1       8.522   8.006  18.899  0.00  0.00    +0.000 N 
ATOM     21  C   UNL     1       7.772   7.470  17.878  0.00  0.00    +0.000 C 
ATOM     22  O   UNL     1       7.491   8.070  16.853  0.00  0.00    +0.000 OA
ATOM     23  H   UNL     1       8.801   7.437  19.687  0.00  0.00    +0.000 HD
ENDBRANCH   1  21
BRANCH   5  24
ATOM     24  O   UNL     1       5.989   3.328  15.978  0.00  0.00    +0.000 OA
ATOM     25  H   UNL     1       6.241   3.537  15.054  0.00  0.00    +0.000 HD
ENDBRANCH   5  24
BRANCH   6  26
ATOM     26  O   UNL     1       8.281   4.055  17.118  0.00  0.00    +0.000 OA
ATOM     27  H   UNL     1       9.016   4.095  16.485  0.00  0.00    +0.000 HD
ENDBRANCH   6  26
TORSDOF 4
ENDMDL
MODEL 8
REMARK VINA RESULT:      -7.4      2.429      3.960
REMARK  Name = 
REMARK  5 active torsions:
REMARK  status: ('A' for Active; 'I' for Inactive)
REMARK    1  A    between atoms: C_1  and  N_2
REMARK    2  A    between atoms: C_3  and  C_5
REMARK    3  A    between atoms: C_8  and  N_9
REMARK    4  A    between atoms: C_19  and  O_20
REMARK    5  A    between atoms: C_21  and  O_22
REMARK                            x       y       z     vdW  Elec       q    Type
REMARK                         _______ _______ _______ _____ _____    ______ ____
ROOT
ATOM      1  C   UNL     1       7.473   6.536  17.950  0.00  0.00    +0.000 C 
ATOM      2  C   UNL     1       7.966   5.730  19.164  0.00  0.00    +0.000 C 
ATOM      3  C   UNL     1       6.510   5.996  18.992  0.00  0.00    +0.000 C 
ATOM      4  C   UNL     1       5.641   4.950  18.308  0.00  0.00    +0.000 C 
ATOM      5  C   UNL     1       5.580   5.456  16.856  0.00  0.00    +0.000 C 
ATOM      6  C   UNL     1       7.043   5.916  16.624  0.00  0.00    +0.000 C 
ENDROOT
BRANCH   4   7
ATOM      7  N   UNL     1       4.369   4.675  18.929  0.00  0.00    +0.000 N 
ATOM      8  C   UNL     1       3.721   5.536  19.786  0.00  0.00    +0.000 A 
ATOM      9  N   UNL     1       2.565   5.055  20.192  0.00  0.00    +0.000 NA
ATOM     10  C   UNL     1       2.485   3.807  19.610  0.00  0.00    +0.000 A 
ATOM     11  C   UNL     1       1.505   2.804  19.660  0.00  0.00    +0.000 A 
ATOM     12  N   UNL     1       0.329   2.925  20.390  0.00  0.00    +0.000 N 
ATOM     13  N   UNL     1       1.700   1.677  18.939  0.00  0.00    +0.000 NA
ATOM     14  C   UNL     1       2.842   1.561  18.229  0.00  0.00    +0.000 A 
ATOM     15  N   UNL     1       3.851   2.447  18.100  0.00  0.00    +0.000 NA
ATOM     16  C   UNL     1       3.600   3.553  18.823  0.00  0.00    +0.000 A 
ATOM     17  H   UNL     1       0.092   3.886  20.614  0.00  0.00    +0.000 HD
ATOM     18  H   UNL     1      -0.405   2.330  20.029  0.00  0.00    +0.000 HD
ENDBRANCH   4   7
BRANCH   1  21
ATOM     19  C   UNL     1       9.227   9.716  19.005  0.00  0.00    +0.000 C 
ATOM     20  N   UNL     1       8.669   8.384  19.010  0.00  0.00    +0.000 N 
ATOM     21  C   UNL     1       8.054   7.905  17.878  0.00  0.00    +0.000 C 
ATOM     22  O   UNL     1       7.935   8.546  16.846  0.00  0.00    +0.000 OA
ATOM     23  H   UNL     1       8.820   7.782  19.809  0.00  0.00    +0.000 HD
ENDBRANCH   1  21
BRANCH   5  24
ATOM     24  O   UNL     1       5.205   4.427  15.946  0.00  0.00    +0.000 OA
ATOM     25  H   UNL     1       5.308   4.802  15.046  0.00  0.00    +0.000 HD
ENDBRANCH   5  24
BRANCH   6  26
ATOM     26  O   UNL     1       7.826   4.773  16.254  0.00  0.00    +0.000 OA
ATOM     27  H   UNL     1       7.870   4.707  15.287  0.00  0.00    +0.000 HD
ENDBRANCH   6  26
TORSDOF 4
ENDMDL
MODEL 9
REMARK VINA RESULT:      -7.1      2.091      3.404
REMARK  Name = 
REMARK  5 active torsions:
REMARK  status: ('A' for Active; 'I' for Inactive)
REMARK    1  A    between atoms: C_1  and  N_2
REMARK    2  A    between atoms: C_3  and  C_5
REMARK    3  A    between atoms: C_8  and  N_9
REMARK    4  A    between atoms: C_19  and  O_20
REMARK    5  A    between atoms: C_21  and  O_22
REMARK                            x       y       z     vdW  Elec       q    Type
REMARK                         _______ _______ _______ _____ _____    ______ ____
ROOT
ATOM      1  C   UNL     1       7.304   5.975  17.613  0.00  0.00    +0.000 C 
ATOM      2  C   UNL     1       7.891   4.716  18.274  0.00  0.00    +0.000 C 
ATOM      3  C   UNL     1       6.432   4.997  18.378  0.00  0.00    +0.000 C 
ATOM      4  C   UNL     1       5.480   4.357  17.377  0.00  0.00    +0.000 C 
ATOM      5  C   UNL     1       5.295   5.467  16.328  0.00  0.00    +0.000 C 
ATOM      6  C   UNL     1       6.739   6.018  16.196  0.00  0.00    +0.000 C 
ENDROOT
BRANCH   4   7
ATOM      7  N   UNL     1       4.267   3.800  17.920  0.00  0.00    +0.000 N 
ATOM      8  C   UNL     1       3.786   2.545  17.621  0.00  0.00    +0.000 A 
ATOM      9  N   UNL     1       2.675   2.271  18.270  0.00  0.00    +0.000 NA
ATOM     10  C   UNL     1       2.400   3.418  18.986  0.00  0.00    +0.000 A 
ATOM     11  C   UNL     1       1.357   3.755  19.863  0.00  0.00    +0.000 A 
ATOM     12  N   UNL     1       0.320   2.887  20.181  0.00  0.00    +0.000 N 
ATOM     13  N   UNL     1       1.379   4.972  20.450  0.00  0.00    +0.000 NA
ATOM     14  C   UNL     1       2.388   5.814  20.142  0.00  0.00    +0.000 A 
ATOM     15  N   UNL     1       3.440   5.608  19.323  0.00  0.00    +0.000 NA
ATOM     16  C   UNL     1       3.378   4.380  18.779  0.00  0.00    +0.000 A 
ATOM     17  H   UNL     1       0.538   1.914  19.992  0.00  0.00    +0.000 HD
ATOM     18  H   UNL     1      -0.104   3.112  21.071  0.00  0.00    +0.000 HD
ENDBRANCH   4   7
BRANCH   1  21
ATOM     19  C   UNL     1       8.254   9.630  17.813  0.00  0.00    +0.000 C 
ATOM     20  N   UNL     1       7.672   8.380  17.385  0.00  0.00    +0.000 N 
ATOM     21  C   UNL     1       7.905   7.240  18.118  0.00  0.00    +0.000 C 
ATOM     22  O   UNL     1       8.594   7.208  19.125  0.00  0.00    +0.000 OA
ATOM     23  H   UNL     1       7.023   8.370  16.609  0.00  0.00    +0.000 HD
ENDBRANCH   1  21
BRANCH   5  24
ATOM     24  O   UNL     1       4.814   4.957  15.088  0.00  0.00    +0.000 OA
ATOM     25  H   UNL     1       4.780   3.983  15.184  0.00  0.00    +0.000 HD
ENDBRANCH   5  24
BRANCH   6  26
ATOM     26  O   UNL     1       7.458   5.187  15.275  0.00  0.00    +0.000 OA
ATOM     27  H   UNL     1       8.111   4.654  15.757  0.00  0.00    +0.000 HD
ENDBRANCH   6  26
TORSDOF 4
ENDMDL
