MODEL 1
REMARK VINA RESULT:      -6.6      0.000      0.000
REMARK  Name = 
REMARK  3 active torsions:
REMARK  status: ('A' for Active; 'I' for Inactive)
REMARK    1  A    between atoms: C_2  and  C_3
REMARK    2  A    between atoms: C_12  and  N_13
REMARK    3  A    between atoms: N_16  and  C_17
REMARK                            x       y       z     vdW  Elec       q    Type
REMARK                         _______ _______ _______ _____ _____    ______ ____
ROOT
ATOM      1  O   UNL     1       7.350  12.545  16.840  0.00  0.00    +0.000 OA
ATOM      2  C   UNL     1       8.034  13.277  17.560  0.00  0.00    +0.000 C 
ATOM      3  N   UNL     1       7.504  14.438  18.125  0.00  0.00    +0.000 N 
ATOM      4  C   UNL     1       8.222  15.440  18.895  0.00  0.00    +0.000 C 
ATOM      5  C   UNL     1       7.802  15.296  20.346  0.00  0.00    +0.000 C 
ATOM      6  C   UNL     1       6.302  15.520  20.489  0.00  0.00    +0.000 C 
ATOM      7  C   UNL     1       5.411  14.799  19.445  0.00  0.00    +0.000 C 
ATOM      8  C   UNL     1       6.068  14.706  18.034  0.00  0.00    +0.000 C 
ENDROOT
BRANCH   7   9
ATOM      9  N   UNL     1       4.004  15.258  19.359  0.00  0.00    +0.000 NA
ATOM     10  C   UNL     1       3.334  14.941  18.083  0.00  0.00    +0.000 C 
ATOM     11  C   UNL     1       2.780  13.508  17.946  0.00  0.00    +0.000 C 
ATOM     12  N   UNL     1       2.014  13.109  19.132  0.00  0.00    +0.000 N 
ATOM     13  C   UNL     1       2.502  13.465  20.467  0.00  0.00    +0.000 C 
ATOM     14  C   UNL     1       3.098  14.892  20.469  0.00  0.00    +0.000 C 
BRANCH  12  15
ATOM     15  C   UNL     1       0.848  12.376  19.008  0.00  0.00    +0.000 A 
ATOM     16  C   UNL     1       0.856  11.013  19.340  0.00  0.00    +0.000 A 
ATOM     17  C   UNL     1      -0.278  10.216  19.193  0.00  0.00    +0.000 A 
ATOM     18  C   UNL     1      -1.457  10.771  18.710  0.00  0.00    +0.000 A 
ATOM     19  C   UNL     1      -1.497  12.119  18.365  0.00  0.00    +0.000 A 
ATOM     20  C   UNL     1      -0.355  12.907  18.509  0.00  0.00    +0.000 A 
ATOM     21  F   UNL     1      -0.440  14.208  18.183  0.00  0.00    +0.000 F 
ENDBRANCH  12  15
ENDBRANCH   7   9
BRANCH   2  22
ATOM     22  C   UNL     1       9.445  12.932  17.787  0.00  0.00    +0.000 A 
ATOM     23  C   UNL     1       9.876  11.845  18.629  0.00  0.00    +0.000 A 
ATOM     24  C   UNL     1      11.243  11.686  18.653  0.00  0.00    +0.000 A 
ATOM     25  S   UNL     1      12.038  12.872  17.722  0.00  0.00    +0.000 S 
ATOM     26  C   UNL     1      10.554  13.625  17.332  0.00  0.00    +0.000 A 
ENDBRANCH   2  22
TORSDOF 3
ENDMDL
MODEL 2
REMARK VINA RESULT:      -6.5      7.631     10.862
REMARK  Name = 
REMARK  3 active torsions:
REMARK  status: ('A' for Active; 'I' for Inactive)
REMARK    1  A    between atoms: C_2  and  C_3
REMARK    2  A    between atoms: C_12  and  N_13
REMARK    3  A    between atoms: N_16  and  C_17
REMARK                            x       y       z     vdW  Elec       q    Type
REMARK                         _______ _______ _______ _____ _____    ______ ____
ROOT
ATOM      1  O   UNL     1      -4.126  12.179  24.594  0.00  0.00    +0.000 OA
ATOM      2  C   UNL     1      -4.288  12.799  23.539  0.00  0.00    +0.000 C 
ATOM      3  N   UNL     1      -3.207  13.125  22.717  0.00  0.00    +0.000 N 
ATOM      4  C   UNL     1      -3.241  13.942  21.515  0.00  0.00    +0.000 C 
ATOM      5  C   UNL     1      -3.059  13.018  20.325  0.00  0.00    +0.000 C 
ATOM      6  C   UNL     1      -1.721  12.295  20.414  0.00  0.00    +0.000 C 
ATOM      7  C   UNL     1      -1.369  11.699  21.801  0.00  0.00    +0.000 C 
ATOM      8  C   UNL     1      -1.884  12.564  22.991  0.00  0.00    +0.000 C 
ENDROOT
BRANCH   7   9
ATOM      9  N   UNL     1       0.042  11.291  21.998  0.00  0.00    +0.000 NA
ATOM     10  C   UNL     1       0.217   9.919  22.511  0.00  0.00    +0.000 C 
ATOM     11  C   UNL     1       0.129   8.787  21.466  0.00  0.00    +0.000 C 
ATOM     12  N   UNL     1       0.941   9.083  20.281  0.00  0.00    +0.000 N 
ATOM     13  C   UNL     1       0.959  10.441  19.731  0.00  0.00    +0.000 C 
ATOM     14  C   UNL     1       0.975  11.491  20.867  0.00  0.00    +0.000 C 
BRANCH  12  15
ATOM     15  C   UNL     1       1.673   8.089  19.657  0.00  0.00    +0.000 A 
ATOM     16  C   UNL     1       1.940   6.898  20.348  0.00  0.00    +0.000 A 
ATOM     17  C   UNL     1       2.709   5.880  19.786  0.00  0.00    +0.000 A 
ATOM     18  C   UNL     1       3.228   6.031  18.506  0.00  0.00    +0.000 A 
ATOM     19  C   UNL     1       2.988   7.204  17.796  0.00  0.00    +0.000 A 
ATOM     20  C   UNL     1       2.224   8.219  18.369  0.00  0.00    +0.000 A 
ATOM     21  F   UNL     1       1.998   9.327  17.643  0.00  0.00    +0.000 F 
ENDBRANCH  12  15
ENDBRANCH   7   9
BRANCH   2  22
ATOM     22  C   UNL     1      -5.643  13.236  23.173  0.00  0.00    +0.000 A 
ATOM     23  C   UNL     1      -6.435  12.605  22.148  0.00  0.00    +0.000 A 
ATOM     24  C   UNL     1      -7.688  13.158  22.013  0.00  0.00    +0.000 A 
ATOM     25  S   UNL     1      -7.916  14.482  23.062  0.00  0.00    +0.000 S 
ATOM     26  C   UNL     1      -6.319  14.342  23.657  0.00  0.00    +0.000 A 
ENDBRANCH   2  22
TORSDOF 3
ENDMDL
MODEL 3
REMARK VINA RESULT:      -6.4      1.127      1.559
REMARK  Name = 
REMARK  3 active torsions:
REMARK  status: ('A' for Active; 'I' for Inactive)
REMARK    1  A    between atoms: C_2  and  C_3
REMARK    2  A    between atoms: C_12  and  N_13
REMARK    3  A    between atoms: N_16  and  C_17
REMARK                            x       y       z     vdW  Elec       q    Type
REMARK                         _______ _______ _______ _____ _____    ______ ____
ROOT
ATOM      1  O   UNL     1       7.562  12.546  17.016  0.00  0.00    +0.000 OA
ATOM      2  C   UNL     1       8.203  13.288  17.765  0.00  0.00    +0.000 C 
ATOM      3  N   UNL     1       7.657  14.480  18.244  0.00  0.00    +0.000 N 
ATOM      4  C   UNL     1       8.336  15.493  19.036  0.00  0.00    +0.000 C 
ATOM      5  C   UNL     1       7.795  15.412  20.451  0.00  0.00    +0.000 C 
ATOM      6  C   UNL     1       6.294  15.675  20.462  0.00  0.00    +0.000 C 
ATOM      7  C   UNL     1       5.474  14.937  19.373  0.00  0.00    +0.000 C 
ATOM      8  C   UNL     1       6.242  14.778  18.026  0.00  0.00    +0.000 C 
ENDROOT
BRANCH   7   9
ATOM      9  N   UNL     1       4.091  15.424  19.155  0.00  0.00    +0.000 NA
ATOM     10  C   UNL     1       3.430  14.874  17.957  0.00  0.00    +0.000 C 
ATOM     11  C   UNL     1       2.814  13.467  18.107  0.00  0.00    +0.000 C 
ATOM     12  N   UNL     1       2.010  13.358  19.329  0.00  0.00    +0.000 N 
ATOM     13  C   UNL     1       2.489  13.966  20.573  0.00  0.00    +0.000 C 
ATOM     14  C   UNL     1       3.149  15.337  20.292  0.00  0.00    +0.000 C 
BRANCH  12  15
ATOM     15  C   UNL     1       0.814  12.663  19.330  0.00  0.00    +0.000 A 
ATOM     16  C   UNL     1      -0.223  13.083  18.484  0.00  0.00    +0.000 A 
ATOM     17  C   UNL     1      -1.464  12.448  18.475  0.00  0.00    +0.000 A 
ATOM     18  C   UNL     1      -1.695  11.367  19.317  0.00  0.00    +0.000 A 
ATOM     19  C   UNL     1      -0.690  10.930  20.174  0.00  0.00    +0.000 A 
ATOM     20  C   UNL     1       0.546  11.576  20.181  0.00  0.00    +0.000 A 
ATOM     21  F   UNL     1       1.498  11.110  21.009  0.00  0.00    +0.000 F 
ENDBRANCH  12  15
ENDBRANCH   7   9
BRANCH   2  22
ATOM     22  C   UNL     1       9.581  12.920  18.120  0.00  0.00    +0.000 A 
ATOM     23  C   UNL     1      10.713  13.138  17.256  0.00  0.00    +0.000 A 
ATOM     24  C   UNL     1      11.908  12.754  17.820  0.00  0.00    +0.000 A 
ATOM     25  S   UNL     1      11.692  12.067  19.364  0.00  0.00    +0.000 S 
ATOM     26  C   UNL     1       9.995  12.238  19.252  0.00  0.00    +0.000 A 
ENDBRANCH   2  22
TORSDOF 3
ENDMDL
MODEL 4
REMARK VINA RESULT:      -6.4      7.361     10.593
REMARK  Name = 
REMARK  3 active torsions:
REMARK  status: ('A' for Active; 'I' for Inactive)
REMARK    1  A    between atoms: C_2  and  C_3
REMARK    2  A    between atoms: C_12  and  N_13
REMARK    3  A    between atoms: N_16  and  C_17
REMARK                            x       y       z     vdW  Elec       q    Type
REMARK                         _______ _______ _______ _____ _____    ______ ____
ROOT
ATOM      1  O   UNL     1      -3.060  12.673  20.963  0.00  0.00    +0.000 OA
ATOM      2  C   UNL     1      -3.359  12.329  19.817  0.00  0.00    +0.000 C 
ATOM      3  N   UNL     1      -2.379  11.989  18.883  0.00  0.00    +0.000 N 
ATOM      4  C   UNL     1      -2.584  11.676  17.478  0.00  0.00    +0.000 C 
ATOM      5  C   UNL     1      -2.375  10.184  17.303  0.00  0.00    +0.000 C 
ATOM      6  C   UNL     1      -0.960   9.793  17.712  0.00  0.00    +0.000 C 
ATOM      7  C   UNL     1      -0.453  10.402  19.045  0.00  0.00    +0.000 C 
ATOM      8  C   UNL     1      -0.985  11.845  19.304  0.00  0.00    +0.000 C 
ENDROOT
BRANCH   7   9
ATOM      9  N   UNL     1       1.005  10.309  19.292  0.00  0.00    +0.000 NA
ATOM     10  C   UNL     1       1.376   9.498  20.467  0.00  0.00    +0.000 C 
ATOM     11  C   UNL     1       1.406   7.970  20.255  0.00  0.00    +0.000 C 
ATOM     12  N   UNL     1       2.133   7.609  19.033  0.00  0.00    +0.000 N 
ATOM     13  C   UNL     1       1.954   8.406  17.817  0.00  0.00    +0.000 C 
ATOM     14  C   UNL     1       1.866   9.912  18.158  0.00  0.00    +0.000 C 
BRANCH  12  15
ATOM     15  C   UNL     1       2.969   6.508  19.007  0.00  0.00    +0.000 A 
ATOM     16  C   UNL     1       3.999   6.452  18.056  0.00  0.00    +0.000 A 
ATOM     17  C   UNL     1       4.844   5.348  17.954  0.00  0.00    +0.000 A 
ATOM     18  C   UNL     1       4.678   4.267  18.812  0.00  0.00    +0.000 A 
ATOM     19  C   UNL     1       3.660   4.288  19.762  0.00  0.00    +0.000 A 
ATOM     20  C   UNL     1       2.816   5.394  19.851  0.00  0.00    +0.000 A 
ATOM     21  F   UNL     1       1.860   5.383  20.795  0.00  0.00    +0.000 F 
ENDBRANCH  12  15
ENDBRANCH   7   9
BRANCH   2  22
ATOM     22  C   UNL     1      -4.776  12.320  19.425  0.00  0.00    +0.000 A 
ATOM     23  C   UNL     1      -5.657  13.447  19.591  0.00  0.00    +0.000 A 
ATOM     24  C   UNL     1      -6.926  13.220  19.110  0.00  0.00    +0.000 A 
ATOM     25  S   UNL     1      -7.106  11.634  18.512  0.00  0.00    +0.000 S 
ATOM     26  C   UNL     1      -5.499  11.241  18.945  0.00  0.00    +0.000 A 
ENDBRANCH   2  22
TORSDOF 3
ENDMDL
MODEL 5
REMARK VINA RESULT:      -6.3      1.017      1.312
REMARK  Name = 
REMARK  3 active torsions:
REMARK  status: ('A' for Active; 'I' for Inactive)
REMARK    1  A    between atoms: C_2  and  C_3
REMARK    2  A    between atoms: C_12  and  N_13
REMARK    3  A    between atoms: N_16  and  C_17
REMARK                            x       y       z     vdW  Elec       q    Type
REMARK                         _______ _______ _______ _____ _____    ______ ____
ROOT
ATOM      1  O   UNL     1       7.533  12.723  17.067  0.00  0.00    +0.000 OA
ATOM      2  C   UNL     1       8.139  13.495  17.815  0.00  0.00    +0.000 C 
ATOM      3  N   UNL     1       7.525  14.640  18.326  0.00  0.00    +0.000 N 
ATOM      4  C   UNL     1       8.152  15.684  19.120  0.00  0.00    +0.000 C 
ATOM      5  C   UNL     1       7.650  15.543  20.545  0.00  0.00    +0.000 C 
ATOM      6  C   UNL     1       6.135  15.703  20.593  0.00  0.00    +0.000 C 
ATOM      7  C   UNL     1       5.342  14.928  19.510  0.00  0.00    +0.000 C 
ATOM      8  C   UNL     1       6.088  14.844  18.143  0.00  0.00    +0.000 C 
ENDROOT
BRANCH   7   9
ATOM      9  N   UNL     1       3.925  15.324  19.330  0.00  0.00    +0.000 NA
ATOM     10  C   UNL     1       3.323  14.884  18.057  0.00  0.00    +0.000 C 
ATOM     11  C   UNL     1       2.828  13.424  18.009  0.00  0.00    +0.000 C 
ATOM     12  N   UNL     1       2.026  13.087  19.190  0.00  0.00    +0.000 N 
ATOM     13  C   UNL     1       2.440  13.563  20.512  0.00  0.00    +0.000 C 
ATOM     14  C   UNL     1       2.984  15.009  20.427  0.00  0.00    +0.000 C 
BRANCH  12  15
ATOM     15  C   UNL     1       0.893  12.302  19.075  0.00  0.00    +0.000 A 
ATOM     16  C   UNL     1      -0.351  12.836  19.441  0.00  0.00    +0.000 A 
ATOM     17  C   UNL     1      -1.520  12.077  19.388  0.00  0.00    +0.000 A 
ATOM     18  C   UNL     1      -1.468  10.756  18.961  0.00  0.00    +0.000 A 
ATOM     19  C   UNL     1      -0.248  10.193  18.598  0.00  0.00    +0.000 A 
ATOM     20  C   UNL     1       0.916  10.958  18.661  0.00  0.00    +0.000 A 
ATOM     21  F   UNL     1       2.071  10.384  18.282  0.00  0.00    +0.000 F 
ENDBRANCH  12  15
ENDBRANCH   7   9
BRANCH   2  22
ATOM     22  C   UNL     1       9.546  13.216  18.133  0.00  0.00    +0.000 A 
ATOM     23  C   UNL     1       9.976  12.544  19.333  0.00  0.00    +0.000 A 
ATOM     24  C   UNL     1      11.338  12.355  19.392  0.00  0.00    +0.000 A 
ATOM     25  S   UNL     1      12.134  13.033  18.046  0.00  0.00    +0.000 S 
ATOM     26  C   UNL     1      10.658  13.623  17.415  0.00  0.00    +0.000 A 
ENDBRANCH   2  22
TORSDOF 3
ENDMDL
MODEL 6
REMARK VINA RESULT:      -6.2      5.120      7.445
REMARK  Name = 
REMARK  3 active torsions:
REMARK  status: ('A' for Active; 'I' for Inactive)
REMARK    1  A    between atoms: C_2  and  C_3
REMARK    2  A    between atoms: C_12  and  N_13
REMARK    3  A    between atoms: N_16  and  C_17
REMARK                            x       y       z     vdW  Elec       q    Type
REMARK                         _______ _______ _______ _____ _____    ______ ____
ROOT
ATOM      1  O   UNL     1       2.135   8.852  17.231  0.00  0.00    +0.000 OA
ATOM      2  C   UNL     1       2.171   8.135  18.234  0.00  0.00    +0.000 C 
ATOM      3  N   UNL     1       1.797   8.624  19.487  0.00  0.00    +0.000 N 
ATOM      4  C   UNL     1       1.897   7.928  20.760  0.00  0.00    +0.000 C 
ATOM      5  C   UNL     1       0.492   7.546  21.188  0.00  0.00    +0.000 C 
ATOM      6  C   UNL     1      -0.370   8.791  21.352  0.00  0.00    +0.000 C 
ATOM      7  C   UNL     1      -0.264   9.839  20.214  0.00  0.00    +0.000 C 
ATOM      8  C   UNL     1       1.167   9.939  19.602  0.00  0.00    +0.000 C 
ENDROOT
BRANCH   7   9
ATOM      9  N   UNL     1      -0.824  11.179  20.506  0.00  0.00    +0.000 NA
ATOM     10  C   UNL     1       0.068  12.059  21.284  0.00  0.00    +0.000 C 
ATOM     11  C   UNL     1       1.165  12.792  20.484  0.00  0.00    +0.000 C 
ATOM     12  N   UNL     1       0.622  13.419  19.274  0.00  0.00    +0.000 N 
ATOM     13  C   UNL     1      -0.369  12.705  18.466  0.00  0.00    +0.000 C 
ATOM     14  C   UNL     1      -1.373  11.952  19.371  0.00  0.00    +0.000 C 
BRANCH  12  15
ATOM     15  C   UNL     1       1.055  14.669  18.870  0.00  0.00    +0.000 A 
ATOM     16  C   UNL     1       0.151  15.742  18.873  0.00  0.00    +0.000 A 
ATOM     17  C   UNL     1       0.519  17.013  18.435  0.00  0.00    +0.000 A 
ATOM     18  C   UNL     1       1.814  17.241  17.984  0.00  0.00    +0.000 A 
ATOM     19  C   UNL     1       2.733  16.197  17.961  0.00  0.00    +0.000 A 
ATOM     20  C   UNL     1       2.353  14.927  18.395  0.00  0.00    +0.000 A 
ATOM     21  F   UNL     1       3.277  13.951  18.376  0.00  0.00    +0.000 F 
ENDBRANCH  12  15
ENDBRANCH   7   9
BRANCH   2  22
ATOM     22  C   UNL     1       2.659   6.755  18.104  0.00  0.00    +0.000 A 
ATOM     23  C   UNL     1       1.795   5.603  18.065  0.00  0.00    +0.000 A 
ATOM     24  C   UNL     1       2.475   4.419  17.893  0.00  0.00    +0.000 A 
ATOM     25  S   UNL     1       4.162   4.656  17.839  0.00  0.00    +0.000 S 
ATOM     26  C   UNL     1       3.979   6.336  18.098  0.00  0.00    +0.000 A 
ENDBRANCH   2  22
TORSDOF 3
ENDMDL
MODEL 7
REMARK VINA RESULT:      -6.1      7.394     10.650
REMARK  Name = 
REMARK  3 active torsions:
REMARK  status: ('A' for Active; 'I' for Inactive)
REMARK    1  A    between atoms: C_2  and  C_3
REMARK    2  A    between atoms: C_12  and  N_13
REMARK    3  A    between atoms: N_16  and  C_17
REMARK                            x       y       z     vdW  Elec       q    Type
REMARK                         _______ _______ _______ _____ _____    ______ ____
ROOT
ATOM      1  O   UNL     1      -3.545  12.012  23.967  0.00  0.00    +0.000 OA
ATOM      2  C   UNL     1      -3.836  12.546  22.893  0.00  0.00    +0.000 C 
ATOM      3  N   UNL     1      -2.852  12.891  21.965  0.00  0.00    +0.000 N 
ATOM      4  C   UNL     1      -3.043  13.619  20.721  0.00  0.00    +0.000 C 
ATOM      5  C   UNL     1      -2.885  12.632  19.580  0.00  0.00    +0.000 C 
ATOM      6  C   UNL     1      -1.493  12.013  19.601  0.00  0.00    +0.000 C 
ATOM      7  C   UNL     1      -0.988  11.539  20.989  0.00  0.00    +0.000 C 
ATOM      8  C   UNL     1      -1.472  12.445  22.162  0.00  0.00    +0.000 C 
ENDROOT
BRANCH   7   9
ATOM      9  N   UNL     1       0.461  11.247  21.091  0.00  0.00    +0.000 NA
ATOM     10  C   UNL     1       0.790  10.056  21.898  0.00  0.00    +0.000 C 
ATOM     11  C   UNL     1       0.658   8.696  21.184  0.00  0.00    +0.000 C 
ATOM     12  N   UNL     1       1.301   8.713  19.865  0.00  0.00    +0.000 N 
ATOM     13  C   UNL     1       1.160   9.889  19.002  0.00  0.00    +0.000 C 
ATOM     14  C   UNL     1       1.237  11.191  19.834  0.00  0.00    +0.000 C 
BRANCH  12  15
ATOM     15  C   UNL     1       2.021   7.622  19.414  0.00  0.00    +0.000 A 
ATOM     16  C   UNL     1       2.163   6.502  20.247  0.00  0.00    +0.000 A 
ATOM     17  C   UNL     1       2.913   5.392  19.862  0.00  0.00    +0.000 A 
ATOM     18  C   UNL     1       3.540   5.376  18.622  0.00  0.00    +0.000 A 
ATOM     19  C   UNL     1       3.425   6.475  17.775  0.00  0.00    +0.000 A 
ATOM     20  C   UNL     1       2.678   7.583  18.171  0.00  0.00    +0.000 A 
ATOM     21  F   UNL     1       2.575   8.615  17.316  0.00  0.00    +0.000 F 
ENDBRANCH  12  15
ENDBRANCH   7   9
BRANCH   2  22
ATOM     22  C   UNL     1      -5.245  12.859  22.615  0.00  0.00    +0.000 A 
ATOM     23  C   UNL     1      -6.059  13.695  23.460  0.00  0.00    +0.000 A 
ATOM     24  C   UNL     1      -7.333  13.882  22.974  0.00  0.00    +0.000 A 
ATOM     25  S   UNL     1      -7.599  13.012  21.532  0.00  0.00    +0.000 S 
ATOM     26  C   UNL     1      -6.025  12.346  21.592  0.00  0.00    +0.000 A 
ENDBRANCH   2  22
TORSDOF 3
ENDMDL
MODEL 8
REMARK VINA RESULT:      -6.1      7.327     10.616
REMARK  Name = 
REMARK  3 active torsions:
REMARK  status: ('A' for Active; 'I' for Inactive)
REMARK    1  A    between atoms: C_2  and  C_3
REMARK    2  A    between atoms: C_12  and  N_13
REMARK    3  A    between atoms: N_16  and  C_17
REMARK                            x       y       z     vdW  Elec       q    Type
REMARK                         _______ _______ _______ _____ _____    ______ ____
ROOT
ATOM      1  O   UNL     1      -3.287  11.861  23.803  0.00  0.00    +0.000 OA
ATOM      2  C   UNL     1      -3.656  12.434  22.774  0.00  0.00    +0.000 C 
ATOM      3  N   UNL     1      -2.737  12.862  21.815  0.00  0.00    +0.000 N 
ATOM      4  C   UNL     1      -3.022  13.642  20.621  0.00  0.00    +0.000 C 
ATOM      5  C   UNL     1      -2.889  12.718  19.425  0.00  0.00    +0.000 C 
ATOM      6  C   UNL     1      -1.475  12.155  19.342  0.00  0.00    +0.000 C 
ATOM      7  C   UNL     1      -0.879  11.635  20.676  0.00  0.00    +0.000 C 
ATOM      8  C   UNL     1      -1.333  12.463  21.917  0.00  0.00    +0.000 C 
ENDROOT
BRANCH   7   9
ATOM      9  N   UNL     1       0.583  11.396  20.688  0.00  0.00    +0.000 NA
ATOM     10  C   UNL     1       1.015  10.287  21.559  0.00  0.00    +0.000 C 
ATOM     11  C   UNL     1       0.879   8.868  20.968  0.00  0.00    +0.000 C 
ATOM     12  N   UNL     1       1.421   8.797  19.607  0.00  0.00    +0.000 N 
ATOM     13  C   UNL     1       1.172   9.892  18.666  0.00  0.00    +0.000 C 
ATOM     14  C   UNL     1       1.264  11.260  19.382  0.00  0.00    +0.000 C 
BRANCH  12  15
ATOM     15  C   UNL     1       2.143   7.693  19.189  0.00  0.00    +0.000 A 
ATOM     16  C   UNL     1       2.937   7.790  18.037  0.00  0.00    +0.000 A 
ATOM     17  C   UNL     1       3.652   6.699  17.545  0.00  0.00    +0.000 A 
ATOM     18  C   UNL     1       3.590   5.477  18.203  0.00  0.00    +0.000 A 
ATOM     19  C   UNL     1       2.806   5.346  19.345  0.00  0.00    +0.000 A 
ATOM     20  C   UNL     1       2.089   6.441  19.826  0.00  0.00    +0.000 A 
ATOM     21  F   UNL     1       1.360   6.278  20.943  0.00  0.00    +0.000 F 
ENDBRANCH  12  15
ENDBRANCH   7   9
BRANCH   2  22
ATOM     22  C   UNL     1      -5.088  12.704  22.586  0.00  0.00    +0.000 A 
ATOM     23  C   UNL     1      -5.940  13.245  23.614  0.00  0.00    +0.000 A 
ATOM     24  C   UNL     1      -7.234  13.454  23.192  0.00  0.00    +0.000 A 
ATOM     25  S   UNL     1      -7.469  12.948  21.582  0.00  0.00    +0.000 S 
ATOM     26  C   UNL     1      -5.852  12.403  21.471  0.00  0.00    +0.000 A 
ENDBRANCH   2  22
TORSDOF 3
ENDMDL
MODEL 9
REMARK VINA RESULT:      -6.1      4.915      7.292
REMARK  Name = 
REMARK  3 active torsions:
REMARK  status: ('A' for Active; 'I' for Inactive)
REMARK    1  A    between atoms: C_2  and  C_3
REMARK    2  A    between atoms: C_12  and  N_13
REMARK    3  A    between atoms: N_16  and  C_17
REMARK                            x       y       z     vdW  Elec       q    Type
REMARK                         _______ _______ _______ _____ _____    ______ ____
ROOT
ATOM      1  O   UNL     1       3.189  13.537  18.253  0.00  0.00    +0.000 OA
ATOM      2  C   UNL     1       2.452  14.026  19.114  0.00  0.00    +0.000 C 
ATOM      3  N   UNL     1       1.244  13.420  19.462  0.00  0.00    +0.000 N 
ATOM      4  C   UNL     1       0.236  13.943  20.370  0.00  0.00    +0.000 C 
ATOM      5  C   UNL     1       0.291  13.120  21.644  0.00  0.00    +0.000 C 
ATOM      6  C   UNL     1      -0.001  11.655  21.343  0.00  0.00    +0.000 C 
ATOM      7  C   UNL     1       0.732  11.061  20.113  0.00  0.00    +0.000 C 
ATOM      8  C   UNL     1       0.920  12.087  18.954  0.00  0.00    +0.000 C 
ENDROOT
BRANCH   7   9
ATOM      9  N   UNL     1       0.220   9.764  19.612  0.00  0.00    +0.000 NA
ATOM     10  C   UNL     1       0.468   9.520  18.178  0.00  0.00    +0.000 C 
ATOM     11  C   UNL     1       1.875   9.004  17.811  0.00  0.00    +0.000 C 
ATOM     12  N   UNL     1       2.286   7.896  18.679  0.00  0.00    +0.000 N 
ATOM     13  C   UNL     1       1.994   7.947  20.114  0.00  0.00    +0.000 C 
ATOM     14  C   UNL     1       0.590   8.546  20.365  0.00  0.00    +0.000 C 
BRANCH  12  15
ATOM     15  C   UNL     1       2.972   6.810  18.165  0.00  0.00    +0.000 A 
ATOM     16  C   UNL     1       4.105   7.030  17.368  0.00  0.00    +0.000 A 
ATOM     17  C   UNL     1       4.809   5.976  16.787  0.00  0.00    +0.000 A 
ATOM     18  C   UNL     1       4.392   4.667  16.996  0.00  0.00    +0.000 A 
ATOM     19  C   UNL     1       3.267   4.415  17.775  0.00  0.00    +0.000 A 
ATOM     20  C   UNL     1       2.566   5.476  18.347  0.00  0.00    +0.000 A 
ATOM     21  F   UNL     1       1.497   5.189  19.110  0.00  0.00    +0.000 F 
ENDBRANCH  12  15
ENDBRANCH   7   9
BRANCH   2  22
ATOM     22  C   UNL     1       2.843  15.293  19.747  0.00  0.00    +0.000 A 
ATOM     23  C   UNL     1       2.490  16.589  19.225  0.00  0.00    +0.000 A 
ATOM     24  C   UNL     1       2.929  17.630  20.012  0.00  0.00    +0.000 A 
ATOM     25  S   UNL     1       3.825  17.079  21.354  0.00  0.00    +0.000 S 
ATOM     26  C   UNL     1       3.667  15.453  20.848  0.00  0.00    +0.000 A 
ENDBRANCH   2  22
TORSDOF 3
ENDMDL
