MODEL 1
REMARK VINA RESULT:      -6.8      0.000      0.000
REMARK  Name = 
REMARK  6 active torsions:
REMARK  status: ('A' for Active; 'I' for Inactive)
REMARK    1  A    between atoms: C_1  and  C_2
REMARK    2  A    between atoms: C_5  and  C_6
REMARK    3  A    between atoms: C_7  and  C_8
REMARK    4  A    between atoms: C_8  and  C_9
REMARK    5  A    between atoms: C_9  and  C_10
REMARK    6  A    between atoms: C_10  and  N_11
REMARK                            x       y       z     vdW  Elec       q    Type
REMARK                         _______ _______ _______ _____ _____    ______ ____
ROOT
ATOM      1  C   UNL     1       3.922   5.646  17.763  0.00  0.00    +0.000 C 
ENDROOT
BRANCH   1   2
ATOM      2  C   UNL     1       5.083   6.308  17.019  0.00  0.00    +0.000 C 
BRANCH   2   9
ATOM      3  C   UNL     1       7.038   5.504  19.509  0.00  0.00    +0.000 C 
ATOM      4  C   UNL     1       7.153   5.106  18.086  0.00  0.00    +0.000 A 
ATOM      5  N   UNL     1       8.159   4.318  17.691  0.00  0.00    +0.000 NA
ATOM      6  O   UNL     1       7.985   4.138  16.334  0.00  0.00    +0.000 OA
ATOM      7  C   UNL     1       6.881   4.814  15.923  0.00  0.00    +0.000 A 
ATOM      8  C   UNL     1       6.560   4.719  14.486  0.00  0.00    +0.000 C 
ATOM      9  C   UNL     1       6.304   5.455  16.998  0.00  0.00    +0.000 A 
ENDBRANCH   2   9
ENDBRANCH   1   2
BRANCH   1  10
ATOM     10  C   UNL     1       3.596   4.273  17.173  0.00  0.00    +0.000 C 
BRANCH  10  11
ATOM     11  N   UNL     1       3.816   3.252  18.182  0.00  0.00    +0.000 N 
ATOM     12  C   UNL     1       2.948   3.160  19.260  0.00  0.00    +0.000 A 
ATOM     13  C   UNL     1       1.570   3.374  19.195  0.00  0.00    +0.000 A 
ATOM     14  N   UNL     1       0.726   3.233  20.248  0.00  0.00    +0.000 NA
ATOM     15  C   UNL     1       1.315   2.834  21.393  0.00  0.00    +0.000 A 
ATOM     16  C   UNL     1       2.676   2.604  21.475  0.00  0.00    +0.000 A 
ATOM     17  N   UNL     1       3.513   2.770  20.421  0.00  0.00    +0.000 NA
ATOM     18  H   UNL     1       4.759   3.190  18.560  0.00  0.00    +0.000 HD
ENDBRANCH  10  11
ENDBRANCH   1  10
TORSDOF 4
ENDMDL
MODEL 2
REMARK VINA RESULT:      -6.8      1.631      2.123
REMARK  Name = 
REMARK  6 active torsions:
REMARK  status: ('A' for Active; 'I' for Inactive)
REMARK    1  A    between atoms: C_1  and  C_2
REMARK    2  A    between atoms: C_5  and  C_6
REMARK    3  A    between atoms: C_7  and  C_8
REMARK    4  A    between atoms: C_8  and  C_9
REMARK    5  A    between atoms: C_9  and  C_10
REMARK    6  A    between atoms: C_10  and  N_11
REMARK                            x       y       z     vdW  Elec       q    Type
REMARK                         _______ _______ _______ _____ _____    ______ ____
ROOT
ATOM      1  C   UNL     1       4.422   6.746  16.873  0.00  0.00    +0.000 C 
ENDROOT
BRANCH   1   2
ATOM      2  C   UNL     1       5.904   7.084  17.038  0.00  0.00    +0.000 C 
BRANCH   2   9
ATOM      3  C   UNL     1       7.633   5.821  19.505  0.00  0.00    +0.000 C 
ATOM      4  C   UNL     1       7.518   5.322  18.114  0.00  0.00    +0.000 A 
ATOM      5  N   UNL     1       8.177   4.218  17.743  0.00  0.00    +0.000 NA
ATOM      6  O   UNL     1       7.867   4.025  16.412  0.00  0.00    +0.000 OA
ATOM      7  C   UNL     1       7.028   5.008  15.992  0.00  0.00    +0.000 A 
ATOM      8  C   UNL     1       6.603   4.940  14.581  0.00  0.00    +0.000 C 
ATOM      9  C   UNL     1       6.767   5.870  17.036  0.00  0.00    +0.000 A 
ENDBRANCH   2   9
ENDBRANCH   1   2
BRANCH   1  10
ATOM     10  C   UNL     1       3.755   6.498  18.227  0.00  0.00    +0.000 C 
BRANCH  10  11
ATOM     11  N   UNL     1       2.858   5.362  18.121  0.00  0.00    +0.000 N 
ATOM     12  C   UNL     1       3.324   4.093  18.430  0.00  0.00    +0.000 A 
ATOM     13  C   UNL     1       4.223   3.803  19.458  0.00  0.00    +0.000 A 
ATOM     14  N   UNL     1       4.633   2.550  19.780  0.00  0.00    +0.000 NA
ATOM     15  C   UNL     1       4.079   1.567  19.042  0.00  0.00    +0.000 A 
ATOM     16  C   UNL     1       3.177   1.833  18.028  0.00  0.00    +0.000 A 
ATOM     17  N   UNL     1       2.792   3.091  17.701  0.00  0.00    +0.000 NA
ATOM     18  H   UNL     1       2.341   5.279  17.247  0.00  0.00    +0.000 HD
ENDBRANCH  10  11
ENDBRANCH   1  10
TORSDOF 4
ENDMDL
MODEL 3
REMARK VINA RESULT:      -6.6      1.403      2.531
REMARK  Name = 
REMARK  6 active torsions:
REMARK  status: ('A' for Active; 'I' for Inactive)
REMARK    1  A    between atoms: C_1  and  C_2
REMARK    2  A    between atoms: C_5  and  C_6
REMARK    3  A    between atoms: C_7  and  C_8
REMARK    4  A    between atoms: C_8  and  C_9
REMARK    5  A    between atoms: C_9  and  C_10
REMARK    6  A    between atoms: C_10  and  N_11
REMARK                            x       y       z     vdW  Elec       q    Type
REMARK                         _______ _______ _______ _____ _____    ______ ____
ROOT
ATOM      1  C   UNL     1       4.179   6.601  17.078  0.00  0.00    +0.000 C 
ENDROOT
BRANCH   1   2
ATOM      2  C   UNL     1       5.645   7.037  17.113  0.00  0.00    +0.000 C 
BRANCH   2   9
ATOM      3  C   UNL     1       6.122   5.001  14.603  0.00  0.00    +0.000 C 
ATOM      4  C   UNL     1       6.788   4.998  15.927  0.00  0.00    +0.000 A 
ATOM      5  N   UNL     1       7.715   4.075  16.208  0.00  0.00    +0.000 NA
ATOM      6  O   UNL     1       8.131   4.340  17.496  0.00  0.00    +0.000 OA
ATOM      7  C   UNL     1       7.458   5.416  17.981  0.00  0.00    +0.000 A 
ATOM      8  C   UNL     1       7.794   5.827  19.357  0.00  0.00    +0.000 C 
ATOM      9  C   UNL     1       6.582   5.883  17.024  0.00  0.00    +0.000 A 
ENDBRANCH   2   9
ENDBRANCH   1   2
BRANCH   1  10
ATOM     10  C   UNL     1       3.619   6.426  18.490  0.00  0.00    +0.000 C 
BRANCH  10  11
ATOM     11  N   UNL     1       2.344   5.734  18.420  0.00  0.00    +0.000 N 
ATOM     12  C   UNL     1       2.058   4.735  19.338  0.00  0.00    +0.000 A 
ATOM     13  C   UNL     1       2.431   4.759  20.683  0.00  0.00    +0.000 A 
ATOM     14  N   UNL     1       2.103   3.796  21.582  0.00  0.00    +0.000 NA
ATOM     15  C   UNL     1       1.345   2.797  21.087  0.00  0.00    +0.000 A 
ATOM     16  C   UNL     1       0.954   2.763  19.761  0.00  0.00    +0.000 A 
ATOM     17  N   UNL     1       1.307   3.718  18.867  0.00  0.00    +0.000 NA
ATOM     18  H   UNL     1       2.079   5.375  17.504  0.00  0.00    +0.000 HD
ENDBRANCH  10  11
ENDBRANCH   1  10
TORSDOF 4
ENDMDL
MODEL 4
REMARK VINA RESULT:      -6.6      1.210      1.554
REMARK  Name = 
REMARK  6 active torsions:
REMARK  status: ('A' for Active; 'I' for Inactive)
REMARK    1  A    between atoms: C_1  and  C_2
REMARK    2  A    between atoms: C_5  and  C_6
REMARK    3  A    between atoms: C_7  and  C_8
REMARK    4  A    between atoms: C_8  and  C_9
REMARK    5  A    between atoms: C_9  and  C_10
REMARK    6  A    between atoms: C_10  and  N_11
REMARK                            x       y       z     vdW  Elec       q    Type
REMARK                         _______ _______ _______ _____ _____    ______ ____
ROOT
ATOM      1  C   UNL     1       3.965   5.753  17.389  0.00  0.00    +0.000 C 
ENDROOT
BRANCH   1   2
ATOM      2  C   UNL     1       5.310   6.479  17.346  0.00  0.00    +0.000 C 
BRANCH   2   9
ATOM      3  C   UNL     1       7.478   5.616  19.632  0.00  0.00    +0.000 C 
ATOM      4  C   UNL     1       7.402   5.164  18.222  0.00  0.00    +0.000 A 
ATOM      5  N   UNL     1       8.298   4.292  17.750  0.00  0.00    +0.000 NA
ATOM      6  O   UNL     1       7.958   4.080  16.429  0.00  0.00    +0.000 OA
ATOM      7  C   UNL     1       6.863   4.821  16.117  0.00  0.00    +0.000 A 
ATOM      8  C   UNL     1       6.373   4.704  14.730  0.00  0.00    +0.000 C 
ATOM      9  C   UNL     1       6.459   5.538  17.223  0.00  0.00    +0.000 A 
ENDBRANCH   2   9
ENDBRANCH   1   2
BRANCH   1  10
ATOM     10  C   UNL     1       3.065   6.318  18.489  0.00  0.00    +0.000 C 
BRANCH  10  11
ATOM     11  N   UNL     1       1.888   5.479  18.626  0.00  0.00    +0.000 N 
ATOM     12  C   UNL     1       1.851   4.512  19.618  0.00  0.00    +0.000 A 
ATOM     13  C   UNL     1       2.392   4.660  20.896  0.00  0.00    +0.000 A 
ATOM     14  N   UNL     1       2.306   3.722  21.874  0.00  0.00    +0.000 NA
ATOM     15  C   UNL     1       1.619   2.614  21.533  0.00  0.00    +0.000 A 
ATOM     16  C   UNL     1       1.064   2.453  20.276  0.00  0.00    +0.000 A 
ATOM     17  N   UNL     1       1.176   3.387  19.301  0.00  0.00    +0.000 NA
ATOM     18  H   UNL     1       1.551   5.036  17.772  0.00  0.00    +0.000 HD
ENDBRANCH  10  11
ENDBRANCH   1  10
TORSDOF 4
ENDMDL
MODEL 5
REMARK VINA RESULT:      -6.5      2.663      5.850
REMARK  Name = 
REMARK  6 active torsions:
REMARK  status: ('A' for Active; 'I' for Inactive)
REMARK    1  A    between atoms: C_1  and  C_2
REMARK    2  A    between atoms: C_5  and  C_6
REMARK    3  A    between atoms: C_7  and  C_8
REMARK    4  A    between atoms: C_8  and  C_9
REMARK    5  A    between atoms: C_9  and  C_10
REMARK    6  A    between atoms: C_10  and  N_11
REMARK                            x       y       z     vdW  Elec       q    Type
REMARK                         _______ _______ _______ _____ _____    ______ ____
ROOT
ATOM      1  C   UNL     1       3.192   2.765  17.752  0.00  0.00    +0.000 C 
ENDROOT
BRANCH   1   2
ATOM      2  C   UNL     1       1.983   3.702  17.755  0.00  0.00    +0.000 C 
BRANCH   2   9
ATOM      3  C   UNL     1       2.578   6.902  18.030  0.00  0.00    +0.000 C 
ATOM      4  C   UNL     1       2.186   5.946  19.093  0.00  0.00    +0.000 A 
ATOM      5  N   UNL     1       2.034   6.372  20.352  0.00  0.00    +0.000 NA
ATOM      6  O   UNL     1       1.673   5.259  21.084  0.00  0.00    +0.000 OA
ATOM      7  C   UNL     1       1.608   4.177  20.266  0.00  0.00    +0.000 A 
ATOM      8  C   UNL     1       1.232   2.901  20.904  0.00  0.00    +0.000 C 
ATOM      9  C   UNL     1       1.926   4.551  18.977  0.00  0.00    +0.000 A 
ENDBRANCH   2   9
ENDBRANCH   1   2
BRANCH   1  10
ATOM     10  C   UNL     1       4.446   3.479  17.246  0.00  0.00    +0.000 C 
BRANCH  10  11
ATOM     11  N   UNL     1       5.177   4.027  18.375  0.00  0.00    +0.000 N 
ATOM     12  C   UNL     1       6.052   5.084  18.173  0.00  0.00    +0.000 A 
ATOM     13  C   UNL     1       5.839   6.136  17.281  0.00  0.00    +0.000 A 
ATOM     14  N   UNL     1       6.682   7.189  17.129  0.00  0.00    +0.000 NA
ATOM     15  C   UNL     1       7.759   7.171  17.940  0.00  0.00    +0.000 A 
ATOM     16  C   UNL     1       7.981   6.144  18.840  0.00  0.00    +0.000 A 
ATOM     17  N   UNL     1       7.143   5.086  18.966  0.00  0.00    +0.000 NA
ATOM     18  H   UNL     1       5.662   3.353  18.964  0.00  0.00    +0.000 HD
ENDBRANCH  10  11
ENDBRANCH   1  10
TORSDOF 4
ENDMDL
MODEL 6
REMARK VINA RESULT:      -6.5      2.528      5.634
REMARK  Name = 
REMARK  6 active torsions:
REMARK  status: ('A' for Active; 'I' for Inactive)
REMARK    1  A    between atoms: C_1  and  C_2
REMARK    2  A    between atoms: C_5  and  C_6
REMARK    3  A    between atoms: C_7  and  C_8
REMARK    4  A    between atoms: C_8  and  C_9
REMARK    5  A    between atoms: C_9  and  C_10
REMARK    6  A    between atoms: C_10  and  N_11
REMARK                            x       y       z     vdW  Elec       q    Type
REMARK                         _______ _______ _______ _____ _____    ______ ____
ROOT
ATOM      1  C   UNL     1       3.036   2.974  17.539  0.00  0.00    +0.000 C 
ENDROOT
BRANCH   1   2
ATOM      2  C   UNL     1       2.016   4.112  17.478  0.00  0.00    +0.000 C 
BRANCH   2   9
ATOM      3  C   UNL     1       1.115   3.178  20.476  0.00  0.00    +0.000 C 
ATOM      4  C   UNL     1       1.598   4.509  20.035  0.00  0.00    +0.000 A 
ATOM      5  N   UNL     1       1.707   5.507  20.918  0.00  0.00    +0.000 NA
ATOM      6  O   UNL     1       2.174   6.592  20.204  0.00  0.00    +0.000 OA
ATOM      7  C   UNL     1       2.343   6.241  18.902  0.00  0.00    +0.000 A 
ATOM      8  C   UNL     1       2.840   7.301  18.003  0.00  0.00    +0.000 C 
ATOM      9  C   UNL     1       1.991   4.920  18.729  0.00  0.00    +0.000 A 
ENDBRANCH   2   9
ENDBRANCH   1   2
BRANCH   1  10
ATOM     10  C   UNL     1       4.431   3.457  17.139  0.00  0.00    +0.000 C 
BRANCH  10  11
ATOM     11  N   UNL     1       5.102   4.007  18.304  0.00  0.00    +0.000 N 
ATOM     12  C   UNL     1       6.017   5.036  18.142  0.00  0.00    +0.000 A 
ATOM     13  C   UNL     1       5.892   6.076  17.219  0.00  0.00    +0.000 A 
ATOM     14  N   UNL     1       6.772   7.103  17.105  0.00  0.00    +0.000 NA
ATOM     15  C   UNL     1       7.793   7.072  17.985  0.00  0.00    +0.000 A 
ATOM     16  C   UNL     1       7.927   6.058  18.915  0.00  0.00    +0.000 A 
ATOM     17  N   UNL     1       7.054   5.025  19.005  0.00  0.00    +0.000 NA
ATOM     18  H   UNL     1       5.529   3.332  18.936  0.00  0.00    +0.000 HD
ENDBRANCH  10  11
ENDBRANCH   1  10
TORSDOF 4
ENDMDL
MODEL 7
REMARK VINA RESULT:      -6.5      2.488      6.027
REMARK  Name = 
REMARK  6 active torsions:
REMARK  status: ('A' for Active; 'I' for Inactive)
REMARK    1  A    between atoms: C_1  and  C_2
REMARK    2  A    between atoms: C_5  and  C_6
REMARK    3  A    between atoms: C_7  and  C_8
REMARK    4  A    between atoms: C_8  and  C_9
REMARK    5  A    between atoms: C_9  and  C_10
REMARK    6  A    between atoms: C_10  and  N_11
REMARK                            x       y       z     vdW  Elec       q    Type
REMARK                         _______ _______ _______ _____ _____    ______ ____
ROOT
ATOM      1  C   UNL     1       4.225   5.788  18.634  0.00  0.00    +0.000 C 
ENDROOT
BRANCH   1   2
ATOM      2  C   UNL     1       3.112   4.865  18.135  0.00  0.00    +0.000 C 
BRANCH   2   9
ATOM      3  C   UNL     1       1.453   5.839  20.775  0.00  0.00    +0.000 C 
ATOM      4  C   UNL     1       1.813   4.458  20.374  0.00  0.00    +0.000 A 
ATOM      5  N   UNL     1       1.448   3.423  21.139  0.00  0.00    +0.000 NA
ATOM      6  O   UNL     1       1.928   2.297  20.502  0.00  0.00    +0.000 OA
ATOM      7  C   UNL     1       2.574   2.658  19.363  0.00  0.00    +0.000 A 
ATOM      8  C   UNL     1       3.149   1.558  18.565  0.00  0.00    +0.000 C 
ATOM      9  C   UNL     1       2.537   4.030  19.225  0.00  0.00    +0.000 A 
ENDBRANCH   2   9
ENDBRANCH   1   2
BRANCH   1  10
ATOM     10  C   UNL     1       5.501   5.003  18.941  0.00  0.00    +0.000 C 
BRANCH  10  11
ATOM     11  N   UNL     1       5.697   3.986  17.924  0.00  0.00    +0.000 N 
ATOM     12  C   UNL     1       6.165   4.354  16.672  0.00  0.00    +0.000 A 
ATOM     13  C   UNL     1       7.118   5.348  16.438  0.00  0.00    +0.000 A 
ATOM     14  N   UNL     1       7.603   5.664  15.211  0.00  0.00    +0.000 NA
ATOM     15  C   UNL     1       7.115   4.917  14.201  0.00  0.00    +0.000 A 
ATOM     16  C   UNL     1       6.181   3.920  14.413  0.00  0.00    +0.000 A 
ATOM     17  N   UNL     1       5.686   3.628  15.641  0.00  0.00    +0.000 NA
ATOM     18  H   UNL     1       4.916   3.351  17.768  0.00  0.00    +0.000 HD
ENDBRANCH  10  11
ENDBRANCH   1  10
TORSDOF 4
ENDMDL
MODEL 8
REMARK VINA RESULT:      -6.5      2.725      6.445
REMARK  Name = 
REMARK  6 active torsions:
REMARK  status: ('A' for Active; 'I' for Inactive)
REMARK    1  A    between atoms: C_1  and  C_2
REMARK    2  A    between atoms: C_5  and  C_6
REMARK    3  A    between atoms: C_7  and  C_8
REMARK    4  A    between atoms: C_8  and  C_9
REMARK    5  A    between atoms: C_9  and  C_10
REMARK    6  A    between atoms: C_10  and  N_11
REMARK                            x       y       z     vdW  Elec       q    Type
REMARK                         _______ _______ _______ _____ _____    ______ ____
ROOT
ATOM      1  C   UNL     1       5.851   5.566  17.907  0.00  0.00    +0.000 C 
ENDROOT
BRANCH   1   2
ATOM      2  C   UNL     1       5.102   4.487  18.690  0.00  0.00    +0.000 C 
BRANCH   2   9
ATOM      3  C   UNL     1       3.475   1.758  17.932  0.00  0.00    +0.000 C 
ATOM      4  C   UNL     1       2.980   3.155  17.922  0.00  0.00    +0.000 A 
ATOM      5  N   UNL     1       1.716   3.414  17.570  0.00  0.00    +0.000 NA
ATOM      6  O   UNL     1       1.573   4.784  17.661  0.00  0.00    +0.000 OA
ATOM      7  C   UNL     1       2.745   5.338  18.068  0.00  0.00    +0.000 A 
ATOM      8  C   UNL     1       2.753   6.806  18.214  0.00  0.00    +0.000 C 
ATOM      9  C   UNL     1       3.686   4.347  18.251  0.00  0.00    +0.000 A 
ENDBRANCH   2   9
ENDBRANCH   1   2
BRANCH   1  10
ATOM     10  C   UNL     1       7.031   4.973  17.135  0.00  0.00    +0.000 C 
BRANCH  10  11
ATOM     11  N   UNL     1       7.219   5.715  15.901  0.00  0.00    +0.000 N 
ATOM     12  C   UNL     1       7.070   5.066  14.685  0.00  0.00    +0.000 A 
ATOM     13  C   UNL     1       6.121   4.077  14.421  0.00  0.00    +0.000 A 
ATOM     14  N   UNL     1       5.954   3.484  13.211  0.00  0.00    +0.000 NA
ATOM     15  C   UNL     1       6.769   3.944  12.241  0.00  0.00    +0.000 A 
ATOM     16  C   UNL     1       7.707   4.932  12.479  0.00  0.00    +0.000 A 
ATOM     17  N   UNL     1       7.880   5.501  13.697  0.00  0.00    +0.000 NA
ATOM     18  H   UNL     1       8.073   6.267  15.835  0.00  0.00    +0.000 HD
ENDBRANCH  10  11
ENDBRANCH   1  10
TORSDOF 4
ENDMDL
MODEL 9
REMARK VINA RESULT:      -6.4      1.313      2.365
REMARK  Name = 
REMARK  6 active torsions:
REMARK  status: ('A' for Active; 'I' for Inactive)
REMARK    1  A    between atoms: C_1  and  C_2
REMARK    2  A    between atoms: C_5  and  C_6
REMARK    3  A    between atoms: C_7  and  C_8
REMARK    4  A    between atoms: C_8  and  C_9
REMARK    5  A    between atoms: C_9  and  C_10
REMARK    6  A    between atoms: C_10  and  N_11
REMARK                            x       y       z     vdW  Elec       q    Type
REMARK                         _______ _______ _______ _____ _____    ______ ____
ROOT
ATOM      1  C   UNL     1       3.836   6.107  17.445  0.00  0.00    +0.000 C 
ENDROOT
BRANCH   1   2
ATOM      2  C   UNL     1       5.202   6.773  17.268  0.00  0.00    +0.000 C 
BRANCH   2   9
ATOM      3  C   UNL     1       5.771   4.961  14.611  0.00  0.00    +0.000 C 
ATOM      4  C   UNL     1       6.536   4.995  15.880  0.00  0.00    +0.000 A 
ATOM      5  N   UNL     1       7.611   4.214  16.034  0.00  0.00    +0.000 NA
ATOM      6  O   UNL     1       8.088   4.477  17.302  0.00  0.00    +0.000 OA
ATOM      7  C   UNL     1       7.303   5.411  17.900  0.00  0.00    +0.000 A 
ATOM      8  C   UNL     1       7.686   5.801  19.270  0.00  0.00    +0.000 C 
ATOM      9  C   UNL     1       6.291   5.783  17.040  0.00  0.00    +0.000 A 
ENDBRANCH   2   9
ENDBRANCH   1   2
BRANCH   1  10
ATOM     10  C   UNL     1       3.108   6.652  18.674  0.00  0.00    +0.000 C 
BRANCH  10  11
ATOM     11  N   UNL     1       3.418   5.821  19.824  0.00  0.00    +0.000 N 
ATOM     12  C   UNL     1       2.648   4.696  20.080  0.00  0.00    +0.000 A 
ATOM     13  C   UNL     1       2.120   3.852  19.102  0.00  0.00    +0.000 A 
ATOM     14  N   UNL     1       1.409   2.727  19.369  0.00  0.00    +0.000 NA
ATOM     15  C   UNL     1       1.263   2.450  20.680  0.00  0.00    +0.000 A 
ATOM     16  C   UNL     1       1.789   3.267  21.664  0.00  0.00    +0.000 A 
ATOM     17  N   UNL     1       2.478   4.400  21.385  0.00  0.00    +0.000 NA
ATOM     18  H   UNL     1       3.530   6.307  20.712  0.00  0.00    +0.000 HD
ENDBRANCH  10  11
ENDBRANCH   1  10
TORSDOF 4
ENDMDL
