MODEL 1
REMARK VINA RESULT:      -7.5      0.000      0.000
REMARK  Name = 
REMARK  8 active torsions:
REMARK  status: ('A' for Active; 'I' for Inactive)
REMARK    1  A    between atoms: N_1  and  CA_2
REMARK    2  A    between atoms: CA_2  and  C_3
REMARK    3  A    between atoms: CA_2  and  C_22
REMARK    4  A    between atoms: C_3  and  C_4
REMARK    5  A    between atoms: C_7  and  C_8
REMARK    6  A    between atoms: C_11  and  C_12
REMARK    7  A    between atoms: C_15  and  O_16
REMARK    8  A    between atoms: C_22  and  OXT_24
REMARK                            x       y       z     vdW  Elec       q    Type
REMARK                         _______ _______ _______ _____ _____    ______ ____
ROOT
ATOM      1  C   UNL     1       4.111   5.423  17.973  0.00  0.00    +0.000 A 
ATOM      2  C   UNL     1       4.117   6.576  17.174  0.00  0.00    +0.000 A 
ATOM      3  C   UNL     1       3.337   7.679  17.510  0.00  0.00    +0.000 A 
ATOM      4  C   UNL     1       2.519   7.653  18.648  0.00  0.00    +0.000 A 
ATOM      5  C   UNL     1       2.506   6.504  19.456  0.00  0.00    +0.000 A 
ATOM      6  C   UNL     1       3.296   5.399  19.121  0.00  0.00    +0.000 A 
ENDROOT
BRANCH   4   7
ATOM      7  C   UNL     1       1.667   8.815  18.961  0.00  0.00    +0.000 A 
ATOM      8  N   UNL     1       1.378   9.796  18.084  0.00  0.00    +0.000 NA
ATOM      9  O   UNL     1       0.571  10.599  18.710  0.00  0.00    +0.000 OA
ATOM     10  C   UNL     1       0.359  10.146  19.924  0.00  0.00    +0.000 A 
ATOM     11  N   UNL     1       1.040   9.006  20.137  0.00  0.00    +0.000 NA
BRANCH  10  12
ATOM     12  C   UNL     1      -0.523  10.797  20.908  0.00  0.00    +0.000 A 
ATOM     13  C   UNL     1      -0.504  10.384  22.250  0.00  0.00    +0.000 A 
ATOM     14  C   UNL     1      -1.337  10.999  23.188  0.00  0.00    +0.000 A 
ATOM     15  C   UNL     1      -2.201  12.031  22.793  0.00  0.00    +0.000 A 
ATOM     16  C   UNL     1      -2.219  12.447  21.458  0.00  0.00    +0.000 A 
ATOM     17  C   UNL     1      -1.384  11.835  20.518  0.00  0.00    +0.000 A 
BRANCH  15  18
ATOM     18  O   UNL     1      -3.013  12.630  23.687  0.00  0.00    +0.000 OA
ATOM     19  H   UNL     1      -3.834  13.070  23.423  0.00  0.00    +0.000 HD
ENDBRANCH  15  18
ENDBRANCH  10  12
ENDBRANCH   4   7
BRANCH   1  20
ATOM     20  C   UNL     1       4.935   4.207  17.598  0.00  0.00    +0.000 C 
BRANCH  20  21
ATOM     21  CA  UNL     1       5.839   4.374  16.346  0.00  0.00    +0.000 C 
BRANCH  21  22
ATOM     22  N   UNL     1       5.931   3.123  15.591  0.00  0.00    +0.000 NA
ATOM     23  H1  UNL     1       5.926   3.328  14.565  0.00  0.00    +0.000 HD
ATOM     24  H2  UNL     1       5.118   2.507  15.821  0.00  0.00    +0.000 HD
ENDBRANCH  21  22
BRANCH  21  25
ATOM     25  C   UNL     1       7.222   4.908  16.667  0.00  0.00    +0.000 C 
ATOM     26  O   UNL     1       7.531   6.051  16.369  0.00  0.00    +0.000 OA
BRANCH  25  27
ATOM     27  OXT UNL     1       8.132   4.128  17.291  0.00  0.00    +0.000 OA
ATOM     28  HXT UNL     1       8.002   3.812  18.195  0.00  0.00    +0.000 HD
ENDBRANCH  25  27
ENDBRANCH  21  25
ENDBRANCH  20  21
ENDBRANCH   1  20
TORSDOF 8
ENDMDL
MODEL 2
REMARK VINA RESULT:      -7.4      2.054      2.909
REMARK  Name = 
REMARK  8 active torsions:
REMARK  status: ('A' for Active; 'I' for Inactive)
REMARK    1  A    between atoms: N_1  and  CA_2
REMARK    2  A    between atoms: CA_2  and  C_3
REMARK    3  A    between atoms: CA_2  and  C_22
REMARK    4  A    between atoms: C_3  and  C_4
REMARK    5  A    between atoms: C_7  and  C_8
REMARK    6  A    between atoms: C_11  and  C_12
REMARK    7  A    between atoms: C_15  and  O_16
REMARK    8  A    between atoms: C_22  and  OXT_24
REMARK                            x       y       z     vdW  Elec       q    Type
REMARK                         _______ _______ _______ _____ _____    ______ ____
ROOT
ATOM      1  C   UNL     1       5.021   4.286  16.449  0.00  0.00    +0.000 A 
ATOM      2  C   UNL     1       4.242   3.542  17.349  0.00  0.00    +0.000 A 
ATOM      3  C   UNL     1       3.415   4.179  18.269  0.00  0.00    +0.000 A 
ATOM      4  C   UNL     1       3.355   5.577  18.326  0.00  0.00    +0.000 A 
ATOM      5  C   UNL     1       4.130   6.333  17.430  0.00  0.00    +0.000 A 
ATOM      6  C   UNL     1       4.956   5.691  16.499  0.00  0.00    +0.000 A 
ENDROOT
BRANCH   4   7
ATOM      7  C   UNL     1       2.507   6.232  19.339  0.00  0.00    +0.000 A 
ATOM      8  N   UNL     1       1.991   5.601  20.411  0.00  0.00    +0.000 NA
ATOM      9  O   UNL     1       1.354   6.513  21.082  0.00  0.00    +0.000 OA
ATOM     10  C   UNL     1       1.465   7.667  20.464  0.00  0.00    +0.000 A 
ATOM     11  N   UNL     1       2.192   7.541  19.339  0.00  0.00    +0.000 NA
BRANCH  10  12
ATOM     12  C   UNL     1       0.881   8.927  20.953  0.00  0.00    +0.000 A 
ATOM     13  C   UNL     1       0.304   8.984  22.233  0.00  0.00    +0.000 A 
ATOM     14  C   UNL     1      -0.250  10.177  22.703  0.00  0.00    +0.000 A 
ATOM     15  C   UNL     1      -0.235  11.326  21.898  0.00  0.00    +0.000 A 
ATOM     16  C   UNL     1       0.343  11.273  20.625  0.00  0.00    +0.000 A 
ATOM     17  C   UNL     1       0.900  10.081  20.153  0.00  0.00    +0.000 A 
BRANCH  15  18
ATOM     18  O   UNL     1      -0.770  12.483  22.338  0.00  0.00    +0.000 OA
ATOM     19  H   UNL     1      -1.599  12.509  22.836  0.00  0.00    +0.000 HD
ENDBRANCH  15  18
ENDBRANCH  10  12
ENDBRANCH   4   7
BRANCH   1  20
ATOM     20  C   UNL     1       5.946   3.601  15.463  0.00  0.00    +0.000 C 
BRANCH  20  21
ATOM     21  CA  UNL     1       6.080   4.297  14.080  0.00  0.00    +0.000 C 
BRANCH  21  22
ATOM     22  N   UNL     1       6.043   3.317  12.992  0.00  0.00    +0.000 NA
ATOM     23  H1  UNL     1       5.230   3.517  12.365  0.00  0.00    +0.000 HD
ATOM     24  H2  UNL     1       5.946   2.353  13.383  0.00  0.00    +0.000 HD
ENDBRANCH  21  22
BRANCH  21  25
ATOM     25  C   UNL     1       7.309   5.178  13.965  0.00  0.00    +0.000 C 
ATOM     26  O   UNL     1       7.840   5.636  14.965  0.00  0.00    +0.000 OA
BRANCH  25  27
ATOM     27  OXT UNL     1       7.837   5.467  12.756  0.00  0.00    +0.000 OA
ATOM     28  HXT UNL     1       8.792   5.518  12.613  0.00  0.00    +0.000 HD
ENDBRANCH  25  27
ENDBRANCH  21  25
ENDBRANCH  20  21
ENDBRANCH   1  20
TORSDOF 8
ENDMDL
MODEL 3
REMARK VINA RESULT:      -7.4      0.325      1.040
REMARK  Name = 
REMARK  8 active torsions:
REMARK  status: ('A' for Active; 'I' for Inactive)
REMARK    1  A    between atoms: N_1  and  CA_2
REMARK    2  A    between atoms: CA_2  and  C_3
REMARK    3  A    between atoms: CA_2  and  C_22
REMARK    4  A    between atoms: C_3  and  C_4
REMARK    5  A    between atoms: C_7  and  C_8
REMARK    6  A    between atoms: C_11  and  C_12
REMARK    7  A    between atoms: C_15  and  O_16
REMARK    8  A    between atoms: C_22  and  OXT_24
REMARK                            x       y       z     vdW  Elec       q    Type
REMARK                         _______ _______ _______ _____ _____    ______ ____
ROOT
ATOM      1  C   UNL     1       4.128   5.564  18.318  0.00  0.00    +0.000 A 
ATOM      2  C   UNL     1       4.078   6.657  17.438  0.00  0.00    +0.000 A 
ATOM      3  C   UNL     1       3.226   7.729  17.684  0.00  0.00    +0.000 A 
ATOM      4  C   UNL     1       2.389   7.732  18.808  0.00  0.00    +0.000 A 
ATOM      5  C   UNL     1       2.430   6.643  19.695  0.00  0.00    +0.000 A 
ATOM      6  C   UNL     1       3.294   5.568  19.451  0.00  0.00    +0.000 A 
ENDROOT
BRANCH   4   7
ATOM      7  C   UNL     1       1.461   8.857  19.025  0.00  0.00    +0.000 A 
ATOM      8  N   UNL     1       0.991   9.646  18.040  0.00  0.00    +0.000 NA
ATOM      9  O   UNL     1       0.175  10.476  18.616  0.00  0.00    +0.000 OA
ATOM     10  C   UNL     1       0.129  10.221  19.904  0.00  0.00    +0.000 A 
ATOM     11  N   UNL     1       0.937   9.193  20.219  0.00  0.00    +0.000 NA
BRANCH  10  12
ATOM     12  C   UNL     1      -0.712  10.956  20.863  0.00  0.00    +0.000 A 
ATOM     13  C   UNL     1      -1.588  11.956  20.409  0.00  0.00    +0.000 A 
ATOM     14  C   UNL     1      -2.389  12.656  21.314  0.00  0.00    +0.000 A 
ATOM     15  C   UNL     1      -2.321  12.366  22.685  0.00  0.00    +0.000 A 
ATOM     16  C   UNL     1      -1.452  11.368  23.140  0.00  0.00    +0.000 A 
ATOM     17  C   UNL     1      -0.652  10.665  22.235  0.00  0.00    +0.000 A 
BRANCH  15  18
ATOM     18  O   UNL     1      -3.085  13.038  23.571  0.00  0.00    +0.000 OA
ATOM     19  H   UNL     1      -2.719  13.415  24.384  0.00  0.00    +0.000 HD
ENDBRANCH  15  18
ENDBRANCH  10  12
ENDBRANCH   4   7
BRANCH   1  20
ATOM     20  C   UNL     1       5.032   4.379  18.042  0.00  0.00    +0.000 C 
BRANCH  20  21
ATOM     21  CA  UNL     1       5.810   4.432  16.699  0.00  0.00    +0.000 C 
BRANCH  21  22
ATOM     22  N   UNL     1       5.738   3.149  15.997  0.00  0.00    +0.000 NA
ATOM     23  H1  UNL     1       5.001   2.548  16.435  0.00  0.00    +0.000 HD
ATOM     24  H2  UNL     1       6.659   2.658  16.055  0.00  0.00    +0.000 HD
ENDBRANCH  21  22
BRANCH  21  25
ATOM     25  C   UNL     1       7.253   4.875  16.854  0.00  0.00    +0.000 C 
ATOM     26  O   UNL     1       7.635   5.926  16.363  0.00  0.00    +0.000 OA
BRANCH  25  27
ATOM     27  OXT UNL     1       8.135   4.117  17.541  0.00  0.00    +0.000 OA
ATOM     28  HXT UNL     1       7.864   3.324  18.022  0.00  0.00    +0.000 HD
ENDBRANCH  25  27
ENDBRANCH  21  25
ENDBRANCH  20  21
ENDBRANCH   1  20
TORSDOF 8
ENDMDL
MODEL 4
REMARK VINA RESULT:      -7.4      0.399      1.428
REMARK  Name = 
REMARK  8 active torsions:
REMARK  status: ('A' for Active; 'I' for Inactive)
REMARK    1  A    between atoms: N_1  and  CA_2
REMARK    2  A    between atoms: CA_2  and  C_3
REMARK    3  A    between atoms: CA_2  and  C_22
REMARK    4  A    between atoms: C_3  and  C_4
REMARK    5  A    between atoms: C_7  and  C_8
REMARK    6  A    between atoms: C_11  and  C_12
REMARK    7  A    between atoms: C_15  and  O_16
REMARK    8  A    between atoms: C_22  and  OXT_24
REMARK                            x       y       z     vdW  Elec       q    Type
REMARK                         _______ _______ _______ _____ _____    ______ ____
ROOT
ATOM      1  C   UNL     1       4.084   5.294  17.561  0.00  0.00    +0.000 A 
ATOM      2  C   UNL     1       2.969   5.171  18.404  0.00  0.00    +0.000 A 
ATOM      3  C   UNL     1       2.222   6.290  18.763  0.00  0.00    +0.000 A 
ATOM      4  C   UNL     1       2.579   7.563  18.301  0.00  0.00    +0.000 A 
ATOM      5  C   UNL     1       3.693   7.698  17.457  0.00  0.00    +0.000 A 
ATOM      6  C   UNL     1       4.439   6.572  17.090  0.00  0.00    +0.000 A 
ENDROOT
BRANCH   4   7
ATOM      7  C   UNL     1       1.801   8.740  18.730  0.00  0.00    +0.000 A 
ATOM      8  N   UNL     1       1.611   9.836  17.969  0.00  0.00    +0.000 NA
ATOM      9  O   UNL     1       0.843  10.617  18.666  0.00  0.00    +0.000 OA
ATOM     10  C   UNL     1       0.558  10.042  19.812  0.00  0.00    +0.000 A 
ATOM     11  N   UNL     1       1.150   8.837  19.905  0.00  0.00    +0.000 NA
BRANCH  10  12
ATOM     12  C   UNL     1      -0.308  10.636  20.844  0.00  0.00    +0.000 A 
ATOM     13  C   UNL     1      -1.180  11.686  20.511  0.00  0.00    +0.000 A 
ATOM     14  C   UNL     1      -2.005  12.253  21.485  0.00  0.00    +0.000 A 
ATOM     15  C   UNL     1      -1.965  11.778  22.805  0.00  0.00    +0.000 A 
ATOM     16  C   UNL     1      -1.100  10.731  23.139  0.00  0.00    +0.000 A 
ATOM     17  C   UNL     1      -0.276  10.160  22.165  0.00  0.00    +0.000 A 
BRANCH  15  18
ATOM     18  O   UNL     1      -2.752  12.320  23.757  0.00  0.00    +0.000 OA
ATOM     19  H   UNL     1      -2.392  12.672  24.583  0.00  0.00    +0.000 HD
ENDBRANCH  15  18
ENDBRANCH  10  12
ENDBRANCH   4   7
BRANCH   1  20
ATOM     20  C   UNL     1       4.920   4.085  17.189  0.00  0.00    +0.000 C 
BRANCH  20  21
ATOM     21  CA  UNL     1       5.875   4.282  15.980  0.00  0.00    +0.000 C 
BRANCH  21  22
ATOM     22  N   UNL     1       6.010   3.044  15.209  0.00  0.00    +0.000 NA
ATOM     23  H1  UNL     1       5.560   3.161  14.272  0.00  0.00    +0.000 HD
ATOM     24  H2  UNL     1       5.548   2.256  15.715  0.00  0.00    +0.000 HD
ENDBRANCH  21  22
BRANCH  21  25
ATOM     25  C   UNL     1       7.238   4.821  16.369  0.00  0.00    +0.000 C 
ATOM     26  O   UNL     1       7.642   5.877  15.908  0.00  0.00    +0.000 OA
BRANCH  25  27
ATOM     27  OXT UNL     1       8.024   4.144  17.233  0.00  0.00    +0.000 OA
ATOM     28  HXT UNL     1       7.795   3.260  17.551  0.00  0.00    +0.000 HD
ENDBRANCH  25  27
ENDBRANCH  21  25
ENDBRANCH  20  21
ENDBRANCH   1  20
TORSDOF 8
ENDMDL
MODEL 5
REMARK VINA RESULT:      -7.3      2.229      2.624
REMARK  Name = 
REMARK  8 active torsions:
REMARK  status: ('A' for Active; 'I' for Inactive)
REMARK    1  A    between atoms: N_1  and  CA_2
REMARK    2  A    between atoms: CA_2  and  C_3
REMARK    3  A    between atoms: CA_2  and  C_22
REMARK    4  A    between atoms: C_3  and  C_4
REMARK    5  A    between atoms: C_7  and  C_8
REMARK    6  A    between atoms: C_11  and  C_12
REMARK    7  A    between atoms: C_15  and  O_16
REMARK    8  A    between atoms: C_22  and  OXT_24
REMARK                            x       y       z     vdW  Elec       q    Type
REMARK                         _______ _______ _______ _____ _____    ______ ____
ROOT
ATOM      1  C   UNL     1       3.807   5.324  18.753  0.00  0.00    +0.000 A 
ATOM      2  C   UNL     1       2.957   5.517  19.853  0.00  0.00    +0.000 A 
ATOM      3  C   UNL     1       2.187   6.671  19.964  0.00  0.00    +0.000 A 
ATOM      4  C   UNL     1       2.257   7.671  18.985  0.00  0.00    +0.000 A 
ATOM      5  C   UNL     1       3.104   7.489  17.879  0.00  0.00    +0.000 A 
ATOM      6  C   UNL     1       3.872   6.325  17.765  0.00  0.00    +0.000 A 
ENDROOT
BRANCH   4   7
ATOM      7  C   UNL     1       1.466   8.906  19.144  0.00  0.00    +0.000 A 
ATOM      8  N   UNL     1       1.290   9.819  18.169  0.00  0.00    +0.000 NA
ATOM      9  O   UNL     1       0.505  10.722  18.673  0.00  0.00    +0.000 OA
ATOM     10  C   UNL     1       0.197  10.394  19.907  0.00  0.00    +0.000 A 
ATOM     11  N   UNL     1       0.790   9.239  20.259  0.00  0.00    +0.000 NA
BRANCH  10  12
ATOM     12  C   UNL     1      -0.693  11.183  20.776  0.00  0.00    +0.000 A 
ATOM     13  C   UNL     1      -0.668  10.992  22.167  0.00  0.00    +0.000 A 
ATOM     14  C   UNL     1      -1.508  11.739  22.996  0.00  0.00    +0.000 A 
ATOM     15  C   UNL     1      -2.386  12.683  22.442  0.00  0.00    +0.000 A 
ATOM     16  C   UNL     1      -2.411  12.877  21.058  0.00  0.00    +0.000 A 
ATOM     17  C   UNL     1      -1.569  12.133  20.226  0.00  0.00    +0.000 A 
BRANCH  15  18
ATOM     18  O   UNL     1      -3.207  13.406  23.231  0.00  0.00    +0.000 OA
ATOM     19  H   UNL     1      -3.077  13.469  24.188  0.00  0.00    +0.000 HD
ENDBRANCH  15  18
ENDBRANCH  10  12
ENDBRANCH   4   7
BRANCH   1  20
ATOM     20  C   UNL     1       4.671   4.084  18.640  0.00  0.00    +0.000 C 
BRANCH  20  21
ATOM     21  CA  UNL     1       4.094   2.806  19.308  0.00  0.00    +0.000 C 
BRANCH  21  22
ATOM     22  N   UNL     1       5.099   2.150  20.146  0.00  0.00    +0.000 NA
ATOM     23  H1  UNL     1       5.326   1.207  19.752  0.00  0.00    +0.000 HD
ATOM     24  H2  UNL     1       4.734   2.035  21.118  0.00  0.00    +0.000 HD
ENDBRANCH  21  22
BRANCH  21  25
ATOM     25  C   UNL     1       3.500   1.823  18.317  0.00  0.00    +0.000 C 
ATOM     26  O   UNL     1       2.557   2.147  17.612  0.00  0.00    +0.000 OA
BRANCH  25  27
ATOM     27  OXT UNL     1       4.006   0.577  18.197  0.00  0.00    +0.000 OA
ATOM     28  HXT UNL     1       4.606   0.202  18.855  0.00  0.00    +0.000 HD
ENDBRANCH  25  27
ENDBRANCH  21  25
ENDBRANCH  20  21
ENDBRANCH   1  20
TORSDOF 8
ENDMDL
MODEL 6
REMARK VINA RESULT:      -7.3      2.401      3.041
REMARK  Name = 
REMARK  8 active torsions:
REMARK  status: ('A' for Active; 'I' for Inactive)
REMARK    1  A    between atoms: N_1  and  CA_2
REMARK    2  A    between atoms: CA_2  and  C_3
REMARK    3  A    between atoms: CA_2  and  C_22
REMARK    4  A    between atoms: C_3  and  C_4
REMARK    5  A    between atoms: C_7  and  C_8
REMARK    6  A    between atoms: C_11  and  C_12
REMARK    7  A    between atoms: C_15  and  O_16
REMARK    8  A    between atoms: C_22  and  OXT_24
REMARK                            x       y       z     vdW  Elec       q    Type
REMARK                         _______ _______ _______ _____ _____    ______ ____
ROOT
ATOM      1  C   UNL     1       5.220   4.739  16.219  0.00  0.00    +0.000 A 
ATOM      2  C   UNL     1       5.315   6.133  16.091  0.00  0.00    +0.000 A 
ATOM      3  C   UNL     1       4.496   6.974  16.839  0.00  0.00    +0.000 A 
ATOM      4  C   UNL     1       3.548   6.442  17.725  0.00  0.00    +0.000 A 
ATOM      5  C   UNL     1       3.445   5.048  17.861  0.00  0.00    +0.000 A 
ATOM      6  C   UNL     1       4.275   4.204  17.114  0.00  0.00    +0.000 A 
ENDROOT
BRANCH   4   7
ATOM      7  C   UNL     1       2.659   7.350  18.474  0.00  0.00    +0.000 A 
ATOM      8  N   UNL     1       2.330   7.182  19.769  0.00  0.00    +0.000 NA
ATOM      9  O   UNL     1       1.582   8.199  20.075  0.00  0.00    +0.000 OA
ATOM     10  C   UNL     1       1.448   8.974  19.023  0.00  0.00    +0.000 A 
ATOM     11  N   UNL     1       2.117   8.474  17.969  0.00  0.00    +0.000 NA
BRANCH  10  12
ATOM     12  C   UNL     1       0.680  10.230  19.014  0.00  0.00    +0.000 A 
ATOM     13  C   UNL     1      -0.585  10.277  18.403  0.00  0.00    +0.000 A 
ATOM     14  C   UNL     1      -1.319  11.466  18.392  0.00  0.00    +0.000 A 
ATOM     15  C   UNL     1      -0.795  12.622  18.991  0.00  0.00    +0.000 A 
ATOM     16  C   UNL     1       0.461  12.577  19.603  0.00  0.00    +0.000 A 
ATOM     17  C   UNL     1       1.196  11.388  19.617  0.00  0.00    +0.000 A 
BRANCH  15  18
ATOM     18  O   UNL     1      -1.491  13.776  18.983  0.00  0.00    +0.000 OA
ATOM     19  H   UNL     1      -1.323  14.483  19.624  0.00  0.00    +0.000 HD
ENDBRANCH  15  18
ENDBRANCH  10  12
ENDBRANCH   4   7
BRANCH   1  20
ATOM     20  C   UNL     1       6.089   3.816  15.387  0.00  0.00    +0.000 C 
BRANCH  20  21
ATOM     21  CA  UNL     1       6.171   4.162  13.875  0.00  0.00    +0.000 C 
BRANCH  21  22
ATOM     22  N   UNL     1       6.109   2.952  13.053  0.00  0.00    +0.000 NA
ATOM     23  H1  UNL     1       6.831   2.268  13.377  0.00  0.00    +0.000 HD
ATOM     24  H2  UNL     1       6.288   3.191  12.052  0.00  0.00    +0.000 HD
ENDBRANCH  21  22
BRANCH  21  25
ATOM     25  C   UNL     1       7.388   4.992  13.512  0.00  0.00    +0.000 C 
ATOM     26  O   UNL     1       8.033   5.560  14.380  0.00  0.00    +0.000 OA
BRANCH  25  27
ATOM     27  OXT UNL     1       7.780   5.113  12.225  0.00  0.00    +0.000 OA
ATOM     28  HXT UNL     1       8.712   5.123  11.972  0.00  0.00    +0.000 HD
ENDBRANCH  25  27
ENDBRANCH  21  25
ENDBRANCH  20  21
ENDBRANCH   1  20
TORSDOF 8
ENDMDL
MODEL 7
REMARK VINA RESULT:      -7.3      1.554      1.972
REMARK  Name = 
REMARK  8 active torsions:
REMARK  status: ('A' for Active; 'I' for Inactive)
REMARK    1  A    between atoms: N_1  and  CA_2
REMARK    2  A    between atoms: CA_2  and  C_3
REMARK    3  A    between atoms: CA_2  and  C_22
REMARK    4  A    between atoms: C_3  and  C_4
REMARK    5  A    between atoms: C_7  and  C_8
REMARK    6  A    between atoms: C_11  and  C_12
REMARK    7  A    between atoms: C_15  and  O_16
REMARK    8  A    between atoms: C_22  and  OXT_24
REMARK                            x       y       z     vdW  Elec       q    Type
REMARK                         _______ _______ _______ _____ _____    ______ ____
ROOT
ATOM      1  C   UNL     1       4.151   4.997  17.257  0.00  0.00    +0.000 A 
ATOM      2  C   UNL     1       4.296   6.370  17.004  0.00  0.00    +0.000 A 
ATOM      3  C   UNL     1       3.568   7.308  17.731  0.00  0.00    +0.000 A 
ATOM      4  C   UNL     1       2.665   6.898  18.720  0.00  0.00    +0.000 A 
ATOM      5  C   UNL     1       2.512   5.526  18.982  0.00  0.00    +0.000 A 
ATOM      6  C   UNL     1       3.250   4.584  18.256  0.00  0.00    +0.000 A 
ENDROOT
BRANCH   4   7
ATOM      7  C   UNL     1       1.871   7.906  19.447  0.00  0.00    +0.000 A 
ATOM      8  N   UNL     1       1.543   7.809  20.750  0.00  0.00    +0.000 NA
ATOM      9  O   UNL     1       0.895   8.900  21.029  0.00  0.00    +0.000 OA
ATOM     10  C   UNL     1       0.820   9.651  19.955  0.00  0.00    +0.000 A 
ATOM     11  N   UNL     1       1.428   9.058  18.911  0.00  0.00    +0.000 NA
BRANCH  10  12
ATOM     12  C   UNL     1       0.170  10.972  19.912  0.00  0.00    +0.000 A 
ATOM     13  C   UNL     1      -0.446  11.490  21.063  0.00  0.00    +0.000 A 
ATOM     14  C   UNL     1      -1.063  12.743  21.029  0.00  0.00    +0.000 A 
ATOM     15  C   UNL     1      -1.074  13.490  19.841  0.00  0.00    +0.000 A 
ATOM     16  C   UNL     1      -0.459  12.978  18.695  0.00  0.00    +0.000 A 
ATOM     17  C   UNL     1       0.161  11.726  18.727  0.00  0.00    +0.000 A 
BRANCH  15  18
ATOM     18  O   UNL     1      -1.671  14.698  19.793  0.00  0.00    +0.000 OA
ATOM     19  H   UNL     1      -2.508  14.877  20.245  0.00  0.00    +0.000 HD
ENDBRANCH  15  18
ENDBRANCH  10  12
ENDBRANCH   4   7
BRANCH   1  20
ATOM     20  C   UNL     1       4.917   3.968  16.450  0.00  0.00    +0.000 C 
BRANCH  20  21
ATOM     21  CA  UNL     1       5.979   4.542  15.472  0.00  0.00    +0.000 C 
BRANCH  21  22
ATOM     22  N   UNL     1       6.276   3.593  14.398  0.00  0.00    +0.000 NA
ATOM     23  H1  UNL     1       7.186   3.113  14.593  0.00  0.00    +0.000 HD
ATOM     24  H2  UNL     1       6.342   4.096  13.485  0.00  0.00    +0.000 HD
ENDBRANCH  21  22
BRANCH  21  25
ATOM     25  C   UNL     1       7.256   4.985  16.162  0.00  0.00    +0.000 C 
ATOM     26  O   UNL     1       7.662   6.130  16.039  0.00  0.00    +0.000 OA
BRANCH  25  27
ATOM     27  OXT UNL     1       7.961   4.122  16.924  0.00  0.00    +0.000 OA
ATOM     28  HXT UNL     1       7.666   3.214  17.077  0.00  0.00    +0.000 HD
ENDBRANCH  25  27
ENDBRANCH  21  25
ENDBRANCH  20  21
ENDBRANCH   1  20
TORSDOF 8
ENDMDL
MODEL 8
REMARK VINA RESULT:      -7.2      2.183      2.583
REMARK  Name = 
REMARK  8 active torsions:
REMARK  status: ('A' for Active; 'I' for Inactive)
REMARK    1  A    between atoms: N_1  and  CA_2
REMARK    2  A    between atoms: CA_2  and  C_3
REMARK    3  A    between atoms: CA_2  and  C_22
REMARK    4  A    between atoms: C_3  and  C_4
REMARK    5  A    between atoms: C_7  and  C_8
REMARK    6  A    between atoms: C_11  and  C_12
REMARK    7  A    between atoms: C_15  and  O_16
REMARK    8  A    between atoms: C_22  and  OXT_24
REMARK                            x       y       z     vdW  Elec       q    Type
REMARK                         _______ _______ _______ _____ _____    ______ ____
ROOT
ATOM      1  C   UNL     1       3.706   5.517  18.487  0.00  0.00    +0.000 A 
ATOM      2  C   UNL     1       3.698   6.562  17.551  0.00  0.00    +0.000 A 
ATOM      3  C   UNL     1       2.949   7.714  17.776  0.00  0.00    +0.000 A 
ATOM      4  C   UNL     1       2.175   7.845  18.937  0.00  0.00    +0.000 A 
ATOM      5  C   UNL     1       2.176   6.805  19.881  0.00  0.00    +0.000 A 
ATOM      6  C   UNL     1       2.935   5.650  19.657  0.00  0.00    +0.000 A 
ENDROOT
BRANCH   4   7
ATOM      7  C   UNL     1       1.354   9.053  19.135  0.00  0.00    +0.000 A 
ATOM      8  N   UNL     1       1.063   9.935  18.158  0.00  0.00    +0.000 NA
ATOM      9  O   UNL     1       0.288  10.821  18.706  0.00  0.00    +0.000 OA
ATOM     10  C   UNL     1       0.095  10.513  19.968  0.00  0.00    +0.000 A 
ATOM     11  N   UNL     1       0.760   9.390  20.295  0.00  0.00    +0.000 NA
BRANCH  10  12
ATOM     12  C   UNL     1      -0.749  11.290  20.890  0.00  0.00    +0.000 A 
ATOM     13  C   UNL     1      -1.553  12.333  20.399  0.00  0.00    +0.000 A 
ATOM     14  C   UNL     1      -2.357  13.073  21.268  0.00  0.00    +0.000 A 
ATOM     15  C   UNL     1      -2.365  12.781  22.640  0.00  0.00    +0.000 A 
ATOM     16  C   UNL     1      -1.569  11.741  23.132  0.00  0.00    +0.000 A 
ATOM     17  C   UNL     1      -0.765  10.998  22.263  0.00  0.00    +0.000 A 
BRANCH  15  18
ATOM     18  O   UNL     1      -3.133  13.491  23.491  0.00  0.00    +0.000 OA
ATOM     19  H   UNL     1      -3.815  14.103  23.180  0.00  0.00    +0.000 HD
ENDBRANCH  15  18
ENDBRANCH  10  12
ENDBRANCH   4   7
BRANCH   1  20
ATOM     20  C   UNL     1       4.495   4.247  18.236  0.00  0.00    +0.000 C 
BRANCH  20  21
ATOM     21  CA  UNL     1       4.048   3.010  19.061  0.00  0.00    +0.000 C 
BRANCH  21  22
ATOM     22  N   UNL     1       5.146   2.501  19.885  0.00  0.00    +0.000 NA
ATOM     23  H1  UNL     1       4.815   2.364  20.868  0.00  0.00    +0.000 HD
ATOM     24  H2  UNL     1       5.939   3.180  19.881  0.00  0.00    +0.000 HD
ENDBRANCH  21  22
BRANCH  21  25
ATOM     25  C   UNL     1       3.458   1.900  18.211  0.00  0.00    +0.000 C 
ATOM     26  O   UNL     1       2.517   2.122  17.467  0.00  0.00    +0.000 OA
BRANCH  25  27
ATOM     27  OXT UNL     1       3.968   0.650  18.262  0.00  0.00    +0.000 OA
ATOM     28  HXT UNL     1       4.130   0.130  17.464  0.00  0.00    +0.000 HD
ENDBRANCH  25  27
ENDBRANCH  21  25
ENDBRANCH  20  21
ENDBRANCH   1  20
TORSDOF 8
ENDMDL
MODEL 9
REMARK VINA RESULT:      -7.2      1.744      2.334
REMARK  Name = 
REMARK  8 active torsions:
REMARK  status: ('A' for Active; 'I' for Inactive)
REMARK    1  A    between atoms: N_1  and  CA_2
REMARK    2  A    between atoms: CA_2  and  C_3
REMARK    3  A    between atoms: CA_2  and  C_22
REMARK    4  A    between atoms: C_3  and  C_4
REMARK    5  A    between atoms: C_7  and  C_8
REMARK    6  A    between atoms: C_11  and  C_12
REMARK    7  A    between atoms: C_15  and  O_16
REMARK    8  A    between atoms: C_22  and  OXT_24
REMARK                            x       y       z     vdW  Elec       q    Type
REMARK                         _______ _______ _______ _____ _____    ______ ____
ROOT
ATOM      1  C   UNL     1       4.260   4.937  16.947  0.00  0.00    +0.000 A 
ATOM      2  C   UNL     1       3.203   4.540  17.781  0.00  0.00    +0.000 A 
ATOM      3  C   UNL     1       2.463   5.483  18.489  0.00  0.00    +0.000 A 
ATOM      4  C   UNL     1       2.770   6.847  18.396  0.00  0.00    +0.000 A 
ATOM      5  C   UNL     1       3.826   7.256  17.565  0.00  0.00    +0.000 A 
ATOM      6  C   UNL     1       4.564   6.308  16.846  0.00  0.00    +0.000 A 
ENDROOT
BRANCH   4   7
ATOM      7  C   UNL     1       2.002   7.824  19.190  0.00  0.00    +0.000 A 
ATOM      8  N   UNL     1       1.798   7.721  20.518  0.00  0.00    +0.000 NA
ATOM      9  O   UNL     1       1.131   8.784  20.852  0.00  0.00    +0.000 OA
ATOM     10  C   UNL     1       0.927   9.526  19.787  0.00  0.00    +0.000 A 
ATOM     11  N   UNL     1       1.463   8.954  18.694  0.00  0.00    +0.000 NA
BRANCH  10  12
ATOM     12  C   UNL     1       0.219  10.817  19.801  0.00  0.00    +0.000 A 
ATOM     13  C   UNL     1       0.195  11.593  20.972  0.00  0.00    +0.000 A 
ATOM     14  C   UNL     1      -0.473  12.819  20.991  0.00  0.00    +0.000 A 
ATOM     15  C   UNL     1      -1.128  13.282  19.839  0.00  0.00    +0.000 A 
ATOM     16  C   UNL     1      -1.102  12.513  18.671  0.00  0.00    +0.000 A 
ATOM     17  C   UNL     1      -0.431  11.287  18.649  0.00  0.00    +0.000 A 
BRANCH  15  18
ATOM     18  O   UNL     1      -1.781  14.462  19.845  0.00  0.00    +0.000 OA
ATOM     19  H   UNL     1      -2.716  14.531  20.085  0.00  0.00    +0.000 HD
ENDBRANCH  15  18
ENDBRANCH  10  12
ENDBRANCH   4   7
BRANCH   1  20
ATOM     20  C   UNL     1       5.089   3.916  16.195  0.00  0.00    +0.000 C 
BRANCH  20  21
ATOM     21  CA  UNL     1       5.871   4.463  14.970  0.00  0.00    +0.000 C 
BRANCH  21  22
ATOM     22  N   UNL     1       5.881   3.492  13.874  0.00  0.00    +0.000 NA
ATOM     23  H1  UNL     1       6.647   3.728  13.201  0.00  0.00    +0.000 HD
ATOM     24  H2  UNL     1       4.965   3.511  13.372  0.00  0.00    +0.000 HD
ENDBRANCH  21  22
BRANCH  21  25
ATOM     25  C   UNL     1       7.283   4.906  15.304  0.00  0.00    +0.000 C 
ATOM     26  O   UNL     1       7.780   4.632  16.385  0.00  0.00    +0.000 OA
BRANCH  25  27
ATOM     27  OXT UNL     1       8.014   5.607  14.410  0.00  0.00    +0.000 OA
ATOM     28  HXT UNL     1       7.681   6.414  13.996  0.00  0.00    +0.000 HD
ENDBRANCH  25  27
ENDBRANCH  21  25
ENDBRANCH  20  21
ENDBRANCH   1  20
TORSDOF 8
ENDMDL
