MODEL 1
REMARK VINA RESULT:      -7.3      0.000      0.000
REMARK  Name = 
REMARK  7 active torsions:
REMARK  status: ('A' for Active; 'I' for Inactive)
REMARK    1  A    between atoms: C_1  and  S_2
REMARK    2  A    between atoms: S_2  and  C_3
REMARK    3  A    between atoms: C_6  and  C_7
REMARK    4  A    between atoms: C_7  and  C_8
REMARK    5  A    between atoms: C_11  and  C_12
REMARK    6  A    between atoms: C_12  and  C_13
REMARK    7  A    between atoms: C_13  and  C_14
REMARK                            x       y       z     vdW  Elec       q    Type
REMARK                         _______ _______ _______ _____ _____    ______ ____
ROOT
ATOM      1  C   UNL     1       7.347   6.789  17.393  0.00  0.00    +0.000 A 
ATOM      2  N   UNL     1       7.980   6.551  18.552  0.00  0.00    +0.000 NA
ATOM      3  O   UNL     1       8.484   7.803  18.907  0.00  0.00    +0.000 OA
ATOM      4  C   UNL     1       8.120   8.667  17.914  0.00  0.00    +0.000 A 
ATOM      5  N   UNL     1       7.419   8.095  16.960  0.00  0.00    +0.000 NA
ENDROOT
BRANCH   1   6
ATOM      6  C   UNL     1       6.813   5.701  16.537  0.00  0.00    +0.000 C 
BRANCH   6  10
ATOM      7  C   UNL     1       3.005   4.508  18.209  0.00  0.00    +0.000 A 
ATOM      8  C   UNL     1       3.901   3.549  17.734  0.00  0.00    +0.000 A 
ATOM      9  C   UNL     1       5.119   3.939  17.171  0.00  0.00    +0.000 A 
ATOM     10  C   UNL     1       5.460   5.295  17.074  0.00  0.00    +0.000 A 
ATOM     11  C   UNL     1       4.545   6.255  17.531  0.00  0.00    +0.000 A 
ATOM     12  C   UNL     1       3.324   5.862  18.094  0.00  0.00    +0.000 A 
BRANCH   7  14
ATOM     13  C   UNL     1       1.644   4.834  20.550  0.00  0.00    +0.000 C 
ATOM     14  S   UNL     1       1.464   4.004  18.949  0.00  0.00    +0.000 S 
ENDBRANCH   7  14
ENDBRANCH   6  10
ENDBRANCH   1   6
BRANCH   4  15
ATOM     15  C   UNL     1       8.644  10.050  18.013  0.00  0.00    +0.000 C 
BRANCH  15  16
ATOM     16  C   UNL     1       9.406  10.279  19.314  0.00  0.00    +0.000 C 
BRANCH  16  17
ATOM     17  C   UNL     1      10.603  11.144  19.118  0.00  0.00    +0.000 A 
ATOM     18  C   UNL     1      11.109  11.681  17.951  0.00  0.00    +0.000 A 
ATOM     19  N   UNL     1      12.208  12.402  18.332  0.00  0.00    +0.000 N 
ATOM     20  C   UNL     1      12.330  12.277  19.685  0.00  0.00    +0.000 A 
ATOM     21  N   UNL     1      11.378  11.523  20.187  0.00  0.00    +0.000 NA
ATOM     22  H   UNL     1      12.820  12.935  17.730  0.00  0.00    +0.000 HD
ENDBRANCH  16  17
ENDBRANCH  15  16
ENDBRANCH   4  15
TORSDOF 6
ENDMDL
MODEL 2
REMARK VINA RESULT:      -7.1      1.426      2.026
REMARK  Name = 
REMARK  7 active torsions:
REMARK  status: ('A' for Active; 'I' for Inactive)
REMARK    1  A    between atoms: C_1  and  S_2
REMARK    2  A    between atoms: S_2  and  C_3
REMARK    3  A    between atoms: C_6  and  C_7
REMARK    4  A    between atoms: C_7  and  C_8
REMARK    5  A    between atoms: C_11  and  C_12
REMARK    6  A    between atoms: C_12  and  C_13
REMARK    7  A    between atoms: C_13  and  C_14
REMARK                            x       y       z     vdW  Elec       q    Type
REMARK                         _______ _______ _______ _____ _____    ______ ____
ROOT
ATOM      1  C   UNL     1       6.593   5.733  16.921  0.00  0.00    +0.000 A 
ATOM      2  N   UNL     1       6.063   6.820  16.338  0.00  0.00    +0.000 NA
ATOM      3  O   UNL     1       6.793   7.872  16.893  0.00  0.00    +0.000 OA
ATOM      4  C   UNL     1       7.678   7.313  17.771  0.00  0.00    +0.000 A 
ATOM      5  N   UNL     1       7.596   6.002  17.826  0.00  0.00    +0.000 NA
ENDROOT
BRANCH   1   6
ATOM      6  C   UNL     1       5.998   4.381  16.779  0.00  0.00    +0.000 C 
BRANCH   6  10
ATOM      7  C   UNL     1       2.436   4.059  19.213  0.00  0.00    +0.000 A 
ATOM      8  C   UNL     1       2.387   3.780  17.847  0.00  0.00    +0.000 A 
ATOM      9  C   UNL     1       3.534   3.909  17.059  0.00  0.00    +0.000 A 
ATOM     10  C   UNL     1       4.748   4.321  17.625  0.00  0.00    +0.000 A 
ATOM     11  C   UNL     1       4.785   4.624  18.994  0.00  0.00    +0.000 A 
ATOM     12  C   UNL     1       3.634   4.495  19.782  0.00  0.00    +0.000 A 
BRANCH   7  14
ATOM     13  C   UNL     1       1.662   2.775  21.492  0.00  0.00    +0.000 C 
ATOM     14  S   UNL     1       0.977   3.868  20.219  0.00  0.00    +0.000 S 
ENDBRANCH   7  14
ENDBRANCH   6  10
ENDBRANCH   1   6
BRANCH   4  15
ATOM     15  C   UNL     1       8.495   8.252  18.577  0.00  0.00    +0.000 C 
BRANCH  15  16
ATOM     16  C   UNL     1       8.480   9.662  17.997  0.00  0.00    +0.000 C 
BRANCH  16  17
ATOM     17  C   UNL     1       9.303  10.607  18.803  0.00  0.00    +0.000 A 
ATOM     18  C   UNL     1       9.397  10.730  20.175  0.00  0.00    +0.000 A 
ATOM     19  N   UNL     1      10.298  11.739  20.386  0.00  0.00    +0.000 N 
ATOM     20  C   UNL     1      10.706  12.184  19.163  0.00  0.00    +0.000 A 
ATOM     21  N   UNL     1      10.123  11.523  18.189  0.00  0.00    +0.000 NA
ATOM     22  H   UNL     1      10.612  12.092  21.280  0.00  0.00    +0.000 HD
ENDBRANCH  16  17
ENDBRANCH  15  16
ENDBRANCH   4  15
TORSDOF 6
ENDMDL
MODEL 3
REMARK VINA RESULT:      -7.1      1.232      1.329
REMARK  Name = 
REMARK  7 active torsions:
REMARK  status: ('A' for Active; 'I' for Inactive)
REMARK    1  A    between atoms: C_1  and  S_2
REMARK    2  A    between atoms: S_2  and  C_3
REMARK    3  A    between atoms: C_6  and  C_7
REMARK    4  A    between atoms: C_7  and  C_8
REMARK    5  A    between atoms: C_11  and  C_12
REMARK    6  A    between atoms: C_12  and  C_13
REMARK    7  A    between atoms: C_13  and  C_14
REMARK                            x       y       z     vdW  Elec       q    Type
REMARK                         _______ _______ _______ _____ _____    ______ ____
ROOT
ATOM      1  C   UNL     1       7.075   6.193  17.623  0.00  0.00    +0.000 A 
ATOM      2  N   UNL     1       7.908   6.134  18.673  0.00  0.00    +0.000 NA
ATOM      3  O   UNL     1       8.381   7.443  18.783  0.00  0.00    +0.000 OA
ATOM      4  C   UNL     1       7.797   8.155  17.774  0.00  0.00    +0.000 A 
ATOM      5  N   UNL     1       6.986   7.434  17.032  0.00  0.00    +0.000 NA
ENDROOT
BRANCH   1   6
ATOM      6  C   UNL     1       6.479   4.981  17.008  0.00  0.00    +0.000 C 
BRANCH   6  10
ATOM      7  C   UNL     1       2.776   4.241  19.121  0.00  0.00    +0.000 A 
ATOM      8  C   UNL     1       3.947   3.579  19.493  0.00  0.00    +0.000 A 
ATOM      9  C   UNL     1       5.136   3.802  18.792  0.00  0.00    +0.000 A 
ATOM     10  C   UNL     1       5.171   4.689  17.707  0.00  0.00    +0.000 A 
ATOM     11  C   UNL     1       3.985   5.332  17.323  0.00  0.00    +0.000 A 
ATOM     12  C   UNL     1       2.795   5.107  18.026  0.00  0.00    +0.000 A 
BRANCH   7  14
ATOM     13  C   UNL     1       1.985   3.319  21.563  0.00  0.00    +0.000 C 
ATOM     14  S   UNL     1       1.268   3.974  20.033  0.00  0.00    +0.000 S 
ENDBRANCH   7  14
ENDBRANCH   6  10
ENDBRANCH   1   6
BRANCH   4  15
ATOM     15  C   UNL     1       8.237   9.562  17.615  0.00  0.00    +0.000 C 
BRANCH  15  16
ATOM     16  C   UNL     1       9.065  10.038  18.804  0.00  0.00    +0.000 C 
BRANCH  16  17
ATOM     17  C   UNL     1       9.715  11.353  18.543  0.00  0.00    +0.000 A 
ATOM     18  C   UNL     1       9.163  12.618  18.564  0.00  0.00    +0.000 A 
ATOM     19  N   UNL     1      10.194  13.467  18.268  0.00  0.00    +0.000 N 
ATOM     20  C   UNL     1      11.310  12.705  18.079  0.00  0.00    +0.000 A 
ATOM     21  N   UNL     1      11.052  11.426  18.236  0.00  0.00    +0.000 NA
ATOM     22  H   UNL     1      10.148  14.475  18.203  0.00  0.00    +0.000 HD
ENDBRANCH  16  17
ENDBRANCH  15  16
ENDBRANCH   4  15
TORSDOF 6
ENDMDL
MODEL 4
REMARK VINA RESULT:      -7.0      1.432      2.042
REMARK  Name = 
REMARK  7 active torsions:
REMARK  status: ('A' for Active; 'I' for Inactive)
REMARK    1  A    between atoms: C_1  and  S_2
REMARK    2  A    between atoms: S_2  and  C_3
REMARK    3  A    between atoms: C_6  and  C_7
REMARK    4  A    between atoms: C_7  and  C_8
REMARK    5  A    between atoms: C_11  and  C_12
REMARK    6  A    between atoms: C_12  and  C_13
REMARK    7  A    between atoms: C_13  and  C_14
REMARK                            x       y       z     vdW  Elec       q    Type
REMARK                         _______ _______ _______ _____ _____    ______ ____
ROOT
ATOM      1  C   UNL     1       6.795   5.781  16.797  0.00  0.00    +0.000 A 
ATOM      2  N   UNL     1       6.122   6.851  16.346  0.00  0.00    +0.000 NA
ATOM      3  O   UNL     1       6.756   7.920  16.980  0.00  0.00    +0.000 OA
ATOM      4  C   UNL     1       7.737   7.384  17.765  0.00  0.00    +0.000 A 
ATOM      5  N   UNL     1       7.803   6.073  17.689  0.00  0.00    +0.000 NA
ENDROOT
BRANCH   1   6
ATOM      6  C   UNL     1       6.348   4.389  16.538  0.00  0.00    +0.000 C 
BRANCH   6  10
ATOM      7  C   UNL     1       2.756   3.813  18.880  0.00  0.00    +0.000 A 
ATOM      8  C   UNL     1       3.994   3.953  19.507  0.00  0.00    +0.000 A 
ATOM      9  C   UNL     1       5.156   4.114  18.747  0.00  0.00    +0.000 A 
ATOM     10  C   UNL     1       5.097   4.135  17.347  0.00  0.00    +0.000 A 
ATOM     11  C   UNL     1       3.852   3.969  16.722  0.00  0.00    +0.000 A 
ATOM     12  C   UNL     1       2.689   3.807  17.486  0.00  0.00    +0.000 A 
BRANCH   7  14
ATOM     13  C   UNL     1       0.541   2.223  18.982  0.00  0.00    +0.000 C 
ATOM     14  S   UNL     1       1.274   3.633  19.854  0.00  0.00    +0.000 S 
ENDBRANCH   7  14
ENDBRANCH   6  10
ENDBRANCH   1   6
BRANCH   4  15
ATOM     15  C   UNL     1       8.482   8.327  18.634  0.00  0.00    +0.000 C 
BRANCH  15  16
ATOM     16  C   UNL     1       8.538   9.729  18.035  0.00  0.00    +0.000 C 
BRANCH  16  17
ATOM     17  C   UNL     1       9.420  10.637  18.820  0.00  0.00    +0.000 A 
ATOM     18  C   UNL     1       9.451  10.861  20.182  0.00  0.00    +0.000 A 
ATOM     19  N   UNL     1      10.453  11.774  20.375  0.00  0.00    +0.000 N 
ATOM     20  C   UNL     1      10.980  12.067  19.151  0.00  0.00    +0.000 A 
ATOM     21  N   UNL     1      10.377  11.399  18.194  0.00  0.00    +0.000 NA
ATOM     22  H   UNL     1      10.756  12.161  21.258  0.00  0.00    +0.000 HD
ENDBRANCH  16  17
ENDBRANCH  15  16
ENDBRANCH   4  15
TORSDOF 6
ENDMDL
MODEL 5
REMARK VINA RESULT:      -6.9      1.250      1.369
REMARK  Name = 
REMARK  7 active torsions:
REMARK  status: ('A' for Active; 'I' for Inactive)
REMARK    1  A    between atoms: C_1  and  S_2
REMARK    2  A    between atoms: S_2  and  C_3
REMARK    3  A    between atoms: C_6  and  C_7
REMARK    4  A    between atoms: C_7  and  C_8
REMARK    5  A    between atoms: C_11  and  C_12
REMARK    6  A    between atoms: C_12  and  C_13
REMARK    7  A    between atoms: C_13  and  C_14
REMARK                            x       y       z     vdW  Elec       q    Type
REMARK                         _______ _______ _______ _____ _____    ______ ____
ROOT
ATOM      1  C   UNL     1       7.016   6.652  17.219  0.00  0.00    +0.000 A 
ATOM      2  N   UNL     1       7.620   5.977  18.209  0.00  0.00    +0.000 NA
ATOM      3  O   UNL     1       8.350   6.964  18.874  0.00  0.00    +0.000 OA
ATOM      4  C   UNL     1       8.126   8.133  18.204  0.00  0.00    +0.000 A 
ATOM      5  N   UNL     1       7.314   7.996  17.179  0.00  0.00    +0.000 NA
ENDROOT
BRANCH   1   6
ATOM      6  C   UNL     1       6.277   5.973  16.126  0.00  0.00    +0.000 C 
BRANCH   6  10
ATOM      7  C   UNL     1       2.694   4.300  17.881  0.00  0.00    +0.000 A 
ATOM      8  C   UNL     1       3.553   3.499  17.127  0.00  0.00    +0.000 A 
ATOM      9  C   UNL     1       4.696   4.049  16.540  0.00  0.00    +0.000 A 
ATOM     10  C   UNL     1       4.998   5.408  16.698  0.00  0.00    +0.000 A 
ATOM     11  C   UNL     1       4.117   6.213  17.436  0.00  0.00    +0.000 A 
ATOM     12  C   UNL     1       2.972   5.660  18.023  0.00  0.00    +0.000 A 
BRANCH   7  14
ATOM     13  C   UNL     1       1.975   2.022  19.198  0.00  0.00    +0.000 C 
ATOM     14  S   UNL     1       1.251   3.589  18.648  0.00  0.00    +0.000 S 
ENDBRANCH   7  14
ENDBRANCH   6  10
ENDBRANCH   1   6
BRANCH   4  15
ATOM     15  C   UNL     1       8.894   9.317  18.660  0.00  0.00    +0.000 C 
BRANCH  15  16
ATOM     16  C   UNL     1       8.508  10.577  17.892  0.00  0.00    +0.000 C 
BRANCH  16  17
ATOM     17  C   UNL     1       9.489  11.679  18.095  0.00  0.00    +0.000 A 
ATOM     18  C   UNL     1      10.836  11.712  17.798  0.00  0.00    +0.000 A 
ATOM     19  N   UNL     1      11.258  12.960  18.173  0.00  0.00    +0.000 N 
ATOM     20  C   UNL     1      10.176  13.622  18.675  0.00  0.00    +0.000 A 
ATOM     21  N   UNL     1       9.096  12.876  18.644  0.00  0.00    +0.000 NA
ATOM     22  H   UNL     1      12.195  13.332  18.091  0.00  0.00    +0.000 HD
ENDBRANCH  16  17
ENDBRANCH  15  16
ENDBRANCH   4  15
TORSDOF 6
ENDMDL
MODEL 6
REMARK VINA RESULT:      -6.9      1.100      1.601
REMARK  Name = 
REMARK  7 active torsions:
REMARK  status: ('A' for Active; 'I' for Inactive)
REMARK    1  A    between atoms: C_1  and  S_2
REMARK    2  A    between atoms: S_2  and  C_3
REMARK    3  A    between atoms: C_6  and  C_7
REMARK    4  A    between atoms: C_7  and  C_8
REMARK    5  A    between atoms: C_11  and  C_12
REMARK    6  A    between atoms: C_12  and  C_13
REMARK    7  A    between atoms: C_13  and  C_14
REMARK                            x       y       z     vdW  Elec       q    Type
REMARK                         _______ _______ _______ _____ _____    ______ ____
ROOT
ATOM      1  C   UNL     1       6.974   6.700  17.286  0.00  0.00    +0.000 A 
ATOM      2  N   UNL     1       7.616   6.022  18.250  0.00  0.00    +0.000 NA
ATOM      3  O   UNL     1       8.367   7.008  18.892  0.00  0.00    +0.000 OA
ATOM      4  C   UNL     1       8.116   8.180  18.237  0.00  0.00    +0.000 A 
ATOM      5  N   UNL     1       7.266   8.046  17.242  0.00  0.00    +0.000 NA
ENDROOT
BRANCH   1   6
ATOM      6  C   UNL     1       6.197   6.025  16.218  0.00  0.00    +0.000 C 
BRANCH   6  10
ATOM      7  C   UNL     1       2.770   4.016  17.932  0.00  0.00    +0.000 A 
ATOM      8  C   UNL     1       2.899   5.403  18.029  0.00  0.00    +0.000 A 
ATOM      9  C   UNL     1       4.020   6.045  17.497  0.00  0.00    +0.000 A 
ATOM     10  C   UNL     1       5.029   5.311  16.859  0.00  0.00    +0.000 A 
ATOM     11  C   UNL     1       4.905   3.916  16.786  0.00  0.00    +0.000 A 
ATOM     12  C   UNL     1       3.782   3.274  17.321  0.00  0.00    +0.000 A 
BRANCH   7  14
ATOM     13  C   UNL     1       1.186   4.115  20.150  0.00  0.00    +0.000 C 
ATOM     14  S   UNL     1       1.327   3.204  18.590  0.00  0.00    +0.000 S 
ENDBRANCH   7  14
ENDBRANCH   6  10
ENDBRANCH   1   6
BRANCH   4  15
ATOM     15  C   UNL     1       8.896   9.364  18.670  0.00  0.00    +0.000 C 
BRANCH  15  16
ATOM     16  C   UNL     1       8.490  10.623  17.911  0.00  0.00    +0.000 C 
BRANCH  16  17
ATOM     17  C   UNL     1       9.511  11.701  18.029  0.00  0.00    +0.000 A 
ATOM     18  C   UNL     1      10.857  11.666  17.722  0.00  0.00    +0.000 A 
ATOM     19  N   UNL     1      11.325  12.921  18.004  0.00  0.00    +0.000 N 
ATOM     20  C   UNL     1      10.272  13.655  18.465  0.00  0.00    +0.000 A 
ATOM     21  N   UNL     1       9.165  12.947  18.494  0.00  0.00    +0.000 NA
ATOM     22  H   UNL     1      12.273  13.252  17.891  0.00  0.00    +0.000 HD
ENDBRANCH  16  17
ENDBRANCH  15  16
ENDBRANCH   4  15
TORSDOF 6
ENDMDL
MODEL 7
REMARK VINA RESULT:      -6.9      1.235      1.558
REMARK  Name = 
REMARK  7 active torsions:
REMARK  status: ('A' for Active; 'I' for Inactive)
REMARK    1  A    between atoms: C_1  and  S_2
REMARK    2  A    between atoms: S_2  and  C_3
REMARK    3  A    between atoms: C_6  and  C_7
REMARK    4  A    between atoms: C_7  and  C_8
REMARK    5  A    between atoms: C_11  and  C_12
REMARK    6  A    between atoms: C_12  and  C_13
REMARK    7  A    between atoms: C_13  and  C_14
REMARK                            x       y       z     vdW  Elec       q    Type
REMARK                         _______ _______ _______ _____ _____    ______ ____
ROOT
ATOM      1  C   UNL     1       7.073   6.416  17.479  0.00  0.00    +0.000 A 
ATOM      2  N   UNL     1       7.905   6.164  18.501  0.00  0.00    +0.000 NA
ATOM      3  O   UNL     1       8.461   7.413  18.780  0.00  0.00    +0.000 OA
ATOM      4  C   UNL     1       7.920   8.290  17.883  0.00  0.00    +0.000 A 
ATOM      5  N   UNL     1       7.062   7.728  17.061  0.00  0.00    +0.000 NA
ENDROOT
BRANCH   1   6
ATOM      6  C   UNL     1       6.398   5.337  16.715  0.00  0.00    +0.000 C 
BRANCH   6  10
ATOM      7  C   UNL     1       2.798   4.235  18.847  0.00  0.00    +0.000 A 
ATOM      8  C   UNL     1       3.618   5.258  19.325  0.00  0.00    +0.000 A 
ATOM      9  C   UNL     1       4.793   5.595  18.647  0.00  0.00    +0.000 A 
ATOM     10  C   UNL     1       5.167   4.912  17.482  0.00  0.00    +0.000 A 
ATOM     11  C   UNL     1       4.351   3.868  17.021  0.00  0.00    +0.000 A 
ATOM     12  C   UNL     1       3.175   3.532  17.702  0.00  0.00    +0.000 A 
BRANCH   7  14
ATOM     13  C   UNL     1       0.832   2.346  18.759  0.00  0.00    +0.000 C 
ATOM     14  S   UNL     1       1.287   3.826  19.700  0.00  0.00    +0.000 S 
ENDBRANCH   7  14
ENDBRANCH   6  10
ENDBRANCH   1   6
BRANCH   4  15
ATOM     15  C   UNL     1       8.449   9.675  17.907  0.00  0.00    +0.000 C 
BRANCH  15  16
ATOM     16  C   UNL     1       9.224   9.966  19.189  0.00  0.00    +0.000 C 
BRANCH  16  17
ATOM     17  C   UNL     1       9.906  11.290  19.142  0.00  0.00    +0.000 A 
ATOM     18  C   UNL     1      11.224  11.582  18.859  0.00  0.00    +0.000 A 
ATOM     19  N   UNL     1      11.318  12.945  18.940  0.00  0.00    +0.000 N 
ATOM     20  C   UNL     1      10.082  13.421  19.265  0.00  0.00    +0.000 A 
ATOM     21  N   UNL     1       9.209  12.447  19.396  0.00  0.00    +0.000 NA
ATOM     22  H   UNL     1      12.146  13.505  18.785  0.00  0.00    +0.000 HD
ENDBRANCH  16  17
ENDBRANCH  15  16
ENDBRANCH   4  15
TORSDOF 6
ENDMDL
MODEL 8
REMARK VINA RESULT:      -6.8      1.345      1.541
REMARK  Name = 
REMARK  7 active torsions:
REMARK  status: ('A' for Active; 'I' for Inactive)
REMARK    1  A    between atoms: C_1  and  S_2
REMARK    2  A    between atoms: S_2  and  C_3
REMARK    3  A    between atoms: C_6  and  C_7
REMARK    4  A    between atoms: C_7  and  C_8
REMARK    5  A    between atoms: C_11  and  C_12
REMARK    6  A    between atoms: C_12  and  C_13
REMARK    7  A    between atoms: C_13  and  C_14
REMARK                            x       y       z     vdW  Elec       q    Type
REMARK                         _______ _______ _______ _____ _____    ______ ____
ROOT
ATOM      1  C   UNL     1       6.462   6.716  17.217  0.00  0.00    +0.000 A 
ATOM      2  N   UNL     1       7.145   5.949  18.081  0.00  0.00    +0.000 NA
ATOM      3  O   UNL     1       8.098   6.824  18.604  0.00  0.00    +0.000 OA
ATOM      4  C   UNL     1       7.906   8.027  17.986  0.00  0.00    +0.000 A 
ATOM      5  N   UNL     1       6.913   8.014  17.124  0.00  0.00    +0.000 NA
ENDROOT
BRANCH   1   6
ATOM      6  C   UNL     1       5.460   6.158  16.274  0.00  0.00    +0.000 C 
BRANCH   6  10
ATOM      7  C   UNL     1       2.407   4.272  18.691  0.00  0.00    +0.000 A 
ATOM      8  C   UNL     1       3.222   3.506  17.856  0.00  0.00    +0.000 A 
ATOM      9  C   UNL     1       4.191   4.121  17.059  0.00  0.00    +0.000 A 
ATOM     10  C   UNL     1       4.358   5.512  17.081  0.00  0.00    +0.000 A 
ATOM     11  C   UNL     1       3.519   6.279  17.904  0.00  0.00    +0.000 A 
ATOM     12  C   UNL     1       2.548   5.661  18.702  0.00  0.00    +0.000 A 
BRANCH   7  14
ATOM     13  C   UNL     1       1.996   3.723  21.331  0.00  0.00    +0.000 C 
ATOM     14  S   UNL     1       1.191   3.481  19.726  0.00  0.00    +0.000 S 
ENDBRANCH   7  14
ENDBRANCH   6  10
ENDBRANCH   1   6
BRANCH   4  15
ATOM     15  C   UNL     1       8.884   9.097  18.296  0.00  0.00    +0.000 C 
BRANCH  15  16
ATOM     16  C   UNL     1       8.209  10.454  18.466  0.00  0.00    +0.000 C 
BRANCH  16  17
ATOM     17  C   UNL     1       9.068  11.571  17.982  0.00  0.00    +0.000 A 
ATOM     18  C   UNL     1       8.701  12.833  17.559  0.00  0.00    +0.000 A 
ATOM     19  N   UNL     1       9.874  13.460  17.236  0.00  0.00    +0.000 N 
ATOM     20  C   UNL     1      10.887  12.576  17.466  0.00  0.00    +0.000 A 
ATOM     21  N   UNL     1      10.433  11.427  17.914  0.00  0.00    +0.000 NA
ATOM     22  H   UNL     1       9.980  14.406  16.894  0.00  0.00    +0.000 HD
ENDBRANCH  16  17
ENDBRANCH  15  16
ENDBRANCH   4  15
TORSDOF 6
ENDMDL
MODEL 9
REMARK VINA RESULT:      -6.8      1.109      1.631
REMARK  Name = 
REMARK  7 active torsions:
REMARK  status: ('A' for Active; 'I' for Inactive)
REMARK    1  A    between atoms: C_1  and  S_2
REMARK    2  A    between atoms: S_2  and  C_3
REMARK    3  A    between atoms: C_6  and  C_7
REMARK    4  A    between atoms: C_7  and  C_8
REMARK    5  A    between atoms: C_11  and  C_12
REMARK    6  A    between atoms: C_12  and  C_13
REMARK    7  A    between atoms: C_13  and  C_14
REMARK                            x       y       z     vdW  Elec       q    Type
REMARK                         _______ _______ _______ _____ _____    ______ ____
ROOT
ATOM      1  C   UNL     1       6.720   7.017  17.386  0.00  0.00    +0.000 A 
ATOM      2  N   UNL     1       7.535   6.517  18.327  0.00  0.00    +0.000 NA
ATOM      3  O   UNL     1       8.326   7.611  18.683  0.00  0.00    +0.000 OA
ATOM      4  C   UNL     1       7.919   8.657  17.904  0.00  0.00    +0.000 A 
ATOM      5  N   UNL     1       6.935   8.346  17.090  0.00  0.00    +0.000 NA
ENDROOT
BRANCH   1   6
ATOM      6  C   UNL     1       5.822   6.162  16.571  0.00  0.00    +0.000 C 
BRANCH   6  10
ATOM      7  C   UNL     1       3.064   4.036  19.140  0.00  0.00    +0.000 A 
ATOM      8  C   UNL     1       2.966   5.420  18.987  0.00  0.00    +0.000 A 
ATOM      9  C   UNL     1       3.874   6.106  18.176  0.00  0.00    +0.000 A 
ATOM     10  C   UNL     1       4.896   5.420  17.507  0.00  0.00    +0.000 A 
ATOM     11  C   UNL     1       5.005   4.033  17.684  0.00  0.00    +0.000 A 
ATOM     12  C   UNL     1       4.095   3.347  18.498  0.00  0.00    +0.000 A 
BRANCH   7  14
ATOM     13  C   UNL     1       0.840   2.486  18.840  0.00  0.00    +0.000 C 
ATOM     14  S   UNL     1       1.889   3.161  20.155  0.00  0.00    +0.000 S 
ENDBRANCH   7  14
ENDBRANCH   6  10
ENDBRANCH   1   6
BRANCH   4  15
ATOM     15  C   UNL     1       8.698   9.913  18.021  0.00  0.00    +0.000 C 
BRANCH  15  16
ATOM     16  C   UNL     1       9.348  10.054  19.394  0.00  0.00    +0.000 C 
BRANCH  16  17
ATOM     17  C   UNL     1      10.343  11.163  19.431  0.00  0.00    +0.000 A 
ATOM     18  C   UNL     1      10.692  11.986  20.482  0.00  0.00    +0.000 A 
ATOM     19  N   UNL     1      11.658  12.819  19.983  0.00  0.00    +0.000 N 
ATOM     20  C   UNL     1      11.853  12.480  18.676  0.00  0.00    +0.000 A 
ATOM     21  N   UNL     1      11.073  11.487  18.313  0.00  0.00    +0.000 NA
ATOM     22  H   UNL     1      12.145  13.549  20.485  0.00  0.00    +0.000 HD
ENDBRANCH  16  17
ENDBRANCH  15  16
ENDBRANCH   4  15
TORSDOF 6
ENDMDL
