MODEL 1
REMARK VINA RESULT:      -7.9      0.000      0.000
REMARK  Name = 
REMARK  10 active torsions:
REMARK  status: ('A' for Active; 'I' for Inactive)
REMARK    1  A    between atoms: C_1  and  O_2
REMARK    2  A    between atoms: O_2  and  C_3
REMARK    3  A    between atoms: C_3  and  C_5
REMARK    4  A    between atoms: C_8  and  C_9
REMARK    5  A    between atoms: C_10  and  C_11
REMARK    6  A    between atoms: C_11  and  O_13
REMARK    7  A    between atoms: O_13  and  C_14
REMARK    8  A    between atoms: C_14  and  C_15
REMARK    9  A    between atoms: N_17  and  C_18
REMARK   10  A    between atoms: C_22  and  C_23
REMARK                            x       y       z     vdW  Elec       q    Type
REMARK                         _______ _______ _______ _____ _____    ______ ____
ROOT
ATOM      1  O   UNL     1       7.817   5.755  17.682  0.00  0.00    +0.000 OA
ENDROOT
BRANCH   1   2
ATOM      2  C   UNL     1       7.357   6.985  17.329  0.00  0.00    +0.000 C 
ATOM      3  O   UNL     1       6.441   7.226  16.571  0.00  0.00    +0.000 OA
BRANCH   2   5
ATOM      4  C   UNL     1       8.074   9.304  17.793  0.00  0.00    +0.000 C 
ATOM      5  C   UNL     1       8.152   7.995  18.085  0.00  0.00    +0.000 C 
BRANCH   4   9
ATOM      6  C   UNL     1      10.276  12.511  19.668  0.00  0.00    +0.000 A 
ATOM      7  C   UNL     1       9.731  12.652  18.388  0.00  0.00    +0.000 A 
ATOM      8  C   UNL     1       9.013  11.600  17.799  0.00  0.00    +0.000 A 
ATOM      9  C   UNL     1       8.838  10.378  18.467  0.00  0.00    +0.000 A 
ATOM     10  C   UNL     1       9.369  10.250  19.757  0.00  0.00    +0.000 A 
ATOM     11  C   UNL     1      10.090  11.303  20.350  0.00  0.00    +0.000 A 
BRANCH   6  12
ATOM     12  C   UNL     1      11.017  13.661  20.260  0.00  0.00    +0.000 C 
ATOM     13  O   UNL     1      12.015  14.152  19.758  0.00  0.00    +0.000 OA
BRANCH  12  15
ATOM     14  C   UNL     1       9.593  15.222  21.267  0.00  0.00    +0.000 C 
ATOM     15  O   UNL     1      10.428  14.070  21.412  0.00  0.00    +0.000 OA
ENDBRANCH  12  15
ENDBRANCH   6  12
ENDBRANCH   4   9
ENDBRANCH   2   5
ENDBRANCH   1   2
BRANCH   1  16
ATOM     16  C   UNL     1       7.068   4.657  17.137  0.00  0.00    +0.000 C 
BRANCH  16  17
ATOM     17  C   UNL     1       5.811   4.422  17.980  0.00  0.00    +0.000 C 
ATOM     18  O   UNL     1       5.878   4.072  19.163  0.00  0.00    +0.000 OA
ATOM     19  N   UNL     1       4.621   4.566  17.272  0.00  0.00    +0.000 N 
ATOM     20  H   UNL     1       4.642   4.352  16.284  0.00  0.00    +0.000 HD
BRANCH  19  21
ATOM     21  C   UNL     1       3.434   4.314  17.933  0.00  0.00    +0.000 A 
ATOM     22  S   UNL     1       2.812   2.751  17.707  0.00  0.00    +0.000 S 
ATOM     23  C   UNL     1       1.585   3.019  18.870  0.00  0.00    +0.000 A 
ATOM     24  C   UNL     1       1.591   4.321  19.327  0.00  0.00    +0.000 A 
ATOM     25  C   UNL     1       2.646   5.112  18.745  0.00  0.00    +0.000 A 
BRANCH  25  26
ATOM     26  C   UNL     1       2.834   6.553  18.876  0.00  0.00    +0.000 C 
ATOM     27  N   UNL     1       2.360   7.128  20.017  0.00  0.00    +0.000 N 
ATOM     28  O   UNL     1       3.332   7.251  17.996  0.00  0.00    +0.000 OA
ATOM     29  H   UNL     1       2.001   6.602  20.799  0.00  0.00    +0.000 HD
ATOM     30  H   UNL     1       2.532   8.117  20.128  0.00  0.00    +0.000 HD
ENDBRANCH  25  26
ENDBRANCH  19  21
ENDBRANCH  16  17
ENDBRANCH   1  16
TORSDOF 9
ENDMDL
MODEL 2
REMARK VINA RESULT:      -7.6      1.597      2.145
REMARK  Name = 
REMARK  10 active torsions:
REMARK  status: ('A' for Active; 'I' for Inactive)
REMARK    1  A    between atoms: C_1  and  O_2
REMARK    2  A    between atoms: O_2  and  C_3
REMARK    3  A    between atoms: C_3  and  C_5
REMARK    4  A    between atoms: C_8  and  C_9
REMARK    5  A    between atoms: C_10  and  C_11
REMARK    6  A    between atoms: C_11  and  O_13
REMARK    7  A    between atoms: O_13  and  C_14
REMARK    8  A    between atoms: C_14  and  C_15
REMARK    9  A    between atoms: N_17  and  C_18
REMARK   10  A    between atoms: C_22  and  C_23
REMARK                            x       y       z     vdW  Elec       q    Type
REMARK                         _______ _______ _______ _____ _____    ______ ____
ROOT
ATOM      1  O   UNL     1       6.708   6.174  18.382  0.00  0.00    +0.000 OA
ENDROOT
BRANCH   1   2
ATOM      2  C   UNL     1       7.461   6.851  17.474  0.00  0.00    +0.000 C 
ATOM      3  O   UNL     1       7.525   6.636  16.282  0.00  0.00    +0.000 OA
BRANCH   2   5
ATOM      4  C   UNL     1       8.114   9.218  17.762  0.00  0.00    +0.000 C 
ATOM      5  C   UNL     1       8.161   7.949  18.201  0.00  0.00    +0.000 C 
BRANCH   4   9
ATOM      6  C   UNL     1      10.046  12.650  19.532  0.00  0.00    +0.000 A 
ATOM      7  C   UNL     1       9.334  12.752  18.332  0.00  0.00    +0.000 A 
ATOM      8  C   UNL     1       8.708  11.626  17.777  0.00  0.00    +0.000 A 
ATOM      9  C   UNL     1       8.792  10.369  18.397  0.00  0.00    +0.000 A 
ATOM     10  C   UNL     1       9.489  10.278  19.609  0.00  0.00    +0.000 A 
ATOM     11  C   UNL     1      10.118  11.405  20.168  0.00  0.00    +0.000 A 
BRANCH   6  12
ATOM     12  C   UNL     1      10.681  13.877  20.092  0.00  0.00    +0.000 C 
ATOM     13  O   UNL     1      11.859  14.156  19.942  0.00  0.00    +0.000 OA
BRANCH  12  15
ATOM     14  C   UNL     1       9.825  16.018  20.492  0.00  0.00    +0.000 C 
ATOM     15  O   UNL     1       9.773  14.618  20.777  0.00  0.00    +0.000 OA
ENDBRANCH  12  15
ENDBRANCH   6  12
ENDBRANCH   4   9
ENDBRANCH   2   5
ENDBRANCH   1   2
BRANCH   1  16
ATOM     16  C   UNL     1       6.518   4.783  18.082  0.00  0.00    +0.000 C 
BRANCH  16  17
ATOM     17  C   UNL     1       5.312   4.248  18.862  0.00  0.00    +0.000 C 
ATOM     18  O   UNL     1       5.423   3.323  19.675  0.00  0.00    +0.000 OA
ATOM     19  N   UNL     1       4.104   4.843  18.513  0.00  0.00    +0.000 N 
ATOM     20  H   UNL     1       4.012   5.180  17.563  0.00  0.00    +0.000 HD
BRANCH  19  21
ATOM     21  C   UNL     1       2.950   4.384  19.119  0.00  0.00    +0.000 A 
ATOM     22  S   UNL     1       2.413   5.321  20.429  0.00  0.00    +0.000 S 
ATOM     23  C   UNL     1       0.968   4.412  20.548  0.00  0.00    +0.000 A 
ATOM     24  C   UNL     1       0.963   3.344  19.675  0.00  0.00    +0.000 A 
ATOM     25  C   UNL     1       2.150   3.284  18.860  0.00  0.00    +0.000 A 
BRANCH  25  26
ATOM     26  C   UNL     1       2.544   2.202  17.964  0.00  0.00    +0.000 C 
ATOM     27  N   UNL     1       3.325   1.221  18.500  0.00  0.00    +0.000 N 
ATOM     28  O   UNL     1       2.259   2.177  16.769  0.00  0.00    +0.000 OA
ATOM     29  H   UNL     1       3.538   1.154  19.483  0.00  0.00    +0.000 HD
ATOM     30  H   UNL     1       3.559   0.449  17.892  0.00  0.00    +0.000 HD
ENDBRANCH  25  26
ENDBRANCH  19  21
ENDBRANCH  16  17
ENDBRANCH   1  16
TORSDOF 9
ENDMDL
MODEL 3
REMARK VINA RESULT:      -7.6      1.725      2.285
REMARK  Name = 
REMARK  10 active torsions:
REMARK  status: ('A' for Active; 'I' for Inactive)
REMARK    1  A    between atoms: C_1  and  O_2
REMARK    2  A    between atoms: O_2  and  C_3
REMARK    3  A    between atoms: C_3  and  C_5
REMARK    4  A    between atoms: C_8  and  C_9
REMARK    5  A    between atoms: C_10  and  C_11
REMARK    6  A    between atoms: C_11  and  O_13
REMARK    7  A    between atoms: O_13  and  C_14
REMARK    8  A    between atoms: C_14  and  C_15
REMARK    9  A    between atoms: N_17  and  C_18
REMARK   10  A    between atoms: C_22  and  C_23
REMARK                            x       y       z     vdW  Elec       q    Type
REMARK                         _______ _______ _______ _____ _____    ______ ____
ROOT
ATOM      1  O   UNL     1       7.738   6.389  18.655  0.00  0.00    +0.000 OA
ENDROOT
BRANCH   1   2
ATOM      2  C   UNL     1       7.659   7.007  17.446  0.00  0.00    +0.000 C 
ATOM      3  O   UNL     1       7.352   6.495  16.390  0.00  0.00    +0.000 OA
BRANCH   2   5
ATOM      4  C   UNL     1       8.735   8.855  18.686  0.00  0.00    +0.000 C 
ATOM      5  C   UNL     1       7.968   8.449  17.659  0.00  0.00    +0.000 C 
BRANCH   4   9
ATOM      6  C   UNL     1       9.707  12.987  19.475  0.00  0.00    +0.000 A 
ATOM      7  C   UNL     1       9.342  12.556  18.196  0.00  0.00    +0.000 A 
ATOM      8  C   UNL     1       9.024  11.209  17.962  0.00  0.00    +0.000 A 
ATOM      9  C   UNL     1       9.078  10.260  18.995  0.00  0.00    +0.000 A 
ATOM     10  C   UNL     1       9.423  10.703  20.278  0.00  0.00    +0.000 A 
ATOM     11  C   UNL     1       9.744  12.052  20.516  0.00  0.00    +0.000 A 
BRANCH   6  12
ATOM     12  C   UNL     1      10.021  14.430  19.680  0.00  0.00    +0.000 C 
ATOM     13  O   UNL     1       9.265  15.336  19.370  0.00  0.00    +0.000 OA
BRANCH  12  15
ATOM     14  C   UNL     1      12.333  14.492  19.326  0.00  0.00    +0.000 C 
ATOM     15  O   UNL     1      11.244  14.579  20.248  0.00  0.00    +0.000 OA
ENDBRANCH  12  15
ENDBRANCH   6  12
ENDBRANCH   4   9
ENDBRANCH   2   5
ENDBRANCH   1   2
BRANCH   1  16
ATOM     16  C   UNL     1       7.328   5.012  18.651  0.00  0.00    +0.000 C 
BRANCH  16  17
ATOM     17  C   UNL     1       5.819   4.923  18.895  0.00  0.00    +0.000 C 
ATOM     18  O   UNL     1       5.235   5.711  19.648  0.00  0.00    +0.000 OA
ATOM     19  N   UNL     1       5.206   3.848  18.259  0.00  0.00    +0.000 N 
ATOM     20  H   UNL     1       5.767   3.020  18.108  0.00  0.00    +0.000 HD
BRANCH  19  21
ATOM     21  C   UNL     1       3.854   3.649  18.469  0.00  0.00    +0.000 A 
ATOM     22  S   UNL     1       2.837   4.484  17.397  0.00  0.00    +0.000 S 
ATOM     23  C   UNL     1       1.454   3.685  18.012  0.00  0.00    +0.000 A 
ATOM     24  C   UNL     1       1.764   2.887  19.093  0.00  0.00    +0.000 A 
ATOM     25  C   UNL     1       3.171   2.894  19.407  0.00  0.00    +0.000 A 
BRANCH  25  26
ATOM     26  C   UNL     1       3.811   2.303  20.578  0.00  0.00    +0.000 C 
ATOM     27  N   UNL     1       3.076   2.279  21.726  0.00  0.00    +0.000 N 
ATOM     28  O   UNL     1       4.970   1.897  20.581  0.00  0.00    +0.000 OA
ATOM     29  H   UNL     1       2.102   2.537  21.770  0.00  0.00    +0.000 HD
ATOM     30  H   UNL     1       3.501   1.828  22.524  0.00  0.00    +0.000 HD
ENDBRANCH  25  26
ENDBRANCH  19  21
ENDBRANCH  16  17
ENDBRANCH   1  16
TORSDOF 9
ENDMDL
MODEL 4
REMARK VINA RESULT:      -7.5      1.805      2.328
REMARK  Name = 
REMARK  10 active torsions:
REMARK  status: ('A' for Active; 'I' for Inactive)
REMARK    1  A    between atoms: C_1  and  O_2
REMARK    2  A    between atoms: O_2  and  C_3
REMARK    3  A    between atoms: C_3  and  C_5
REMARK    4  A    between atoms: C_8  and  C_9
REMARK    5  A    between atoms: C_10  and  C_11
REMARK    6  A    between atoms: C_11  and  O_13
REMARK    7  A    between atoms: O_13  and  C_14
REMARK    8  A    between atoms: C_14  and  C_15
REMARK    9  A    between atoms: N_17  and  C_18
REMARK   10  A    between atoms: C_22  and  C_23
REMARK                            x       y       z     vdW  Elec       q    Type
REMARK                         _______ _______ _______ _____ _____    ______ ____
ROOT
ATOM      1  O   UNL     1       7.521   6.832  18.749  0.00  0.00    +0.000 OA
ENDROOT
BRANCH   1   2
ATOM      2  C   UNL     1       7.719   7.424  17.541  0.00  0.00    +0.000 C 
ATOM      3  O   UNL     1       7.603   6.903  16.451  0.00  0.00    +0.000 OA
BRANCH   2   5
ATOM      4  C   UNL     1       8.895   9.211  18.779  0.00  0.00    +0.000 C 
ATOM      5  C   UNL     1       8.055   8.854  17.791  0.00  0.00    +0.000 C 
BRANCH   4   9
ATOM      6  C   UNL     1       9.973  13.298  19.664  0.00  0.00    +0.000 A 
ATOM      7  C   UNL     1       9.687  12.886  18.359  0.00  0.00    +0.000 A 
ATOM      8  C   UNL     1       9.332  11.555  18.093  0.00  0.00    +0.000 A 
ATOM      9  C   UNL     1       9.271  10.600  19.121  0.00  0.00    +0.000 A 
ATOM     10  C   UNL     1       9.539  11.024  20.429  0.00  0.00    +0.000 A 
ATOM     11  C   UNL     1       9.895  12.358  20.699  0.00  0.00    +0.000 A 
BRANCH   6  12
ATOM     12  C   UNL     1      10.330  14.726  19.901  0.00  0.00    +0.000 C 
ATOM     13  O   UNL     1      11.323  15.081  20.514  0.00  0.00    +0.000 OA
BRANCH  12  15
ATOM     14  C   UNL     1       9.301  16.826  19.978  0.00  0.00    +0.000 C 
ATOM     15  O   UNL     1       9.406  15.550  19.343  0.00  0.00    +0.000 OA
ENDBRANCH  12  15
ENDBRANCH   6  12
ENDBRANCH   4   9
ENDBRANCH   2   5
ENDBRANCH   1   2
BRANCH   1  16
ATOM     16  C   UNL     1       7.631   5.401  18.739  0.00  0.00    +0.000 C 
BRANCH  16  17
ATOM     17  C   UNL     1       6.270   4.782  18.405  0.00  0.00    +0.000 C 
ATOM     18  O   UNL     1       6.110   4.061  17.414  0.00  0.00    +0.000 OA
ATOM     19  N   UNL     1       5.248   5.167  19.267  0.00  0.00    +0.000 N 
ATOM     20  H   UNL     1       5.322   6.082  19.693  0.00  0.00    +0.000 HD
BRANCH  19  21
ATOM     21  C   UNL     1       3.969   4.708  19.010  0.00  0.00    +0.000 A 
ATOM     22  S   UNL     1       2.988   5.785  18.137  0.00  0.00    +0.000 S 
ATOM     23  C   UNL     1       1.753   4.610  17.985  0.00  0.00    +0.000 A 
ATOM     24  C   UNL     1       2.049   3.463  18.691  0.00  0.00    +0.000 A 
ATOM     25  C   UNL     1       3.333   3.525  19.344  0.00  0.00    +0.000 A 
BRANCH  25  26
ATOM     26  C   UNL     1       3.876   2.567  20.301  0.00  0.00    +0.000 C 
ATOM     27  N   UNL     1       4.896   1.777  19.859  0.00  0.00    +0.000 N 
ATOM     28  O   UNL     1       3.421   2.409  21.431  0.00  0.00    +0.000 OA
ATOM     29  H   UNL     1       5.352   1.902  18.969  0.00  0.00    +0.000 HD
ATOM     30  H   UNL     1       5.303   1.147  20.535  0.00  0.00    +0.000 HD
ENDBRANCH  25  26
ENDBRANCH  19  21
ENDBRANCH  16  17
ENDBRANCH   1  16
TORSDOF 9
ENDMDL
MODEL 5
REMARK VINA RESULT:      -7.3      1.702      2.531
REMARK  Name = 
REMARK  10 active torsions:
REMARK  status: ('A' for Active; 'I' for Inactive)
REMARK    1  A    between atoms: C_1  and  O_2
REMARK    2  A    between atoms: O_2  and  C_3
REMARK    3  A    between atoms: C_3  and  C_5
REMARK    4  A    between atoms: C_8  and  C_9
REMARK    5  A    between atoms: C_10  and  C_11
REMARK    6  A    between atoms: C_11  and  O_13
REMARK    7  A    between atoms: O_13  and  C_14
REMARK    8  A    between atoms: C_14  and  C_15
REMARK    9  A    between atoms: N_17  and  C_18
REMARK   10  A    between atoms: C_22  and  C_23
REMARK                            x       y       z     vdW  Elec       q    Type
REMARK                         _______ _______ _______ _____ _____    ______ ____
ROOT
ATOM      1  O   UNL     1       7.345   6.671  18.687  0.00  0.00    +0.000 OA
ENDROOT
BRANCH   1   2
ATOM      2  C   UNL     1       7.887   7.514  17.767  0.00  0.00    +0.000 C 
ATOM      3  O   UNL     1       7.936   7.343  16.567  0.00  0.00    +0.000 OA
BRANCH   2   5
ATOM      4  C   UNL     1       8.731   9.836  17.837  0.00  0.00    +0.000 C 
ATOM      5  C   UNL     1       8.369   8.722  18.495  0.00  0.00    +0.000 C 
BRANCH   4   9
ATOM      6  C   UNL     1      10.297  13.381  19.741  0.00  0.00    +0.000 A 
ATOM      7  C   UNL     1      10.650  12.101  20.181  0.00  0.00    +0.000 A 
ATOM      8  C   UNL     1      10.135  10.962  19.544  0.00  0.00    +0.000 A 
ATOM      9  C   UNL     1       9.243  11.074  18.465  0.00  0.00    +0.000 A 
ATOM     10  C   UNL     1       8.911  12.359  18.016  0.00  0.00    +0.000 A 
ATOM     11  C   UNL     1       9.426  13.503  18.653  0.00  0.00    +0.000 A 
BRANCH   6  12
ATOM     12  C   UNL     1      10.882  14.562  20.438  0.00  0.00    +0.000 C 
ATOM     13  O   UNL     1      11.763  15.259  19.962  0.00  0.00    +0.000 OA
BRANCH  12  15
ATOM     14  C   UNL     1      10.731  15.915  22.341  0.00  0.00    +0.000 C 
ATOM     15  O   UNL     1      10.300  14.740  21.652  0.00  0.00    +0.000 OA
ENDBRANCH  12  15
ENDBRANCH   6  12
ENDBRANCH   4   9
ENDBRANCH   2   5
ENDBRANCH   1   2
BRANCH   1  16
ATOM     16  C   UNL     1       7.550   5.277  18.414  0.00  0.00    +0.000 C 
BRANCH  16  17
ATOM     17  C   UNL     1       6.223   4.631  18.002  0.00  0.00    +0.000 C 
ATOM     18  O   UNL     1       6.094   4.046  16.922  0.00  0.00    +0.000 OA
ATOM     19  N   UNL     1       5.190   4.834  18.912  0.00  0.00    +0.000 N 
ATOM     20  H   UNL     1       5.216   5.684  19.460  0.00  0.00    +0.000 HD
BRANCH  19  21
ATOM     21  C   UNL     1       3.937   4.341  18.598  0.00  0.00    +0.000 A 
ATOM     22  S   UNL     1       2.797   5.520  18.160  0.00  0.00    +0.000 S 
ATOM     23  C   UNL     1       1.656   4.323  17.721  0.00  0.00    +0.000 A 
ATOM     24  C   UNL     1       2.108   3.054  18.019  0.00  0.00    +0.000 A 
ATOM     25  C   UNL     1       3.434   3.052  18.585  0.00  0.00    +0.000 A 
BRANCH  25  26
ATOM     26  C   UNL     1       4.137   1.912  19.164  0.00  0.00    +0.000 C 
ATOM     27  N   UNL     1       3.921   0.701  18.577  0.00  0.00    +0.000 N 
ATOM     28  O   UNL     1       4.843   1.993  20.166  0.00  0.00    +0.000 OA
ATOM     29  H   UNL     1       3.406   0.581  17.718  0.00  0.00    +0.000 HD
ATOM     30  H   UNL     1       4.444  -0.079  18.949  0.00  0.00    +0.000 HD
ENDBRANCH  25  26
ENDBRANCH  19  21
ENDBRANCH  16  17
ENDBRANCH   1  16
TORSDOF 9
ENDMDL
MODEL 6
REMARK VINA RESULT:      -7.3      1.394      1.707
REMARK  Name = 
REMARK  10 active torsions:
REMARK  status: ('A' for Active; 'I' for Inactive)
REMARK    1  A    between atoms: C_1  and  O_2
REMARK    2  A    between atoms: O_2  and  C_3
REMARK    3  A    between atoms: C_3  and  C_5
REMARK    4  A    between atoms: C_8  and  C_9
REMARK    5  A    between atoms: C_10  and  C_11
REMARK    6  A    between atoms: C_11  and  O_13
REMARK    7  A    between atoms: O_13  and  C_14
REMARK    8  A    between atoms: C_14  and  C_15
REMARK    9  A    between atoms: N_17  and  C_18
REMARK   10  A    between atoms: C_22  and  C_23
REMARK                            x       y       z     vdW  Elec       q    Type
REMARK                         _______ _______ _______ _____ _____    ______ ____
ROOT
ATOM      1  O   UNL     1       6.690   6.557  18.333  0.00  0.00    +0.000 OA
ENDROOT
BRANCH   1   2
ATOM      2  C   UNL     1       7.361   7.006  17.238  0.00  0.00    +0.000 C 
ATOM      3  O   UNL     1       7.607   6.377  16.231  0.00  0.00    +0.000 OA
BRANCH   2   5
ATOM      4  C   UNL     1       8.581   8.800  18.423  0.00  0.00    +0.000 C 
ATOM      5  C   UNL     1       7.699   8.438  17.475  0.00  0.00    +0.000 C 
BRANCH   4   9
ATOM      6  C   UNL     1       9.750  12.820  19.478  0.00  0.00    +0.000 A 
ATOM      7  C   UNL     1       9.981  11.744  20.341  0.00  0.00    +0.000 A 
ATOM      8  C   UNL     1       9.599  10.444  19.976  0.00  0.00    +0.000 A 
ATOM      9  C   UNL     1       8.963  10.191  18.750  0.00  0.00    +0.000 A 
ATOM     10  C   UNL     1       8.754  11.270  17.882  0.00  0.00    +0.000 A 
ATOM     11  C   UNL     1       9.135  12.575  18.245  0.00  0.00    +0.000 A 
BRANCH   6  12
ATOM     12  C   UNL     1      10.188  14.181  19.901  0.00  0.00    +0.000 C 
ATOM     13  O   UNL     1      11.270  14.414  20.414  0.00  0.00    +0.000 OA
BRANCH  12  15
ATOM     14  C   UNL     1       8.288  15.291  20.700  0.00  0.00    +0.000 C 
ATOM     15  O   UNL     1       9.223  15.100  19.636  0.00  0.00    +0.000 OA
ENDBRANCH  12  15
ENDBRANCH   6  12
ENDBRANCH   4   9
ENDBRANCH   2   5
ENDBRANCH   1   2
BRANCH   1  16
ATOM     16  C   UNL     1       6.655   5.128  18.468  0.00  0.00    +0.000 C 
BRANCH  16  17
ATOM     17  C   UNL     1       5.229   4.622  18.227  0.00  0.00    +0.000 C 
ATOM     18  O   UNL     1       4.614   4.885  17.189  0.00  0.00    +0.000 OA
ATOM     19  N   UNL     1       4.690   3.921  19.302  0.00  0.00    +0.000 N 
ATOM     20  H   UNL     1       5.012   4.173  20.227  0.00  0.00    +0.000 HD
BRANCH  19  21
ATOM     21  C   UNL     1       3.385   3.477  19.203  0.00  0.00    +0.000 A 
ATOM     22  S   UNL     1       3.214   1.897  18.606  0.00  0.00    +0.000 S 
ATOM     23  C   UNL     1       1.533   1.906  18.930  0.00  0.00    +0.000 A 
ATOM     24  C   UNL     1       1.105   3.139  19.376  0.00  0.00    +0.000 A 
ATOM     25  C   UNL     1       2.180   4.093  19.494  0.00  0.00    +0.000 A 
BRANCH  25  26
ATOM     26  C   UNL     1       2.057   5.520  19.770  0.00  0.00    +0.000 C 
ATOM     27  N   UNL     1       2.408   6.368  18.762  0.00  0.00    +0.000 N 
ATOM     28  O   UNL     1       1.720   5.970  20.862  0.00  0.00    +0.000 OA
ATOM     29  H   UNL     1       2.630   6.061  17.827  0.00  0.00    +0.000 HD
ATOM     30  H   UNL     1       2.278   7.355  18.937  0.00  0.00    +0.000 HD
ENDBRANCH  25  26
ENDBRANCH  19  21
ENDBRANCH  16  17
ENDBRANCH   1  16
TORSDOF 9
ENDMDL
MODEL 7
REMARK VINA RESULT:      -7.3      0.576      1.088
REMARK  Name = 
REMARK  10 active torsions:
REMARK  status: ('A' for Active; 'I' for Inactive)
REMARK    1  A    between atoms: C_1  and  O_2
REMARK    2  A    between atoms: O_2  and  C_3
REMARK    3  A    between atoms: C_3  and  C_5
REMARK    4  A    between atoms: C_8  and  C_9
REMARK    5  A    between atoms: C_10  and  C_11
REMARK    6  A    between atoms: C_11  and  O_13
REMARK    7  A    between atoms: O_13  and  C_14
REMARK    8  A    between atoms: C_14  and  C_15
REMARK    9  A    between atoms: N_17  and  C_18
REMARK   10  A    between atoms: C_22  and  C_23
REMARK                            x       y       z     vdW  Elec       q    Type
REMARK                         _______ _______ _______ _____ _____    ______ ____
ROOT
ATOM      1  O   UNL     1       7.428   6.255  18.213  0.00  0.00    +0.000 OA
ENDROOT
BRANCH   1   2
ATOM      2  C   UNL     1       7.021   7.172  17.294  0.00  0.00    +0.000 C 
ATOM      3  O   UNL     1       6.457   6.944  16.245  0.00  0.00    +0.000 OA
BRANCH   2   5
ATOM      4  C   UNL     1       8.618   8.884  18.087  0.00  0.00    +0.000 C 
ATOM      5  C   UNL     1       7.349   8.523  17.832  0.00  0.00    +0.000 C 
BRANCH   4   9
ATOM      6  C   UNL     1       9.884  12.635  19.810  0.00  0.00    +0.000 A 
ATOM      7  C   UNL     1       9.867  11.456  20.563  0.00  0.00    +0.000 A 
ATOM      8  C   UNL     1       9.458  10.246  19.982  0.00  0.00    +0.000 A 
ATOM      9  C   UNL     1       9.041  10.188  18.642  0.00  0.00    +0.000 A 
ATOM     10  C   UNL     1       9.081  11.369  17.889  0.00  0.00    +0.000 A 
ATOM     11  C   UNL     1       9.490  12.583  18.469  0.00  0.00    +0.000 A 
BRANCH   6  12
ATOM     12  C   UNL     1      10.342  13.894  20.466  0.00  0.00    +0.000 C 
ATOM     13  O   UNL     1      11.081  14.704  19.931  0.00  0.00    +0.000 OA
BRANCH  12  15
ATOM     14  C   UNL     1       9.951  15.300  22.295  0.00  0.00    +0.000 C 
ATOM     15  O   UNL     1       9.824  13.999  21.717  0.00  0.00    +0.000 OA
ENDBRANCH  12  15
ENDBRANCH   6  12
ENDBRANCH   4   9
ENDBRANCH   2   5
ENDBRANCH   1   2
BRANCH   1  16
ATOM     16  C   UNL     1       7.130   4.893  17.871  0.00  0.00    +0.000 C 
BRANCH  16  17
ATOM     17  C   UNL     1       5.774   4.497  18.465  0.00  0.00    +0.000 C 
ATOM     18  O   UNL     1       5.683   3.964  19.576  0.00  0.00    +0.000 OA
ATOM     19  N   UNL     1       4.698   4.725  17.613  0.00  0.00    +0.000 N 
ATOM     20  H   UNL     1       4.875   4.671  16.619  0.00  0.00    +0.000 HD
BRANCH  19  21
ATOM     21  C   UNL     1       3.438   4.343  18.037  0.00  0.00    +0.000 A 
ATOM     22  S   UNL     1       2.968   2.785  17.555  0.00  0.00    +0.000 S 
ATOM     23  C   UNL     1       1.554   2.862  18.516  0.00  0.00    +0.000 A 
ATOM     24  C   UNL     1       1.398   4.104  19.095  0.00  0.00    +0.000 A 
ATOM     25  C   UNL     1       2.478   5.006  18.781  0.00  0.00    +0.000 A 
BRANCH  25  26
ATOM     26  C   UNL     1       2.545   6.432  19.084  0.00  0.00    +0.000 C 
ATOM     27  N   UNL     1       2.283   6.793  20.373  0.00  0.00    +0.000 N 
ATOM     28  O   UNL     1       2.761   7.293  18.236  0.00  0.00    +0.000 OA
ATOM     29  H   UNL     1       2.163   6.131  21.123  0.00  0.00    +0.000 HD
ATOM     30  H   UNL     1       2.376   7.775  20.592  0.00  0.00    +0.000 HD
ENDBRANCH  25  26
ENDBRANCH  19  21
ENDBRANCH  16  17
ENDBRANCH   1  16
TORSDOF 9
ENDMDL
MODEL 8
REMARK VINA RESULT:      -7.3      1.804      2.299
REMARK  Name = 
REMARK  10 active torsions:
REMARK  status: ('A' for Active; 'I' for Inactive)
REMARK    1  A    between atoms: C_1  and  O_2
REMARK    2  A    between atoms: O_2  and  C_3
REMARK    3  A    between atoms: C_3  and  C_5
REMARK    4  A    between atoms: C_8  and  C_9
REMARK    5  A    between atoms: C_10  and  C_11
REMARK    6  A    between atoms: C_11  and  O_13
REMARK    7  A    between atoms: O_13  and  C_14
REMARK    8  A    between atoms: C_14  and  C_15
REMARK    9  A    between atoms: N_17  and  C_18
REMARK   10  A    between atoms: C_22  and  C_23
REMARK                            x       y       z     vdW  Elec       q    Type
REMARK                         _______ _______ _______ _____ _____    ______ ____
ROOT
ATOM      1  O   UNL     1       7.401   6.190  17.067  0.00  0.00    +0.000 OA
ENDROOT
BRANCH   1   2
ATOM      2  C   UNL     1       7.841   6.790  18.205  0.00  0.00    +0.000 C 
ATOM      3  O   UNL     1       8.059   6.251  19.270  0.00  0.00    +0.000 OA
BRANCH   2   5
ATOM      4  C   UNL     1       8.809   9.011  18.697  0.00  0.00    +0.000 C 
ATOM      5  C   UNL     1       8.060   8.232  17.897  0.00  0.00    +0.000 C 
BRANCH   4   9
ATOM      6  C   UNL     1       9.662  13.208  18.151  0.00  0.00    +0.000 A 
ATOM      7  C   UNL     1      10.506  12.385  18.902  0.00  0.00    +0.000 A 
ATOM      8  C   UNL     1      10.214  11.022  19.062  0.00  0.00    +0.000 A 
ATOM      9  C   UNL     1       9.065  10.453  18.490  0.00  0.00    +0.000 A 
ATOM     10  C   UNL     1       8.234  11.279  17.721  0.00  0.00    +0.000 A 
ATOM     11  C   UNL     1       8.524  12.647  17.560  0.00  0.00    +0.000 A 
BRANCH   6  12
ATOM     12  C   UNL     1      10.021  14.647  17.995  0.00  0.00    +0.000 C 
ATOM     13  O   UNL     1       9.515  15.544  18.649  0.00  0.00    +0.000 OA
BRANCH  12  15
ATOM     14  C   UNL     1      11.530  16.119  16.978  0.00  0.00    +0.000 C 
ATOM     15  O   UNL     1      10.972  14.804  17.039  0.00  0.00    +0.000 OA
ENDBRANCH  12  15
ENDBRANCH   6  12
ENDBRANCH   4   9
ENDBRANCH   2   5
ENDBRANCH   1   2
BRANCH   1  16
ATOM     16  C   UNL     1       6.090   6.597  16.645  0.00  0.00    +0.000 C 
BRANCH  16  17
ATOM     17  C   UNL     1       5.037   5.685  17.285  0.00  0.00    +0.000 C 
ATOM     18  O   UNL     1       4.214   5.067  16.602  0.00  0.00    +0.000 OA
ATOM     19  N   UNL     1       5.058   5.688  18.676  0.00  0.00    +0.000 N 
ATOM     20  H   UNL     1       5.371   6.535  19.132  0.00  0.00    +0.000 HD
BRANCH  19  21
ATOM     21  C   UNL     1       4.105   4.943  19.345  0.00  0.00    +0.000 A 
ATOM     22  S   UNL     1       4.419   3.275  19.404  0.00  0.00    +0.000 S 
ATOM     23  C   UNL     1       3.102   3.017  20.466  0.00  0.00    +0.000 A 
ATOM     24  C   UNL     1       2.375   4.172  20.669  0.00  0.00    +0.000 A 
ATOM     25  C   UNL     1       2.926   5.307  19.972  0.00  0.00    +0.000 A 
BRANCH  25  26
ATOM     26  C   UNL     1       2.321   6.627  19.832  0.00  0.00    +0.000 C 
ATOM     27  N   UNL     1       1.714   7.140  20.940  0.00  0.00    +0.000 N 
ATOM     28  O   UNL     1       2.285   7.244  18.770  0.00  0.00    +0.000 OA
ATOM     29  H   UNL     1       1.765   6.712  21.851  0.00  0.00    +0.000 HD
ATOM     30  H   UNL     1       1.336   8.073  20.855  0.00  0.00    +0.000 HD
ENDBRANCH  25  26
ENDBRANCH  19  21
ENDBRANCH  16  17
ENDBRANCH   1  16
TORSDOF 9
ENDMDL
MODEL 9
REMARK VINA RESULT:      -7.2      1.687      2.760
REMARK  Name = 
REMARK  10 active torsions:
REMARK  status: ('A' for Active; 'I' for Inactive)
REMARK    1  A    between atoms: C_1  and  O_2
REMARK    2  A    between atoms: O_2  and  C_3
REMARK    3  A    between atoms: C_3  and  C_5
REMARK    4  A    between atoms: C_8  and  C_9
REMARK    5  A    between atoms: C_10  and  C_11
REMARK    6  A    between atoms: C_11  and  O_13
REMARK    7  A    between atoms: O_13  and  C_14
REMARK    8  A    between atoms: C_14  and  C_15
REMARK    9  A    between atoms: N_17  and  C_18
REMARK   10  A    between atoms: C_22  and  C_23
REMARK                            x       y       z     vdW  Elec       q    Type
REMARK                         _______ _______ _______ _____ _____    ______ ____
ROOT
ATOM      1  O   UNL     1       6.354   6.805  18.100  0.00  0.00    +0.000 OA
ENDROOT
BRANCH   1   2
ATOM      2  C   UNL     1       7.317   7.141  17.200  0.00  0.00    +0.000 C 
ATOM      3  O   UNL     1       7.756   6.440  16.313  0.00  0.00    +0.000 OA
BRANCH   2   5
ATOM      4  C   UNL     1       8.629   8.865  18.391  0.00  0.00    +0.000 C 
ATOM      5  C   UNL     1       7.704   8.556  17.465  0.00  0.00    +0.000 C 
BRANCH   4   9
ATOM      6  C   UNL     1       9.938  12.821  19.524  0.00  0.00    +0.000 A 
ATOM      7  C   UNL     1      10.037  11.740  20.405  0.00  0.00    +0.000 A 
ATOM      8  C   UNL     1       9.612  10.461  20.016  0.00  0.00    +0.000 A 
ATOM      9  C   UNL     1       9.062  10.235  18.743  0.00  0.00    +0.000 A 
ATOM     10  C   UNL     1       8.985  11.317  17.858  0.00  0.00    +0.000 A 
ATOM     11  C   UNL     1       9.410  12.601  18.246  0.00  0.00    +0.000 A 
BRANCH   6  12
ATOM     12  C   UNL     1      10.417  14.158  19.976  0.00  0.00    +0.000 C 
ATOM     13  O   UNL     1      10.358  14.540  21.133  0.00  0.00    +0.000 OA
BRANCH  12  15
ATOM     14  C   UNL     1      12.332  14.746  18.767  0.00  0.00    +0.000 C 
ATOM     15  O   UNL     1      10.917  14.867  18.932  0.00  0.00    +0.000 OA
ENDBRANCH  12  15
ENDBRANCH   6  12
ENDBRANCH   4   9
ENDBRANCH   2   5
ENDBRANCH   1   2
BRANCH   1  16
ATOM     16  C   UNL     1       5.243   6.083  17.546  0.00  0.00    +0.000 C 
BRANCH  16  17
ATOM     17  C   UNL     1       4.487   5.361  18.666  0.00  0.00    +0.000 C 
ATOM     18  O   UNL     1       4.873   5.399  19.839  0.00  0.00    +0.000 OA
ATOM     19  N   UNL     1       3.397   4.618  18.222  0.00  0.00    +0.000 N 
ATOM     20  H   UNL     1       3.447   4.237  17.287  0.00  0.00    +0.000 HD
BRANCH  19  21
ATOM     21  C   UNL     1       2.688   3.882  19.153  0.00  0.00    +0.000 A 
ATOM     22  S   UNL     1       1.343   4.678  19.815  0.00  0.00    +0.000 S 
ATOM     23  C   UNL     1       0.844   3.258  20.630  0.00  0.00    +0.000 A 
ATOM     24  C   UNL     1       1.759   2.237  20.484  0.00  0.00    +0.000 A 
ATOM     25  C   UNL     1       2.880   2.606  19.656  0.00  0.00    +0.000 A 
BRANCH  25  26
ATOM     26  C   UNL     1       4.098   1.835  19.436  0.00  0.00    +0.000 C 
ATOM     27  N   UNL     1       4.197   1.178  18.244  0.00  0.00    +0.000 N 
ATOM     28  O   UNL     1       4.980   1.709  20.281  0.00  0.00    +0.000 OA
ATOM     29  H   UNL     1       3.540   1.293  17.489  0.00  0.00    +0.000 HD
ATOM     30  H   UNL     1       5.061   0.683  18.074  0.00  0.00    +0.000 HD
ENDBRANCH  25  26
ENDBRANCH  19  21
ENDBRANCH  16  17
ENDBRANCH   1  16
TORSDOF 9
ENDMDL
