MODEL 1
REMARK VINA RESULT:      -8.6      0.000      0.000
REMARK  Name = 
REMARK  12 active torsions:
REMARK  status: ('A' for Active; 'I' for Inactive)
REMARK    1  A    between atoms: C_1  and  C_2
REMARK    2  A    between atoms: C_2  and  C_3
REMARK    3  A    between atoms: C_3  and  C_4
REMARK    4  A    between atoms: C_4  and  N_5
REMARK    5  A    between atoms: C_4  and  C_23
REMARK    6  A    between atoms: N_5  and  C_6
REMARK    7  A    between atoms: C_12  and  C_13
REMARK    8  A    between atoms: C_26  and  C_27
REMARK    9  A    between atoms: N_29  and  C_30
REMARK   10  A    between atoms: C_30  and  C_31
REMARK   11  A    between atoms: C_31  and  C_32
REMARK   12  A    between atoms: C_32  and  O_34
REMARK                            x       y       z     vdW  Elec       q    Type
REMARK                         _______ _______ _______ _____ _____    ______ ____
ROOT
ATOM      1  C   UNL     1       2.340   5.934  19.437  0.00  0.00    +0.000 C 
ENDROOT
BRANCH   1   2
ATOM      2  C   UNL     1       3.428   5.711  18.381  0.00  0.00    +0.000 A 
ATOM      3  C   UNL     1       4.161   6.789  17.864  0.00  0.00    +0.000 A 
ATOM      4  C   UNL     1       5.088   6.594  16.829  0.00  0.00    +0.000 A 
ATOM      5  C   UNL     1       5.298   5.316  16.295  0.00  0.00    +0.000 A 
ATOM      6  C   UNL     1       4.596   4.232  16.826  0.00  0.00    +0.000 A 
ATOM      7  C   UNL     1       3.677   4.427  17.859  0.00  0.00    +0.000 A 
BRANCH   5   8
ATOM      8  C   UNL     1       6.273   5.045  15.200  0.00  0.00    +0.000 C 
ATOM      9  O   UNL     1       7.326   5.678  15.140  0.00  0.00    +0.000 OA
ATOM     10  N   UNL     1       5.938   4.045  14.309  0.00  0.00    +0.000 N 
ATOM     11  H   UNL     1       5.185   3.392  14.523  0.00  0.00    +0.000 HD
BRANCH  10  12
ATOM     12  C   UNL     1       6.810   3.680  13.208  0.00  0.00    +0.000 C 
BRANCH  12  13
ATOM     13  C   UNL     1       6.156   3.855  11.843  0.00  0.00    +0.000 C 
BRANCH  13  14
ATOM     14  C   UNL     1       5.164   2.755  11.558  0.00  0.00    +0.000 C 
ATOM     15  O   UNL     1       3.978   2.918  11.313  0.00  0.00    +0.000 OA
BRANCH  14  16
ATOM     16  O   UNL     1       5.727   1.524  11.602  0.00  0.00    +0.000 OA
ATOM     17  H   UNL     1       5.372   0.953  12.311  0.00  0.00    +0.000 HD
ENDBRANCH  14  16
ENDBRANCH  13  14
ENDBRANCH  12  13
ENDBRANCH  10  12
ENDBRANCH   5   8
ENDBRANCH   1   2
BRANCH   1  18
ATOM     18  N   UNL     1       2.575   7.205  20.131  0.00  0.00    +0.000 N 
ATOM     19  H   UNL     1       3.489   7.592  19.914  0.00  0.00    +0.000 HD
BRANCH  18  20
ATOM     20  C   UNL     1       1.610   8.203  20.273  0.00  0.00    +0.000 A 
ATOM     21  C   UNL     1       1.330   9.022  19.175  0.00  0.00    +0.000 A 
ATOM     22  C   UNL     1       0.432  10.091  19.268  0.00  0.00    +0.000 A 
ATOM     23  C   UNL     1      -0.170  10.353  20.493  0.00  0.00    +0.000 A 
ATOM     24  N   UNL     1      -1.106  11.433  20.587  0.00  0.00    +0.000 N 
ATOM     25  C   UNL     1      -1.740  11.867  21.735  0.00  0.00    +0.000 A 
ATOM     26  C   UNL     1      -2.598  12.888  21.379  0.00  0.00    +0.000 A 
ATOM     27  C   UNL     1      -2.405  13.012  19.986  0.00  0.00    +0.000 A 
ATOM     28  N   UNL     1      -1.495  12.161  19.502  0.00  0.00    +0.000 NA
ATOM     29  N   UNL     1       0.101   9.613  21.602  0.00  0.00    +0.000 NA
ATOM     30  C   UNL     1       0.980   8.577  21.461  0.00  0.00    +0.000 A 
BRANCH  26  31
ATOM     31  C   UNL     1      -3.481  13.634  22.260  0.00  0.00    +0.000 A 
ATOM     32  C   UNL     1      -4.751  13.177  22.603  0.00  0.00    +0.000 A 
ATOM     33  C   UNL     1      -5.539  13.950  23.453  0.00  0.00    +0.000 A 
ATOM     34  C   UNL     1      -5.043  15.153  23.936  0.00  0.00    +0.000 A 
ATOM     35  C   UNL     1      -3.770  15.535  23.548  0.00  0.00    +0.000 A 
ATOM     36  N   UNL     1      -2.982  14.807  22.725  0.00  0.00    +0.000 NA
ENDBRANCH  26  31
ENDBRANCH  18  20
ENDBRANCH   1  18
BRANCH   1  37
ATOM     37  C   UNL     1       2.403   4.755  20.442  0.00  0.00    +0.000 C 
BRANCH  37  39
ATOM     38  C   UNL     1       1.362   2.688  21.402  0.00  0.00    +0.000 C 
ATOM     39  C   UNL     1       1.114   3.947  20.577  0.00  0.00    +0.000 C 
ENDBRANCH  37  39
ENDBRANCH   1  37
TORSDOF 11
ENDMDL
MODEL 2
REMARK VINA RESULT:      -8.5      1.133      1.626
REMARK  Name = 
REMARK  12 active torsions:
REMARK  status: ('A' for Active; 'I' for Inactive)
REMARK    1  A    between atoms: C_1  and  C_2
REMARK    2  A    between atoms: C_2  and  C_3
REMARK    3  A    between atoms: C_3  and  C_4
REMARK    4  A    between atoms: C_4  and  N_5
REMARK    5  A    between atoms: C_4  and  C_23
REMARK    6  A    between atoms: N_5  and  C_6
REMARK    7  A    between atoms: C_12  and  C_13
REMARK    8  A    between atoms: C_26  and  C_27
REMARK    9  A    between atoms: N_29  and  C_30
REMARK   10  A    between atoms: C_30  and  C_31
REMARK   11  A    between atoms: C_31  and  C_32
REMARK   12  A    between atoms: C_32  and  O_34
REMARK                            x       y       z     vdW  Elec       q    Type
REMARK                         _______ _______ _______ _____ _____    ______ ____
ROOT
ATOM      1  C   UNL     1       2.979   5.063  19.088  0.00  0.00    +0.000 C 
ENDROOT
BRANCH   1   2
ATOM      2  C   UNL     1       3.830   4.980  17.816  0.00  0.00    +0.000 A 
ATOM      3  C   UNL     1       3.911   3.789  17.081  0.00  0.00    +0.000 A 
ATOM      4  C   UNL     1       4.766   3.688  15.973  0.00  0.00    +0.000 A 
ATOM      5  C   UNL     1       5.553   4.779  15.581  0.00  0.00    +0.000 A 
ATOM      6  C   UNL     1       5.454   5.979  16.289  0.00  0.00    +0.000 A 
ATOM      7  C   UNL     1       4.600   6.079  17.388  0.00  0.00    +0.000 A 
BRANCH   5   8
ATOM      8  C   UNL     1       6.475   4.734  14.410  0.00  0.00    +0.000 C 
ATOM      9  O   UNL     1       7.559   5.314  14.456  0.00  0.00    +0.000 OA
ATOM     10  N   UNL     1       6.056   3.994  13.323  0.00  0.00    +0.000 N 
ATOM     11  H   UNL     1       5.276   3.344  13.409  0.00  0.00    +0.000 HD
BRANCH  10  12
ATOM     12  C   UNL     1       6.870   3.864  12.128  0.00  0.00    +0.000 C 
BRANCH  12  13
ATOM     13  C   UNL     1       7.177   2.416  11.767  0.00  0.00    +0.000 C 
BRANCH  13  14
ATOM     14  C   UNL     1       5.925   1.658  11.401  0.00  0.00    +0.000 C 
ATOM     15  O   UNL     1       5.861   0.455  11.199  0.00  0.00    +0.000 OA
BRANCH  14  16
ATOM     16  O   UNL     1       4.839   2.461  11.314  0.00  0.00    +0.000 OA
ATOM     17  H   UNL     1       4.091   2.062  10.830  0.00  0.00    +0.000 HD
ENDBRANCH  14  16
ENDBRANCH  13  14
ENDBRANCH  12  13
ENDBRANCH  10  12
ENDBRANCH   5   8
ENDBRANCH   1   2
BRANCH   1  18
ATOM     18  N   UNL     1       3.206   6.349  19.756  0.00  0.00    +0.000 N 
ATOM     19  H   UNL     1       4.158   6.680  19.626  0.00  0.00    +0.000 HD
BRANCH  18  20
ATOM     20  C   UNL     1       2.288   7.399  19.752  0.00  0.00    +0.000 A 
ATOM     21  C   UNL     1       2.157   8.168  18.591  0.00  0.00    +0.000 A 
ATOM     22  C   UNL     1       1.314   9.283  18.542  0.00  0.00    +0.000 A 
ATOM     23  C   UNL     1       0.614   9.643  19.687  0.00  0.00    +0.000 A 
ATOM     24  N   UNL     1      -0.267  10.772  19.634  0.00  0.00    +0.000 N 
ATOM     25  C   UNL     1      -0.982  11.299  20.691  0.00  0.00    +0.000 A 
ATOM     26  C   UNL     1      -1.746  12.339  20.202  0.00  0.00    +0.000 A 
ATOM     27  C   UNL     1      -1.416  12.376  18.830  0.00  0.00    +0.000 A 
ATOM     28  N   UNL     1      -0.512  11.455  18.481  0.00  0.00    +0.000 NA
ATOM     29  N   UNL     1       0.738   8.954  20.854  0.00  0.00    +0.000 NA
ATOM     30  C   UNL     1       1.569   7.870  20.852  0.00  0.00    +0.000 A 
BRANCH  26  31
ATOM     31  C   UNL     1      -2.667  13.176  20.953  0.00  0.00    +0.000 A 
ATOM     32  C   UNL     1      -4.011  12.848  21.113  0.00  0.00    +0.000 A 
ATOM     33  C   UNL     1      -4.831  13.702  21.847  0.00  0.00    +0.000 A 
ATOM     34  C   UNL     1      -4.293  14.856  22.400  0.00  0.00    +0.000 A 
ATOM     35  C   UNL     1      -2.947  15.108  22.197  0.00  0.00    +0.000 A 
ATOM     36  N   UNL     1      -2.126  14.299  21.489  0.00  0.00    +0.000 NA
ENDBRANCH  26  31
ENDBRANCH  18  20
ENDBRANCH   1  18
BRANCH   1  37
ATOM     37  C   UNL     1       3.398   3.895  20.018  0.00  0.00    +0.000 C 
BRANCH  37  39
ATOM     38  C   UNL     1       0.923   3.695  20.356  0.00  0.00    +0.000 C 
ATOM     39  C   UNL     1       2.297   3.366  20.934  0.00  0.00    +0.000 C 
ENDBRANCH  37  39
ENDBRANCH   1  37
TORSDOF 11
ENDMDL
MODEL 3
REMARK VINA RESULT:      -8.5      1.414      1.871
REMARK  Name = 
REMARK  12 active torsions:
REMARK  status: ('A' for Active; 'I' for Inactive)
REMARK    1  A    between atoms: C_1  and  C_2
REMARK    2  A    between atoms: C_2  and  C_3
REMARK    3  A    between atoms: C_3  and  C_4
REMARK    4  A    between atoms: C_4  and  N_5
REMARK    5  A    between atoms: C_4  and  C_23
REMARK    6  A    between atoms: N_5  and  C_6
REMARK    7  A    between atoms: C_12  and  C_13
REMARK    8  A    between atoms: C_26  and  C_27
REMARK    9  A    between atoms: N_29  and  C_30
REMARK   10  A    between atoms: C_30  and  C_31
REMARK   11  A    between atoms: C_31  and  C_32
REMARK   12  A    between atoms: C_32  and  O_34
REMARK                            x       y       z     vdW  Elec       q    Type
REMARK                         _______ _______ _______ _____ _____    ______ ____
ROOT
ATOM      1  C   UNL     1       2.246   6.121  19.025  0.00  0.00    +0.000 C 
ENDROOT
BRANCH   1   2
ATOM      2  C   UNL     1       3.494   5.863  18.173  0.00  0.00    +0.000 A 
ATOM      3  C   UNL     1       4.110   6.906  17.466  0.00  0.00    +0.000 A 
ATOM      4  C   UNL     1       5.193   6.650  16.612  0.00  0.00    +0.000 A 
ATOM      5  C   UNL     1       5.679   5.345  16.451  0.00  0.00    +0.000 A 
ATOM      6  C   UNL     1       5.091   4.306  17.176  0.00  0.00    +0.000 A 
ATOM      7  C   UNL     1       4.017   4.563  18.029  0.00  0.00    +0.000 A 
BRANCH   5   8
ATOM      8  C   UNL     1       6.829   5.011  15.563  0.00  0.00    +0.000 C 
ATOM      9  O   UNL     1       7.852   4.521  16.037  0.00  0.00    +0.000 OA
ATOM     10  N   UNL     1       6.657   5.251  14.214  0.00  0.00    +0.000 N 
ATOM     11  H   UNL     1       5.728   5.431  13.835  0.00  0.00    +0.000 HD
BRANCH  10  12
ATOM     12  C   UNL     1       7.699   4.956  13.248  0.00  0.00    +0.000 C 
BRANCH  12  13
ATOM     13  C   UNL     1       7.163   4.355  11.954  0.00  0.00    +0.000 C 
BRANCH  13  14
ATOM     14  C   UNL     1       6.073   3.347  12.221  0.00  0.00    +0.000 C 
ATOM     15  O   UNL     1       4.958   3.608  12.644  0.00  0.00    +0.000 OA
BRANCH  14  16
ATOM     16  O   UNL     1       6.458   2.080  11.939  0.00  0.00    +0.000 OA
ATOM     17  H   UNL     1       6.420   1.476  12.705  0.00  0.00    +0.000 HD
ENDBRANCH  14  16
ENDBRANCH  13  14
ENDBRANCH  12  13
ENDBRANCH  10  12
ENDBRANCH   5   8
ENDBRANCH   1   2
BRANCH   1  18
ATOM     18  N   UNL     1       2.569   7.054  20.109  0.00  0.00    +0.000 N 
ATOM     19  H   UNL     1       3.552   7.312  20.107  0.00  0.00    +0.000 HD
BRANCH  18  20
ATOM     20  C   UNL     1       1.754   8.123  20.483  0.00  0.00    +0.000 A 
ATOM     21  C   UNL     1       1.437   8.281  21.836  0.00  0.00    +0.000 A 
ATOM     22  C   UNL     1       0.563   9.282  22.272  0.00  0.00    +0.000 A 
ATOM     23  C   UNL     1      -0.020  10.118  21.327  0.00  0.00    +0.000 A 
ATOM     24  N   UNL     1      -0.899  11.158  21.771  0.00  0.00    +0.000 N 
ATOM     25  C   UNL     1      -1.607  12.029  20.966  0.00  0.00    +0.000 A 
ATOM     26  C   UNL     1      -2.283  12.905  21.791  0.00  0.00    +0.000 A 
ATOM     27  C   UNL     1      -1.930  12.478  23.089  0.00  0.00    +0.000 A 
ATOM     28  N   UNL     1      -1.118  11.416  23.092  0.00  0.00    +0.000 NA
ATOM     29  N   UNL     1       0.221   9.979  19.995  0.00  0.00    +0.000 NA
ATOM     30  C   UNL     1       1.085   8.991  19.618  0.00  0.00    +0.000 A 
BRANCH  26  31
ATOM     31  C   UNL     1      -3.144  14.003  21.381  0.00  0.00    +0.000 A 
ATOM     32  C   UNL     1      -2.812  15.336  21.609  0.00  0.00    +0.000 A 
ATOM     33  C   UNL     1      -3.690  16.332  21.186  0.00  0.00    +0.000 A 
ATOM     34  C   UNL     1      -4.871  15.974  20.551  0.00  0.00    +0.000 A 
ATOM     35  C   UNL     1      -5.126  14.627  20.362  0.00  0.00    +0.000 A 
ATOM     36  N   UNL     1      -4.294  13.638  20.761  0.00  0.00    +0.000 NA
ENDBRANCH  26  31
ENDBRANCH  18  20
ENDBRANCH   1  18
BRANCH   1  37
ATOM     37  C   UNL     1       1.779   4.762  19.608  0.00  0.00    +0.000 C 
BRANCH  37  39
ATOM     38  C   UNL     1       1.975   3.070  21.446  0.00  0.00    +0.000 C 
ATOM     39  C   UNL     1       2.090   4.549  21.088  0.00  0.00    +0.000 C 
ENDBRANCH  37  39
ENDBRANCH   1  37
TORSDOF 11
ENDMDL
MODEL 4
REMARK VINA RESULT:      -8.3      1.952      2.638
REMARK  Name = 
REMARK  12 active torsions:
REMARK  status: ('A' for Active; 'I' for Inactive)
REMARK    1  A    between atoms: C_1  and  C_2
REMARK    2  A    between atoms: C_2  and  C_3
REMARK    3  A    between atoms: C_3  and  C_4
REMARK    4  A    between atoms: C_4  and  N_5
REMARK    5  A    between atoms: C_4  and  C_23
REMARK    6  A    between atoms: N_5  and  C_6
REMARK    7  A    between atoms: C_12  and  C_13
REMARK    8  A    between atoms: C_26  and  C_27
REMARK    9  A    between atoms: N_29  and  C_30
REMARK   10  A    between atoms: C_30  and  C_31
REMARK   11  A    between atoms: C_31  and  C_32
REMARK   12  A    between atoms: C_32  and  O_34
REMARK                            x       y       z     vdW  Elec       q    Type
REMARK                         _______ _______ _______ _____ _____    ______ ____
ROOT
ATOM      1  C   UNL     1       1.869   5.722  18.913  0.00  0.00    +0.000 C 
ENDROOT
BRANCH   1   2
ATOM      2  C   UNL     1       3.113   5.550  18.033  0.00  0.00    +0.000 A 
ATOM      3  C   UNL     1       3.974   6.630  17.786  0.00  0.00    +0.000 A 
ATOM      4  C   UNL     1       5.056   6.495  16.904  0.00  0.00    +0.000 A 
ATOM      5  C   UNL     1       5.296   5.276  16.255  0.00  0.00    +0.000 A 
ATOM      6  C   UNL     1       4.462   4.187  16.520  0.00  0.00    +0.000 A 
ATOM      7  C   UNL     1       3.389   4.322  17.401  0.00  0.00    +0.000 A 
BRANCH   5   8
ATOM      8  C   UNL     1       6.432   5.070  15.312  0.00  0.00    +0.000 C 
ATOM      9  O   UNL     1       7.527   5.579  15.544  0.00  0.00    +0.000 OA
ATOM     10  N   UNL     1       6.187   4.266  14.216  0.00  0.00    +0.000 N 
ATOM     11  H   UNL     1       5.355   3.678  14.181  0.00  0.00    +0.000 HD
BRANCH  10  12
ATOM     12  C   UNL     1       7.216   3.980  13.234  0.00  0.00    +0.000 C 
BRANCH  12  13
ATOM     13  C   UNL     1       6.670   3.836  11.819  0.00  0.00    +0.000 C 
BRANCH  13  14
ATOM     14  C   UNL     1       5.531   2.848  11.762  0.00  0.00    +0.000 C 
ATOM     15  O   UNL     1       5.641   1.657  11.514  0.00  0.00    +0.000 OA
BRANCH  14  16
ATOM     16  O   UNL     1       4.332   3.423  12.018  0.00  0.00    +0.000 OA
ATOM     17  H   UNL     1       3.601   3.069  11.475  0.00  0.00    +0.000 HD
ENDBRANCH  14  16
ENDBRANCH  13  14
ENDBRANCH  12  13
ENDBRANCH  10  12
ENDBRANCH   5   8
ENDBRANCH   1   2
BRANCH   1  18
ATOM     18  N   UNL     1       2.200   6.539  20.086  0.00  0.00    +0.000 N 
ATOM     19  H   UNL     1       3.171   6.430  20.362  0.00  0.00    +0.000 HD
BRANCH  18  20
ATOM     20  C   UNL     1       1.752   7.847  20.272  0.00  0.00    +0.000 A 
ATOM     21  C   UNL     1       1.219   8.200  21.516  0.00  0.00    +0.000 A 
ATOM     22  C   UNL     1       0.680   9.470  21.748  0.00  0.00    +0.000 A 
ATOM     23  C   UNL     1       0.655  10.387  20.704  0.00  0.00    +0.000 A 
ATOM     24  N   UNL     1       0.123  11.695  20.944  0.00  0.00    +0.000 N 
ATOM     25  C   UNL     1      -0.035  12.697  20.006  0.00  0.00    +0.000 A 
ATOM     26  C   UNL     1      -0.524  13.809  20.662  0.00  0.00    +0.000 A 
ATOM     27  C   UNL     1      -0.643  13.379  22.001  0.00  0.00    +0.000 A 
ATOM     28  N   UNL     1      -0.280  12.106  22.180  0.00  0.00    +0.000 NA
ATOM     29  N   UNL     1       1.121  10.080  19.463  0.00  0.00    +0.000 NA
ATOM     30  C   UNL     1       1.643   8.830  19.285  0.00  0.00    +0.000 A 
BRANCH  26  31
ATOM     31  C   UNL     1      -0.828  15.105  20.076  0.00  0.00    +0.000 A 
ATOM     32  C   UNL     1      -1.683  16.017  20.689  0.00  0.00    +0.000 A 
ATOM     33  C   UNL     1      -1.926  17.239  20.065  0.00  0.00    +0.000 A 
ATOM     34  C   UNL     1      -1.315  17.517  18.850  0.00  0.00    +0.000 A 
ATOM     35  C   UNL     1      -0.478  16.557  18.308  0.00  0.00    +0.000 A 
ATOM     36  N   UNL     1      -0.223  15.363  18.890  0.00  0.00    +0.000 NA
ENDBRANCH  26  31
ENDBRANCH  18  20
ENDBRANCH   1  18
BRANCH   1  37
ATOM     37  C   UNL     1       1.402   4.312  19.356  0.00  0.00    +0.000 C 
BRANCH  37  39
ATOM     38  C   UNL     1       2.796   2.925  20.909  0.00  0.00    +0.000 C 
ATOM     39  C   UNL     1       1.683   3.964  20.817  0.00  0.00    +0.000 C 
ENDBRANCH  37  39
ENDBRANCH   1  37
TORSDOF 11
ENDMDL
MODEL 5
REMARK VINA RESULT:      -8.3      1.134      1.801
REMARK  Name = 
REMARK  12 active torsions:
REMARK  status: ('A' for Active; 'I' for Inactive)
REMARK    1  A    between atoms: C_1  and  C_2
REMARK    2  A    between atoms: C_2  and  C_3
REMARK    3  A    between atoms: C_3  and  C_4
REMARK    4  A    between atoms: C_4  and  N_5
REMARK    5  A    between atoms: C_4  and  C_23
REMARK    6  A    between atoms: N_5  and  C_6
REMARK    7  A    between atoms: C_12  and  C_13
REMARK    8  A    between atoms: C_26  and  C_27
REMARK    9  A    between atoms: N_29  and  C_30
REMARK   10  A    between atoms: C_30  and  C_31
REMARK   11  A    between atoms: C_31  and  C_32
REMARK   12  A    between atoms: C_32  and  O_34
REMARK                            x       y       z     vdW  Elec       q    Type
REMARK                         _______ _______ _______ _____ _____    ______ ____
ROOT
ATOM      1  C   UNL     1       2.202   6.203  19.297  0.00  0.00    +0.000 C 
ENDROOT
BRANCH   1   2
ATOM      2  C   UNL     1       3.215   5.889  18.191  0.00  0.00    +0.000 A 
ATOM      3  C   UNL     1       3.563   4.564  17.890  0.00  0.00    +0.000 A 
ATOM      4  C   UNL     1       4.562   4.282  16.945  0.00  0.00    +0.000 A 
ATOM      5  C   UNL     1       5.227   5.323  16.284  0.00  0.00    +0.000 A 
ATOM      6  C   UNL     1       4.864   6.645  16.554  0.00  0.00    +0.000 A 
ATOM      7  C   UNL     1       3.867   6.922  17.491  0.00  0.00    +0.000 A 
BRANCH   5   8
ATOM      8  C   UNL     1       6.291   5.088  15.266  0.00  0.00    +0.000 C 
ATOM      9  O   UNL     1       7.405   5.587  15.412  0.00  0.00    +0.000 OA
ATOM     10  N   UNL     1       5.959   4.270  14.204  0.00  0.00    +0.000 N 
ATOM     11  H   UNL     1       5.119   3.693  14.239  0.00  0.00    +0.000 HD
BRANCH  10  12
ATOM     12  C   UNL     1       6.912   3.956  13.156  0.00  0.00    +0.000 C 
BRANCH  12  13
ATOM     13  C   UNL     1       6.285   3.922  11.767  0.00  0.00    +0.000 C 
BRANCH  13  14
ATOM     14  C   UNL     1       5.331   2.763  11.617  0.00  0.00    +0.000 C 
ATOM     15  O   UNL     1       5.656   1.596  11.462  0.00  0.00    +0.000 OA
BRANCH  14  16
ATOM     16  O   UNL     1       4.035   3.148  11.670  0.00  0.00    +0.000 OA
ATOM     17  H   UNL     1       3.405   2.453  11.398  0.00  0.00    +0.000 HD
ENDBRANCH  14  16
ENDBRANCH  13  14
ENDBRANCH  12  13
ENDBRANCH  10  12
ENDBRANCH   5   8
ENDBRANCH   1   2
BRANCH   1  18
ATOM     18  N   UNL     1       2.592   7.434  19.993  0.00  0.00    +0.000 N 
ATOM     19  H   UNL     1       3.426   7.850  19.588  0.00  0.00    +0.000 HD
BRANCH  18  20
ATOM     20  C   UNL     1       1.686   8.404  20.424  0.00  0.00    +0.000 A 
ATOM     21  C   UNL     1       1.292   8.402  21.766  0.00  0.00    +0.000 A 
ATOM     22  C   UNL     1       0.329   9.294  22.248  0.00  0.00    +0.000 A 
ATOM     23  C   UNL     1      -0.264  10.182  21.358  0.00  0.00    +0.000 A 
ATOM     24  N   UNL     1      -1.235  11.112  21.853  0.00  0.00    +0.000 N 
ATOM     25  C   UNL     1      -1.962  12.012  21.099  0.00  0.00    +0.000 A 
ATOM     26  C   UNL     1      -2.738  12.754  21.966  0.00  0.00    +0.000 A 
ATOM     27  C   UNL     1      -2.421  12.220  23.233  0.00  0.00    +0.000 A 
ATOM     28  N   UNL     1      -1.538  11.219  23.178  0.00  0.00    +0.000 NA
ATOM     29  N   UNL     1       0.052  10.197  20.035  0.00  0.00    +0.000 NA
ATOM     30  C   UNL     1       1.002   9.311  19.612  0.00  0.00    +0.000 A 
BRANCH  26  31
ATOM     31  C   UNL     1      -3.653  13.829  21.618  0.00  0.00    +0.000 A 
ATOM     32  C   UNL     1      -4.519  13.749  20.531  0.00  0.00    +0.000 A 
ATOM     33  C   UNL     1      -5.366  14.821  20.261  0.00  0.00    +0.000 A 
ATOM     34  C   UNL     1      -5.327  15.942  21.079  0.00  0.00    +0.000 A 
ATOM     35  C   UNL     1      -4.439  15.943  22.140  0.00  0.00    +0.000 A 
ATOM     36  N   UNL     1      -3.605  14.918  22.427  0.00  0.00    +0.000 NA
ENDBRANCH  26  31
ENDBRANCH  18  20
ENDBRANCH   1  18
BRANCH   1  37
ATOM     37  C   UNL     1       2.191   5.009  20.286  0.00  0.00    +0.000 C 
BRANCH  37  39
ATOM     38  C   UNL     1       1.086   2.777  20.011  0.00  0.00    +0.000 C 
ATOM     39  C   UNL     1       0.871   4.245  20.367  0.00  0.00    +0.000 C 
ENDBRANCH  37  39
ENDBRANCH   1  37
TORSDOF 11
ENDMDL
MODEL 6
REMARK VINA RESULT:      -8.2      1.189      1.487
REMARK  Name = 
REMARK  12 active torsions:
REMARK  status: ('A' for Active; 'I' for Inactive)
REMARK    1  A    between atoms: C_1  and  C_2
REMARK    2  A    between atoms: C_2  and  C_3
REMARK    3  A    between atoms: C_3  and  C_4
REMARK    4  A    between atoms: C_4  and  N_5
REMARK    5  A    between atoms: C_4  and  C_23
REMARK    6  A    between atoms: N_5  and  C_6
REMARK    7  A    between atoms: C_12  and  C_13
REMARK    8  A    between atoms: C_26  and  C_27
REMARK    9  A    between atoms: N_29  and  C_30
REMARK   10  A    between atoms: C_30  and  C_31
REMARK   11  A    between atoms: C_31  and  C_32
REMARK   12  A    between atoms: C_32  and  O_34
REMARK                            x       y       z     vdW  Elec       q    Type
REMARK                         _______ _______ _______ _____ _____    ______ ____
ROOT
ATOM      1  C   UNL     1       2.086   5.981  19.607  0.00  0.00    +0.000 C 
ENDROOT
BRANCH   1   2
ATOM      2  C   UNL     1       3.216   5.837  18.582  0.00  0.00    +0.000 A 
ATOM      3  C   UNL     1       3.991   4.669  18.525  0.00  0.00    +0.000 A 
ATOM      4  C   UNL     1       5.087   4.578  17.653  0.00  0.00    +0.000 A 
ATOM      5  C   UNL     1       5.423   5.654  16.821  0.00  0.00    +0.000 A 
ATOM      6  C   UNL     1       4.637   6.808  16.847  0.00  0.00    +0.000 A 
ATOM      7  C   UNL     1       3.545   6.895  17.713  0.00  0.00    +0.000 A 
BRANCH   5   8
ATOM      8  C   UNL     1       6.570   5.615  15.869  0.00  0.00    +0.000 C 
ATOM      9  O   UNL     1       7.612   6.211  16.134  0.00  0.00    +0.000 OA
ATOM     10  N   UNL     1       6.399   4.859  14.727  0.00  0.00    +0.000 N 
ATOM     11  H   UNL     1       5.626   4.197  14.655  0.00  0.00    +0.000 HD
BRANCH  10  12
ATOM     12  C   UNL     1       7.446   4.732  13.730  0.00  0.00    +0.000 C 
BRANCH  12  13
ATOM     13  C   UNL     1       6.913   4.430  12.335  0.00  0.00    +0.000 C 
BRANCH  13  14
ATOM     14  C   UNL     1       5.830   3.380  12.371  0.00  0.00    +0.000 C 
ATOM     15  O   UNL     1       4.698   3.547  12.796  0.00  0.00    +0.000 OA
BRANCH  14  16
ATOM     16  O   UNL     1       6.244   2.191  11.872  0.00  0.00    +0.000 OA
ATOM     17  H   UNL     1       7.215   2.104  11.815  0.00  0.00    +0.000 HD
ENDBRANCH  14  16
ENDBRANCH  13  14
ENDBRANCH  12  13
ENDBRANCH  10  12
ENDBRANCH   5   8
ENDBRANCH   1   2
BRANCH   1  18
ATOM     18  N   UNL     1       2.397   7.069  20.540  0.00  0.00    +0.000 N 
ATOM     19  H   UNL     1       3.381   7.322  20.513  0.00  0.00    +0.000 HD
BRANCH  18  20
ATOM     20  C   UNL     1       1.581   8.184  20.733  0.00  0.00    +0.000 A 
ATOM     21  C   UNL     1       1.126   8.882  19.610  0.00  0.00    +0.000 A 
ATOM     22  C   UNL     1       0.371  10.053  19.731  0.00  0.00    +0.000 A 
ATOM     23  C   UNL     1       0.092  10.540  21.003  0.00  0.00    +0.000 A 
ATOM     24  N   UNL     1      -0.700  11.727  21.131  0.00  0.00    +0.000 N 
ATOM     25  C   UNL     1      -1.012  12.377  22.309  0.00  0.00    +0.000 A 
ATOM     26  C   UNL     1      -1.837  13.438  21.996  0.00  0.00    +0.000 A 
ATOM     27  C   UNL     1      -1.961  13.358  20.592  0.00  0.00    +0.000 A 
ATOM     28  N   UNL     1      -1.265  12.350  20.058  0.00  0.00    +0.000 NA
ATOM     29  N   UNL     1       0.547   9.923  22.127  0.00  0.00    +0.000 NA
ATOM     30  C   UNL     1       1.276   8.780  21.959  0.00  0.00    +0.000 A 
BRANCH  26  31
ATOM     31  C   UNL     1      -2.426  14.391  22.923  0.00  0.00    +0.000 A 
ATOM     32  C   UNL     1      -2.884  15.641  22.515  0.00  0.00    +0.000 A 
ATOM     33  C   UNL     1      -3.435  16.500  23.464  0.00  0.00    +0.000 A 
ATOM     34  C   UNL     1      -3.515  16.091  24.788  0.00  0.00    +0.000 A 
ATOM     35  C   UNL     1      -3.038  14.832  25.111  0.00  0.00    +0.000 A 
ATOM     36  N   UNL     1      -2.498  13.977  24.213  0.00  0.00    +0.000 NA
ENDBRANCH  26  31
ENDBRANCH  18  20
ENDBRANCH   1  18
BRANCH   1  37
ATOM     37  C   UNL     1       1.963   4.638  20.371  0.00  0.00    +0.000 C 
BRANCH  37  39
ATOM     38  C   UNL     1       1.059   2.604  19.220  0.00  0.00    +0.000 C 
ATOM     39  C   UNL     1       0.706   3.827  20.061  0.00  0.00    +0.000 C 
ENDBRANCH  37  39
ENDBRANCH   1  37
TORSDOF 11
ENDMDL
MODEL 7
REMARK VINA RESULT:      -7.9      0.802      1.202
REMARK  Name = 
REMARK  12 active torsions:
REMARK  status: ('A' for Active; 'I' for Inactive)
REMARK    1  A    between atoms: C_1  and  C_2
REMARK    2  A    between atoms: C_2  and  C_3
REMARK    3  A    between atoms: C_3  and  C_4
REMARK    4  A    between atoms: C_4  and  N_5
REMARK    5  A    between atoms: C_4  and  C_23
REMARK    6  A    between atoms: N_5  and  C_6
REMARK    7  A    between atoms: C_12  and  C_13
REMARK    8  A    between atoms: C_26  and  C_27
REMARK    9  A    between atoms: N_29  and  C_30
REMARK   10  A    between atoms: C_30  and  C_31
REMARK   11  A    between atoms: C_31  and  C_32
REMARK   12  A    between atoms: C_32  and  O_34
REMARK                            x       y       z     vdW  Elec       q    Type
REMARK                         _______ _______ _______ _____ _____    ______ ____
ROOT
ATOM      1  C   UNL     1       2.689   5.626  19.406  0.00  0.00    +0.000 C 
ENDROOT
BRANCH   1   2
ATOM      2  C   UNL     1       3.651   5.448  18.226  0.00  0.00    +0.000 A 
ATOM      3  C   UNL     1       4.271   6.556  17.630  0.00  0.00    +0.000 A 
ATOM      4  C   UNL     1       5.074   6.399  16.490  0.00  0.00    +0.000 A 
ATOM      5  C   UNL     1       5.271   5.131  15.929  0.00  0.00    +0.000 A 
ATOM      6  C   UNL     1       4.683   4.018  16.536  0.00  0.00    +0.000 A 
ATOM      7  C   UNL     1       3.889   4.175  17.672  0.00  0.00    +0.000 A 
BRANCH   5   8
ATOM      8  C   UNL     1       6.118   4.901  14.723  0.00  0.00    +0.000 C 
ATOM      9  O   UNL     1       7.304   5.225  14.731  0.00  0.00    +0.000 OA
ATOM     10  N   UNL     1       5.507   4.287  13.648  0.00  0.00    +0.000 N 
ATOM     11  H   UNL     1       4.605   3.824  13.760  0.00  0.00    +0.000 HD
BRANCH  10  12
ATOM     12  C   UNL     1       6.228   3.998  12.422  0.00  0.00    +0.000 C 
BRANCH  12  13
ATOM     13  C   UNL     1       6.671   2.544  12.317  0.00  0.00    +0.000 C 
BRANCH  13  14
ATOM     14  C   UNL     1       5.782   1.759  11.384  0.00  0.00    +0.000 C 
ATOM     15  O   UNL     1       6.070   0.692  10.864  0.00  0.00    +0.000 OA
BRANCH  14  16
ATOM     16  O   UNL     1       4.593   2.369  11.165  0.00  0.00    +0.000 OA
ATOM     17  H   UNL     1       4.238   2.231  10.266  0.00  0.00    +0.000 HD
ENDBRANCH  14  16
ENDBRANCH  13  14
ENDBRANCH  12  13
ENDBRANCH  10  12
ENDBRANCH   5   8
ENDBRANCH   1   2
BRANCH   1  18
ATOM     18  N   UNL     1       2.903   6.937  20.028  0.00  0.00    +0.000 N 
ATOM     19  H   UNL     1       3.793   7.344  19.757  0.00  0.00    +0.000 HD
BRANCH  18  20
ATOM     20  C   UNL     1       1.909   7.907  20.158  0.00  0.00    +0.000 A 
ATOM     21  C   UNL     1       1.633   8.732  19.063  0.00  0.00    +0.000 A 
ATOM     22  C   UNL     1       0.705   9.776  19.148  0.00  0.00    +0.000 A 
ATOM     23  C   UNL     1       0.066  10.006  20.360  0.00  0.00    +0.000 A 
ATOM     24  N   UNL     1      -0.901  11.060  20.445  0.00  0.00    +0.000 N 
ATOM     25  C   UNL     1      -1.574  11.461  21.582  0.00  0.00    +0.000 A 
ATOM     26  C   UNL     1      -2.451  12.463  21.217  0.00  0.00    +0.000 A 
ATOM     27  C   UNL     1      -2.227  12.610  19.831  0.00  0.00    +0.000 A 
ATOM     28  N   UNL     1      -1.283  11.790  19.359  0.00  0.00    +0.000 NA
ATOM     29  N   UNL     1       0.329   9.259  21.467  0.00  0.00    +0.000 NA
ATOM     30  C   UNL     1       1.239   8.248  21.335  0.00  0.00    +0.000 A 
BRANCH  26  31
ATOM     31  C   UNL     1      -3.375  13.174  22.085  0.00  0.00    +0.000 A 
ATOM     32  C   UNL     1      -3.112  14.454  22.564  0.00  0.00    +0.000 A 
ATOM     33  C   UNL     1      -4.048  15.070  23.393  0.00  0.00    +0.000 A 
ATOM     34  C   UNL     1      -5.216  14.396  23.721  0.00  0.00    +0.000 A 
ATOM     35  C   UNL     1      -5.402  13.126  23.202  0.00  0.00    +0.000 A 
ATOM     36  N   UNL     1      -4.512  12.503  22.396  0.00  0.00    +0.000 NA
ENDBRANCH  26  31
ENDBRANCH  18  20
ENDBRANCH   1  18
BRANCH   1  37
ATOM     37  C   UNL     1       2.975   4.495  20.428  0.00  0.00    +0.000 C 
BRANCH  37  39
ATOM     38  C   UNL     1       0.664   3.841  19.714  0.00  0.00    +0.000 C 
ATOM     39  C   UNL     1       1.837   3.497  20.627  0.00  0.00    +0.000 C 
ENDBRANCH  37  39
ENDBRANCH   1  37
TORSDOF 11
ENDMDL
MODEL 8
REMARK VINA RESULT:      -7.8      1.589      1.706
REMARK  Name = 
REMARK  12 active torsions:
REMARK  status: ('A' for Active; 'I' for Inactive)
REMARK    1  A    between atoms: C_1  and  C_2
REMARK    2  A    between atoms: C_2  and  C_3
REMARK    3  A    between atoms: C_3  and  C_4
REMARK    4  A    between atoms: C_4  and  N_5
REMARK    5  A    between atoms: C_4  and  C_23
REMARK    6  A    between atoms: N_5  and  C_6
REMARK    7  A    between atoms: C_12  and  C_13
REMARK    8  A    between atoms: C_26  and  C_27
REMARK    9  A    between atoms: N_29  and  C_30
REMARK   10  A    between atoms: C_30  and  C_31
REMARK   11  A    between atoms: C_31  and  C_32
REMARK   12  A    between atoms: C_32  and  O_34
REMARK                            x       y       z     vdW  Elec       q    Type
REMARK                         _______ _______ _______ _____ _____    ______ ____
ROOT
ATOM      1  C   UNL     1       2.023   5.773  19.929  0.00  0.00    +0.000 C 
ENDROOT
BRANCH   1   2
ATOM      2  C   UNL     1       3.149   5.342  18.982  0.00  0.00    +0.000 A 
ATOM      3  C   UNL     1       4.492   5.416  19.381  0.00  0.00    +0.000 A 
ATOM      4  C   UNL     1       5.524   5.113  18.480  0.00  0.00    +0.000 A 
ATOM      5  C   UNL     1       5.228   4.730  17.165  0.00  0.00    +0.000 A 
ATOM      6  C   UNL     1       3.893   4.622  16.770  0.00  0.00    +0.000 A 
ATOM      7  C   UNL     1       2.868   4.920  17.669  0.00  0.00    +0.000 A 
BRANCH   5   8
ATOM      8  C   UNL     1       6.280   4.390  16.164  0.00  0.00    +0.000 C 
ATOM      9  O   UNL     1       7.469   4.494  16.459  0.00  0.00    +0.000 OA
ATOM     10  N   UNL     1       5.841   3.933  14.938  0.00  0.00    +0.000 N 
ATOM     11  H   UNL     1       4.873   3.638  14.812  0.00  0.00    +0.000 HD
BRANCH  10  12
ATOM     12  C   UNL     1       6.768   3.559  13.885  0.00  0.00    +0.000 C 
BRANCH  12  13
ATOM     13  C   UNL     1       6.695   4.474  12.670  0.00  0.00    +0.000 C 
BRANCH  13  14
ATOM     14  C   UNL     1       7.766   5.537  12.710  0.00  0.00    +0.000 C 
ATOM     15  O   UNL     1       8.083   6.255  11.774  0.00  0.00    +0.000 OA
BRANCH  14  16
ATOM     16  O   UNL     1       8.366   5.622  13.920  0.00  0.00    +0.000 OA
ATOM     17  H   UNL     1       9.236   5.180  13.961  0.00  0.00    +0.000 HD
ENDBRANCH  14  16
ENDBRANCH  13  14
ENDBRANCH  12  13
ENDBRANCH  10  12
ENDBRANCH   5   8
ENDBRANCH   1   2
BRANCH   1  18
ATOM     18  N   UNL     1       2.373   7.046  20.570  0.00  0.00    +0.000 N 
ATOM     19  H   UNL     1       3.305   7.356  20.312  0.00  0.00    +0.000 HD
BRANCH  18  20
ATOM     20  C   UNL     1       1.488   8.117  20.701  0.00  0.00    +0.000 A 
ATOM     21  C   UNL     1       1.178   8.872  19.565  0.00  0.00    +0.000 A 
ATOM     22  C   UNL     1       0.362  10.005  19.639  0.00  0.00    +0.000 A 
ATOM     23  C   UNL     1      -0.126  10.398  20.880  0.00  0.00    +0.000 A 
ATOM     24  N   UNL     1      -0.979  11.546  20.956  0.00  0.00    +0.000 N 
ATOM     25  C   UNL     1      -1.494  12.106  22.109  0.00  0.00    +0.000 A 
ATOM     26  C   UNL     1      -2.308  13.156  21.736  0.00  0.00    +0.000 A 
ATOM     27  C   UNL     1      -2.215  13.164  20.328  0.00  0.00    +0.000 A 
ATOM     28  N   UNL     1      -1.403  12.218  19.848  0.00  0.00    +0.000 NA
ATOM     29  N   UNL     1       0.180   9.724  22.021  0.00  0.00    +0.000 NA
ATOM     30  C   UNL     1       0.976   8.621  21.899  0.00  0.00    +0.000 A 
BRANCH  26  31
ATOM     31  C   UNL     1      -3.071  14.025  22.617  0.00  0.00    +0.000 A 
ATOM     32  C   UNL     1      -4.440  14.228  22.462  0.00  0.00    +0.000 A 
ATOM     33  C   UNL     1      -5.101  15.077  23.347  0.00  0.00    +0.000 A 
ATOM     34  C   UNL     1      -4.384  15.700  24.359  0.00  0.00    +0.000 A 
ATOM     35  C   UNL     1      -3.026  15.444  24.446  0.00  0.00    +0.000 A 
ATOM     36  N   UNL     1      -2.357  14.626  23.602  0.00  0.00    +0.000 NA
ENDBRANCH  26  31
ENDBRANCH  18  20
ENDBRANCH   1  18
BRANCH   1  37
ATOM     37  C   UNL     1       1.852   4.665  20.999  0.00  0.00    +0.000 C 
BRANCH  37  39
ATOM     38  C   UNL     1       1.839   2.311  20.140  0.00  0.00    +0.000 C 
ATOM     39  C   UNL     1       0.973   3.487  20.580  0.00  0.00    +0.000 C 
ENDBRANCH  37  39
ENDBRANCH   1  37
TORSDOF 11
ENDMDL
MODEL 9
REMARK VINA RESULT:      -7.7      6.379      9.041
REMARK  Name = 
REMARK  12 active torsions:
REMARK  status: ('A' for Active; 'I' for Inactive)
REMARK    1  A    between atoms: C_1  and  C_2
REMARK    2  A    between atoms: C_2  and  C_3
REMARK    3  A    between atoms: C_3  and  C_4
REMARK    4  A    between atoms: C_4  and  N_5
REMARK    5  A    between atoms: C_4  and  C_23
REMARK    6  A    between atoms: N_5  and  C_6
REMARK    7  A    between atoms: C_12  and  C_13
REMARK    8  A    between atoms: C_26  and  C_27
REMARK    9  A    between atoms: N_29  and  C_30
REMARK   10  A    between atoms: C_30  and  C_31
REMARK   11  A    between atoms: C_31  and  C_32
REMARK   12  A    between atoms: C_32  and  O_34
REMARK                            x       y       z     vdW  Elec       q    Type
REMARK                         _______ _______ _______ _____ _____    ______ ____
ROOT
ATOM      1  C   UNL     1       0.005  11.516  18.575  0.00  0.00    +0.000 C 
ENDROOT
BRANCH   1   2
ATOM      2  C   UNL     1       0.757  10.222  18.904  0.00  0.00    +0.000 A 
ATOM      3  C   UNL     1       1.530   9.572  17.932  0.00  0.00    +0.000 A 
ATOM      4  C   UNL     1       2.139   8.338  18.207  0.00  0.00    +0.000 A 
ATOM      5  C   UNL     1       1.984   7.735  19.463  0.00  0.00    +0.000 A 
ATOM      6  C   UNL     1       1.242   8.391  20.448  0.00  0.00    +0.000 A 
ATOM      7  C   UNL     1       0.642   9.620  20.173  0.00  0.00    +0.000 A 
BRANCH   5   8
ATOM      8  C   UNL     1       2.610   6.428  19.817  0.00  0.00    +0.000 C 
ATOM      9  O   UNL     1       3.648   6.071  19.262  0.00  0.00    +0.000 OA
ATOM     10  N   UNL     1       1.984   5.691  20.802  0.00  0.00    +0.000 N 
ATOM     11  H   UNL     1       1.274   6.118  21.396  0.00  0.00    +0.000 HD
BRANCH  10  12
ATOM     12  C   UNL     1       2.504   4.409  21.242  0.00  0.00    +0.000 C 
BRANCH  12  13
ATOM     13  C   UNL     1       1.613   3.236  20.852  0.00  0.00    +0.000 C 
BRANCH  13  14
ATOM     14  C   UNL     1       2.065   2.602  19.559  0.00  0.00    +0.000 C 
ATOM     15  O   UNL     1       1.500   1.682  18.989  0.00  0.00    +0.000 OA
BRANCH  14  16
ATOM     16  O   UNL     1       3.196   3.165  19.073  0.00  0.00    +0.000 OA
ATOM     17  H   UNL     1       3.694   3.685  19.734  0.00  0.00    +0.000 HD
ENDBRANCH  14  16
ENDBRANCH  13  14
ENDBRANCH  12  13
ENDBRANCH  10  12
ENDBRANCH   5   8
ENDBRANCH   1   2
BRANCH   1  18
ATOM     18  N   UNL     1       0.375  12.563  19.533  0.00  0.00    +0.000 N 
ATOM     19  H   UNL     1       0.023  12.365  20.465  0.00  0.00    +0.000 HD
BRANCH  18  20
ATOM     20  C   UNL     1       1.630  13.172  19.572  0.00  0.00    +0.000 A 
ATOM     21  C   UNL     1       2.109  13.638  20.801  0.00  0.00    +0.000 A 
ATOM     22  C   UNL     1       3.321  14.328  20.900  0.00  0.00    +0.000 A 
ATOM     23  C   UNL     1       4.048  14.573  19.741  0.00  0.00    +0.000 A 
ATOM     24  N   UNL     1       5.301  15.261  19.842  0.00  0.00    +0.000 N 
ATOM     25  C   UNL     1       6.112  15.639  18.790  0.00  0.00    +0.000 A 
ATOM     26  C   UNL     1       7.245  16.220  19.323  0.00  0.00    +0.000 A 
ATOM     27  C   UNL     1       7.024  16.159  20.715  0.00  0.00    +0.000 A 
ATOM     28  N   UNL     1       5.851  15.607  21.040  0.00  0.00    +0.000 NA
ATOM     29  N   UNL     1       3.606  14.179  18.516  0.00  0.00    +0.000 NA
ATOM     30  C   UNL     1       2.419  13.504  18.469  0.00  0.00    +0.000 A 
BRANCH  26  31
ATOM     31  C   UNL     1       8.380  16.754  18.589  0.00  0.00    +0.000 A 
ATOM     32  C   UNL     1       9.205  15.951  17.804  0.00  0.00    +0.000 A 
ATOM     33  C   UNL     1      10.275  16.537  17.131  0.00  0.00    +0.000 A 
ATOM     34  C   UNL     1      10.494  17.902  17.258  0.00  0.00    +0.000 A 
ATOM     35  C   UNL     1       9.628  18.629  18.056  0.00  0.00    +0.000 A 
ATOM     36  N   UNL     1       8.582  18.089  18.721  0.00  0.00    +0.000 NA
ENDBRANCH  26  31
ENDBRANCH  18  20
ENDBRANCH   1  18
BRANCH   1  37
ATOM     37  C   UNL     1      -1.514  11.220  18.665  0.00  0.00    +0.000 C 
BRANCH  37  39
ATOM     38  C   UNL     1      -3.568  10.240  17.615  0.00  0.00    +0.000 C 
ATOM     39  C   UNL     1      -2.042  10.216  17.642  0.00  0.00    +0.000 C 
ENDBRANCH  37  39
ENDBRANCH   1  37
TORSDOF 11
ENDMDL
