MODEL 1
REMARK VINA RESULT:      -6.4      0.000      0.000
REMARK  Name = 
REMARK  18 active torsions:
REMARK  status: ('A' for Active; 'I' for Inactive)
REMARK    1  A    between atoms: C_1  and  C_2
REMARK    2  A    between atoms: C_2  and  C_3
REMARK    3  A    between atoms: C_3  and  C_4
REMARK    4  A    between atoms: C_4  and  C_5
REMARK    5  A    between atoms: C_5  and  C_6
REMARK    6  A    between atoms: C_8  and  O_9
REMARK    7  A    between atoms: C_11  and  O_12
REMARK    8  A    between atoms: O_12  and  C_13
REMARK    9  A    between atoms: C_13  and  C_14
REMARK   10  A    between atoms: C_14  and  C_15
REMARK   11  A    between atoms: C_15  and  C_16
REMARK   12  A    between atoms: C_16  and  C_17
REMARK   13  A    between atoms: C_17  and  C_18
REMARK   14  A    between atoms: C_18  and  C_19
REMARK   15  A    between atoms: C_19  and  C_20
REMARK   16  A    between atoms: N_22  and  C_23
REMARK   17  A    between atoms: C_23  and  C_24
REMARK   18  A    between atoms: C_24  and  O_25
REMARK                            x       y       z     vdW  Elec       q    Type
REMARK                         _______ _______ _______ _____ _____    ______ ____
ROOT
ATOM      1  C   UNL     1       7.529   5.830  19.195  0.00  0.00    +0.000 C 
ENDROOT
BRANCH   1   2
ATOM      2  C   UNL     1       8.384   7.034  18.821  0.00  0.00    +0.000 C 
BRANCH   2   3
ATOM      3  C   UNL     1       7.728   7.855  17.709  0.00  0.00    +0.000 C 
BRANCH   3   4
ATOM      4  C   UNL     1       7.984   9.351  17.889  0.00  0.00    +0.000 C 
BRANCH   4   5
ATOM      5  C   UNL     1       9.141   9.618  18.846  0.00  0.00    +0.000 C 
BRANCH   5   6
ATOM      6  C   UNL     1       9.209  11.100  19.199  0.00  0.00    +0.000 C 
BRANCH   6   7
ATOM      7  C   UNL     1       8.938  12.004  17.996  0.00  0.00    +0.000 C 
BRANCH   7   8
ATOM      8  C   UNL     1      10.127  12.898  17.723  0.00  0.00    +0.000 C 
ATOM      9  O   UNL     1      11.139  12.507  17.130  0.00  0.00    +0.000 OA
ATOM     10  N   UNL     1      10.008  14.188  18.178  0.00  0.00    +0.000 N 
ATOM     11  H   UNL     1       9.143  14.493  18.615  0.00  0.00    +0.000 HD
BRANCH  10  12
ATOM     12  C   UNL     1      11.098  15.136  17.995  0.00  0.00    +0.000 C 
BRANCH  12  13
ATOM     13  C   UNL     1      10.735  16.273  17.037  0.00  0.00    +0.000 C 
BRANCH  13  14
ATOM     14  O   UNL     1      10.802  15.835  15.680  0.00  0.00    +0.000 OA
ATOM     15  H   UNL     1      10.069  16.267  15.208  0.00  0.00    +0.000 HD
ENDBRANCH  13  14
ENDBRANCH  12  13
ENDBRANCH  10  12
ENDBRANCH   7   8
ENDBRANCH   6   7
ENDBRANCH   5   6
ENDBRANCH   4   5
ENDBRANCH   3   4
ENDBRANCH   2   3
ENDBRANCH   1   2
BRANCH   1  16
ATOM     16  O   UNL     1       7.801   4.742  18.314  0.00  0.00    +0.000 OA
BRANCH  16  21
ATOM     17  C   UNL     1       4.587   3.948  16.621  0.00  0.00    +0.000 A 
ATOM     18  C   UNL     1       4.998   4.077  15.291  0.00  0.00    +0.000 A 
ATOM     19  C   UNL     1       6.317   4.406  15.009  0.00  0.00    +0.000 A 
ATOM     20  C   UNL     1       7.235   4.620  16.037  0.00  0.00    +0.000 A 
ATOM     21  C   UNL     1       6.837   4.498  17.370  0.00  0.00    +0.000 A 
ATOM     22  C   UNL     1       5.512   4.158  17.651  0.00  0.00    +0.000 A 
BRANCH  19  23
ATOM     23  O   UNL     1       6.744   4.536  13.722  0.00  0.00    +0.000 OA
ATOM     24  H   UNL     1       7.111   3.680  13.428  0.00  0.00    +0.000 HD
ENDBRANCH  19  23
BRANCH  17  25
ATOM     25  C   UNL     1       3.162   3.616  16.963  0.00  0.00    +0.000 C 
BRANCH  25  26
ATOM     26  C   UNL     1       2.889   3.823  18.451  0.00  0.00    +0.000 C 
BRANCH  26  27
ATOM     27  C   UNL     1       2.213   5.166  18.685  0.00  0.00    +0.000 C 
BRANCH  27  29
ATOM     28  C   UNL     1       1.630   6.773  20.511  0.00  0.00    +0.000 C 
ATOM     29  C   UNL     1       2.660   5.779  20.007  0.00  0.00    +0.000 C 
ENDBRANCH  27  29
ENDBRANCH  26  27
ENDBRANCH  25  26
ENDBRANCH  17  25
ENDBRANCH  16  21
ENDBRANCH   1  16
TORSDOF 17
ENDMDL
MODEL 2
REMARK VINA RESULT:      -6.3      5.931      9.015
REMARK  Name = 
REMARK  18 active torsions:
REMARK  status: ('A' for Active; 'I' for Inactive)
REMARK    1  A    between atoms: C_1  and  C_2
REMARK    2  A    between atoms: C_2  and  C_3
REMARK    3  A    between atoms: C_3  and  C_4
REMARK    4  A    between atoms: C_4  and  C_5
REMARK    5  A    between atoms: C_5  and  C_6
REMARK    6  A    between atoms: C_8  and  O_9
REMARK    7  A    between atoms: C_11  and  O_12
REMARK    8  A    between atoms: O_12  and  C_13
REMARK    9  A    between atoms: C_13  and  C_14
REMARK   10  A    between atoms: C_14  and  C_15
REMARK   11  A    between atoms: C_15  and  C_16
REMARK   12  A    between atoms: C_16  and  C_17
REMARK   13  A    between atoms: C_17  and  C_18
REMARK   14  A    between atoms: C_18  and  C_19
REMARK   15  A    between atoms: C_19  and  C_20
REMARK   16  A    between atoms: N_22  and  C_23
REMARK   17  A    between atoms: C_23  and  C_24
REMARK   18  A    between atoms: C_24  and  O_25
REMARK                            x       y       z     vdW  Elec       q    Type
REMARK                         _______ _______ _______ _____ _____    ______ ____
ROOT
ATOM      1  C   UNL     1       3.879   6.870  18.155  0.00  0.00    +0.000 C 
ENDROOT
BRANCH   1   2
ATOM      2  C   UNL     1       2.355   6.862  18.171  0.00  0.00    +0.000 C 
BRANCH   2   3
ATOM      3  C   UNL     1       1.813   5.487  18.567  0.00  0.00    +0.000 C 
BRANCH   3   4
ATOM      4  C   UNL     1       1.829   5.292  20.083  0.00  0.00    +0.000 C 
BRANCH   4   5
ATOM      5  C   UNL     1       0.785   4.277  20.535  0.00  0.00    +0.000 C 
BRANCH   5   6
ATOM      6  C   UNL     1       1.460   3.062  21.164  0.00  0.00    +0.000 C 
BRANCH   6   7
ATOM      7  C   UNL     1       2.967   3.251  21.339  0.00  0.00    +0.000 C 
BRANCH   7   8
ATOM      8  C   UNL     1       3.709   2.783  20.107  0.00  0.00    +0.000 C 
ATOM      9  O   UNL     1       4.899   3.047  19.898  0.00  0.00    +0.000 OA
ATOM     10  N   UNL     1       2.969   2.035  19.226  0.00  0.00    +0.000 N 
ATOM     11  H   UNL     1       2.009   1.791  19.450  0.00  0.00    +0.000 HD
BRANCH  10  12
ATOM     12  C   UNL     1       3.567   1.547  17.991  0.00  0.00    +0.000 C 
BRANCH  12  13
ATOM     13  C   UNL     1       3.611   2.614  16.895  0.00  0.00    +0.000 C 
BRANCH  13  14
ATOM     14  O   UNL     1       2.292   2.995  16.504  0.00  0.00    +0.000 OA
ATOM     15  H   UNL     1       1.821   3.251  17.316  0.00  0.00    +0.000 HD
ENDBRANCH  13  14
ENDBRANCH  12  13
ENDBRANCH  10  12
ENDBRANCH   7   8
ENDBRANCH   6   7
ENDBRANCH   5   6
ENDBRANCH   4   5
ENDBRANCH   3   4
ENDBRANCH   2   3
ENDBRANCH   1   2
BRANCH   1  16
ATOM     16  O   UNL     1       4.355   6.975  16.814  0.00  0.00    +0.000 OA
BRANCH  16  21
ATOM     17  C   UNL     1       6.264   4.462  14.847  0.00  0.00    +0.000 A 
ATOM     18  C   UNL     1       7.169   4.051  15.829  0.00  0.00    +0.000 A 
ATOM     19  C   UNL     1       7.103   4.608  17.100  0.00  0.00    +0.000 A 
ATOM     20  C   UNL     1       6.152   5.581  17.405  0.00  0.00    +0.000 A 
ATOM     21  C   UNL     1       5.244   6.004  16.431  0.00  0.00    +0.000 A 
ATOM     22  C   UNL     1       5.306   5.436  15.157  0.00  0.00    +0.000 A 
BRANCH  19  23
ATOM     23  O   UNL     1       7.973   4.223  18.076  0.00  0.00    +0.000 OA
ATOM     24  H   UNL     1       7.767   3.303  18.330  0.00  0.00    +0.000 HD
ENDBRANCH  19  23
BRANCH  17  25
ATOM     25  C   UNL     1       6.321   3.898  13.455  0.00  0.00    +0.000 C 
BRANCH  25  26
ATOM     26  C   UNL     1       4.948   3.935  12.788  0.00  0.00    +0.000 C 
BRANCH  26  27
ATOM     27  C   UNL     1       4.948   3.090  11.523  0.00  0.00    +0.000 C 
BRANCH  27  29
ATOM     28  C   UNL     1       3.248   4.083   9.982  0.00  0.00    +0.000 C 
ATOM     29  C   UNL     1       3.540   2.957  10.955  0.00  0.00    +0.000 C 
ENDBRANCH  27  29
ENDBRANCH  26  27
ENDBRANCH  25  26
ENDBRANCH  17  25
ENDBRANCH  16  21
ENDBRANCH   1  16
TORSDOF 17
ENDMDL
MODEL 3
REMARK VINA RESULT:      -6.2      6.211      8.986
REMARK  Name = 
REMARK  18 active torsions:
REMARK  status: ('A' for Active; 'I' for Inactive)
REMARK    1  A    between atoms: C_1  and  C_2
REMARK    2  A    between atoms: C_2  and  C_3
REMARK    3  A    between atoms: C_3  and  C_4
REMARK    4  A    between atoms: C_4  and  C_5
REMARK    5  A    between atoms: C_5  and  C_6
REMARK    6  A    between atoms: C_8  and  O_9
REMARK    7  A    between atoms: C_11  and  O_12
REMARK    8  A    between atoms: O_12  and  C_13
REMARK    9  A    between atoms: C_13  and  C_14
REMARK   10  A    between atoms: C_14  and  C_15
REMARK   11  A    between atoms: C_15  and  C_16
REMARK   12  A    between atoms: C_16  and  C_17
REMARK   13  A    between atoms: C_17  and  C_18
REMARK   14  A    between atoms: C_18  and  C_19
REMARK   15  A    between atoms: C_19  and  C_20
REMARK   16  A    between atoms: N_22  and  C_23
REMARK   17  A    between atoms: C_23  and  C_24
REMARK   18  A    between atoms: C_24  and  O_25
REMARK                            x       y       z     vdW  Elec       q    Type
REMARK                         _______ _______ _______ _____ _____    ______ ____
ROOT
ATOM      1  C   UNL     1       2.163   8.981  17.816  0.00  0.00    +0.000 C 
ENDROOT
BRANCH   1   2
ATOM      2  C   UNL     1       1.596  10.103  18.677  0.00  0.00    +0.000 C 
BRANCH   2   3
ATOM      3  C   UNL     1       0.086   9.945  18.868  0.00  0.00    +0.000 C 
BRANCH   3   4
ATOM      4  C   UNL     1      -0.273   9.696  20.333  0.00  0.00    +0.000 C 
BRANCH   4   5
ATOM      5  C   UNL     1       0.960   9.717  21.230  0.00  0.00    +0.000 C 
BRANCH   5   6
ATOM      6  C   UNL     1       0.551   9.861  22.693  0.00  0.00    +0.000 C 
BRANCH   6   7
ATOM      7  C   UNL     1      -0.963   9.971  22.873  0.00  0.00    +0.000 C 
BRANCH   7   8
ATOM      8  C   UNL     1      -1.367  11.407  23.125  0.00  0.00    +0.000 C 
ATOM      9  O   UNL     1      -0.576  12.353  23.034  0.00  0.00    +0.000 OA
ATOM     10  N   UNL     1      -2.684  11.594  23.463  0.00  0.00    +0.000 N 
ATOM     11  H   UNL     1      -3.321  10.803  23.478  0.00  0.00    +0.000 HD
BRANCH  10  12
ATOM     12  C   UNL     1      -3.186  12.930  23.752  0.00  0.00    +0.000 C 
BRANCH  12  13
ATOM     13  C   UNL     1      -4.646  12.925  24.209  0.00  0.00    +0.000 C 
BRANCH  13  14
ATOM     14  O   UNL     1      -4.950  11.730  24.928  0.00  0.00    +0.000 OA
ATOM     15  H   UNL     1      -4.405  11.740  25.734  0.00  0.00    +0.000 HD
ENDBRANCH  13  14
ENDBRANCH  12  13
ENDBRANCH  10  12
ENDBRANCH   7   8
ENDBRANCH   6   7
ENDBRANCH   5   6
ENDBRANCH   4   5
ENDBRANCH   3   4
ENDBRANCH   2   3
ENDBRANCH   1   2
BRANCH   1  16
ATOM     16  O   UNL     1       2.150   7.752  18.539  0.00  0.00    +0.000 OA
BRANCH  16  21
ATOM     17  C   UNL     1       3.372   4.435  17.386  0.00  0.00    +0.000 A 
ATOM     18  C   UNL     1       4.572   4.833  16.791  0.00  0.00    +0.000 A 
ATOM     19  C   UNL     1       4.934   6.174  16.807  0.00  0.00    +0.000 A 
ATOM     20  C   UNL     1       4.109   7.129  17.400  0.00  0.00    +0.000 A 
ATOM     21  C   UNL     1       2.905   6.745  17.995  0.00  0.00    +0.000 A 
ATOM     22  C   UNL     1       2.548   5.395  17.986  0.00  0.00    +0.000 A 
BRANCH  19  23
ATOM     23  O   UNL     1       6.099   6.589  16.236  0.00  0.00    +0.000 OA
ATOM     24  H   UNL     1       6.821   6.012  16.550  0.00  0.00    +0.000 HD
ENDBRANCH  19  23
BRANCH  17  25
ATOM     25  C   UNL     1       2.937   2.995  17.367  0.00  0.00    +0.000 C 
BRANCH  25  26
ATOM     26  C   UNL     1       2.896   2.413  18.778  0.00  0.00    +0.000 C 
BRANCH  26  27
ATOM     27  C   UNL     1       1.458   2.162  19.208  0.00  0.00    +0.000 C 
BRANCH  27  29
ATOM     28  C   UNL     1       1.450   2.758  21.636  0.00  0.00    +0.000 C 
ATOM     29  C   UNL     1       1.013   3.183  20.247  0.00  0.00    +0.000 C 
ENDBRANCH  27  29
ENDBRANCH  26  27
ENDBRANCH  25  26
ENDBRANCH  17  25
ENDBRANCH  16  21
ENDBRANCH   1  16
TORSDOF 17
ENDMDL
MODEL 4
REMARK VINA RESULT:      -6.2      5.617      9.009
REMARK  Name = 
REMARK  18 active torsions:
REMARK  status: ('A' for Active; 'I' for Inactive)
REMARK    1  A    between atoms: C_1  and  C_2
REMARK    2  A    between atoms: C_2  and  C_3
REMARK    3  A    between atoms: C_3  and  C_4
REMARK    4  A    between atoms: C_4  and  C_5
REMARK    5  A    between atoms: C_5  and  C_6
REMARK    6  A    between atoms: C_8  and  O_9
REMARK    7  A    between atoms: C_11  and  O_12
REMARK    8  A    between atoms: O_12  and  C_13
REMARK    9  A    between atoms: C_13  and  C_14
REMARK   10  A    between atoms: C_14  and  C_15
REMARK   11  A    between atoms: C_15  and  C_16
REMARK   12  A    between atoms: C_16  and  C_17
REMARK   13  A    between atoms: C_17  and  C_18
REMARK   14  A    between atoms: C_18  and  C_19
REMARK   15  A    between atoms: C_19  and  C_20
REMARK   16  A    between atoms: N_22  and  C_23
REMARK   17  A    between atoms: C_23  and  C_24
REMARK   18  A    between atoms: C_24  and  O_25
REMARK                            x       y       z     vdW  Elec       q    Type
REMARK                         _______ _______ _______ _____ _____    ______ ____
ROOT
ATOM      1  C   UNL     1       2.104   5.620  20.825  0.00  0.00    +0.000 C 
ENDROOT
BRANCH   1   2
ATOM      2  C   UNL     1       1.060   4.587  20.420  0.00  0.00    +0.000 C 
BRANCH   2   3
ATOM      3  C   UNL     1       1.261   4.134  18.972  0.00  0.00    +0.000 C 
BRANCH   3   4
ATOM      4  C   UNL     1       1.146   2.617  18.836  0.00  0.00    +0.000 C 
BRANCH   4   5
ATOM      5  C   UNL     1       2.472   1.919  19.121  0.00  0.00    +0.000 C 
BRANCH   5   6
ATOM      6  C   UNL     1       3.612   2.626  18.394  0.00  0.00    +0.000 C 
BRANCH   6   7
ATOM      7  C   UNL     1       4.628   3.245  19.354  0.00  0.00    +0.000 C 
BRANCH   7   8
ATOM      8  C   UNL     1       5.359   4.390  18.689  0.00  0.00    +0.000 C 
ATOM      9  O   UNL     1       6.592   4.470  18.653  0.00  0.00    +0.000 OA
ATOM     10  N   UNL     1       4.555   5.347  18.120  0.00  0.00    +0.000 N 
ATOM     11  H   UNL     1       3.547   5.227  18.121  0.00  0.00    +0.000 HD
BRANCH  10  12
ATOM     12  C   UNL     1       5.143   6.511  17.471  0.00  0.00    +0.000 C 
BRANCH  12  13
ATOM     13  C   UNL     1       5.201   6.370  15.949  0.00  0.00    +0.000 C 
BRANCH  13  14
ATOM     14  O   UNL     1       6.181   5.406  15.564  0.00  0.00    +0.000 OA
ATOM     15  H   UNL     1       6.072   5.261  14.608  0.00  0.00    +0.000 HD
ENDBRANCH  13  14
ENDBRANCH  12  13
ENDBRANCH  10  12
ENDBRANCH   7   8
ENDBRANCH   6   7
ENDBRANCH   5   6
ENDBRANCH   4   5
ENDBRANCH   3   4
ENDBRANCH   2   3
ENDBRANCH   1   2
BRANCH   1  16
ATOM     16  O   UNL     1       2.243   6.605  19.802  0.00  0.00    +0.000 OA
BRANCH  16  21
ATOM     17  C   UNL     1       0.852  10.046  19.574  0.00  0.00    +0.000 A 
ATOM     18  C   UNL     1       0.679  10.307  20.936  0.00  0.00    +0.000 A 
ATOM     19  C   UNL     1       1.040   9.346  21.871  0.00  0.00    +0.000 A 
ATOM     20  C   UNL     1       1.563   8.118  21.467  0.00  0.00    +0.000 A 
ATOM     21  C   UNL     1       1.738   7.842  20.109  0.00  0.00    +0.000 A 
ATOM     22  C   UNL     1       1.383   8.814  19.171  0.00  0.00    +0.000 A 
BRANCH  19  23
ATOM     23  O   UNL     1       0.883   9.576  23.205  0.00  0.00    +0.000 OA
ATOM     24  H   UNL     1       0.860   8.716  23.667  0.00  0.00    +0.000 HD
ENDBRANCH  19  23
BRANCH  17  25
ATOM     25  C   UNL     1       0.451  11.054  18.534  0.00  0.00    +0.000 C 
BRANCH  25  26
ATOM     26  C   UNL     1      -1.057  11.286  18.542  0.00  0.00    +0.000 C 
BRANCH  26  27
ATOM     27  C   UNL     1      -1.756  10.274  17.645  0.00  0.00    +0.000 C 
BRANCH  27  29
ATOM     28  C   UNL     1      -2.779  10.333  15.364  0.00  0.00    +0.000 C 
ATOM     29  C   UNL     1      -2.781  10.956  16.748  0.00  0.00    +0.000 C 
ENDBRANCH  27  29
ENDBRANCH  26  27
ENDBRANCH  25  26
ENDBRANCH  17  25
ENDBRANCH  16  21
ENDBRANCH   1  16
TORSDOF 17
ENDMDL
MODEL 5
REMARK VINA RESULT:      -6.1      5.918      9.934
REMARK  Name = 
REMARK  18 active torsions:
REMARK  status: ('A' for Active; 'I' for Inactive)
REMARK    1  A    between atoms: C_1  and  C_2
REMARK    2  A    between atoms: C_2  and  C_3
REMARK    3  A    between atoms: C_3  and  C_4
REMARK    4  A    between atoms: C_4  and  C_5
REMARK    5  A    between atoms: C_5  and  C_6
REMARK    6  A    between atoms: C_8  and  O_9
REMARK    7  A    between atoms: C_11  and  O_12
REMARK    8  A    between atoms: O_12  and  C_13
REMARK    9  A    between atoms: C_13  and  C_14
REMARK   10  A    between atoms: C_14  and  C_15
REMARK   11  A    between atoms: C_15  and  C_16
REMARK   12  A    between atoms: C_16  and  C_17
REMARK   13  A    between atoms: C_17  and  C_18
REMARK   14  A    between atoms: C_18  and  C_19
REMARK   15  A    between atoms: C_19  and  C_20
REMARK   16  A    between atoms: N_22  and  C_23
REMARK   17  A    between atoms: C_23  and  C_24
REMARK   18  A    between atoms: C_24  and  O_25
REMARK                            x       y       z     vdW  Elec       q    Type
REMARK                         _______ _______ _______ _____ _____    ______ ____
ROOT
ATOM      1  C   UNL     1       2.201   7.246  19.963  0.00  0.00    +0.000 C 
ENDROOT
BRANCH   1   2
ATOM      2  C   UNL     1       2.464   5.746  19.937  0.00  0.00    +0.000 C 
BRANCH   2   3
ATOM      3  C   UNL     1       1.267   4.965  20.484  0.00  0.00    +0.000 C 
BRANCH   3   4
ATOM      4  C   UNL     1       1.673   3.567  20.951  0.00  0.00    +0.000 C 
BRANCH   4   5
ATOM      5  C   UNL     1       1.389   2.510  19.889  0.00  0.00    +0.000 C 
BRANCH   5   6
ATOM      6  C   UNL     1       2.675   2.119  19.169  0.00  0.00    +0.000 C 
BRANCH   6   7
ATOM      7  C   UNL     1       2.705   2.596  17.717  0.00  0.00    +0.000 C 
BRANCH   7   8
ATOM      8  C   UNL     1       3.890   3.507  17.479  0.00  0.00    +0.000 C 
ATOM      9  O   UNL     1       3.967   4.268  16.509  0.00  0.00    +0.000 OA
ATOM     10  N   UNL     1       4.884   3.433  18.423  0.00  0.00    +0.000 N 
ATOM     11  H   UNL     1       4.767   2.835  19.236  0.00  0.00    +0.000 HD
BRANCH  10  12
ATOM     12  C   UNL     1       6.086   4.245  18.290  0.00  0.00    +0.000 C 
BRANCH  12  13
ATOM     13  C   UNL     1       6.130   5.400  19.292  0.00  0.00    +0.000 C 
BRANCH  13  14
ATOM     14  O   UNL     1       7.370   5.414  19.998  0.00  0.00    +0.000 OA
ATOM     15  H   UNL     1       7.179   5.125  20.907  0.00  0.00    +0.000 HD
ENDBRANCH  13  14
ENDBRANCH  12  13
ENDBRANCH  10  12
ENDBRANCH   7   8
ENDBRANCH   6   7
ENDBRANCH   5   6
ENDBRANCH   4   5
ENDBRANCH   3   4
ENDBRANCH   2   3
ENDBRANCH   1   2
BRANCH   1  16
ATOM     16  O   UNL     1       1.432   7.591  21.113  0.00  0.00    +0.000 OA
BRANCH  16  21
ATOM     17  C   UNL     1      -0.245  10.654  19.837  0.00  0.00    +0.000 A 
ATOM     18  C   UNL     1      -0.717  11.172  21.047  0.00  0.00    +0.000 A 
ATOM     19  C   UNL     1      -0.451  10.497  22.231  0.00  0.00    +0.000 A 
ATOM     20  C   UNL     1       0.272   9.304  22.227  0.00  0.00    +0.000 A 
ATOM     21  C   UNL     1       0.745   8.774  21.025  0.00  0.00    +0.000 A 
ATOM     22  C   UNL     1       0.485   9.459  19.836  0.00  0.00    +0.000 A 
BRANCH  19  23
ATOM     23  O   UNL     1      -0.897  10.980  23.424  0.00  0.00    +0.000 OA
ATOM     24  H   UNL     1      -1.032  10.228  24.033  0.00  0.00    +0.000 HD
ENDBRANCH  19  23
BRANCH  17  25
ATOM     25  C   UNL     1      -0.534  11.345  18.533  0.00  0.00    +0.000 C 
BRANCH  25  26
ATOM     26  C   UNL     1      -2.036  11.447  18.283  0.00  0.00    +0.000 C 
BRANCH  26  27
ATOM     27  C   UNL     1      -2.396  10.819  16.944  0.00  0.00    +0.000 C 
BRANCH  27  29
ATOM     28  C   UNL     1      -4.717  10.989  17.859  0.00  0.00    +0.000 C 
ATOM     29  C   UNL     1      -3.863  11.056  16.607  0.00  0.00    +0.000 C 
ENDBRANCH  27  29
ENDBRANCH  26  27
ENDBRANCH  25  26
ENDBRANCH  17  25
ENDBRANCH  16  21
ENDBRANCH   1  16
TORSDOF 17
ENDMDL
MODEL 6
REMARK VINA RESULT:      -6.1      2.205      2.876
REMARK  Name = 
REMARK  18 active torsions:
REMARK  status: ('A' for Active; 'I' for Inactive)
REMARK    1  A    between atoms: C_1  and  C_2
REMARK    2  A    between atoms: C_2  and  C_3
REMARK    3  A    between atoms: C_3  and  C_4
REMARK    4  A    between atoms: C_4  and  C_5
REMARK    5  A    between atoms: C_5  and  C_6
REMARK    6  A    between atoms: C_8  and  O_9
REMARK    7  A    between atoms: C_11  and  O_12
REMARK    8  A    between atoms: O_12  and  C_13
REMARK    9  A    between atoms: C_13  and  C_14
REMARK   10  A    between atoms: C_14  and  C_15
REMARK   11  A    between atoms: C_15  and  C_16
REMARK   12  A    between atoms: C_16  and  C_17
REMARK   13  A    between atoms: C_17  and  C_18
REMARK   14  A    between atoms: C_18  and  C_19
REMARK   15  A    between atoms: C_19  and  C_20
REMARK   16  A    between atoms: N_22  and  C_23
REMARK   17  A    between atoms: C_23  and  C_24
REMARK   18  A    between atoms: C_24  and  O_25
REMARK                            x       y       z     vdW  Elec       q    Type
REMARK                         _______ _______ _______ _____ _____    ______ ____
ROOT
ATOM      1  C   UNL     1       7.178   7.853  17.222  0.00  0.00    +0.000 C 
ENDROOT
BRANCH   1   2
ATOM      2  C   UNL     1       8.299   8.214  18.188  0.00  0.00    +0.000 C 
BRANCH   2   3
ATOM      3  C   UNL     1       8.621   9.709  18.130  0.00  0.00    +0.000 C 
BRANCH   3   4
ATOM      4  C   UNL     1       9.254  10.199  19.432  0.00  0.00    +0.000 C 
BRANCH   4   5
ATOM      5  C   UNL     1      10.281  11.299  19.183  0.00  0.00    +0.000 C 
BRANCH   5   6
ATOM      6  C   UNL     1       9.927  12.083  17.924  0.00  0.00    +0.000 C 
BRANCH   6   7
ATOM      7  C   UNL     1      11.092  12.931  17.412  0.00  0.00    +0.000 C 
BRANCH   7   8
ATOM      8  C   UNL     1      10.743  14.402  17.460  0.00  0.00    +0.000 C 
ATOM      9  O   UNL     1      11.288  15.245  16.740  0.00  0.00    +0.000 OA
ATOM     10  N   UNL     1       9.768  14.743  18.365  0.00  0.00    +0.000 N 
ATOM     11  H   UNL     1       9.303  14.019  18.905  0.00  0.00    +0.000 HD
BRANCH  10  12
ATOM     12  C   UNL     1       9.363  16.133  18.520  0.00  0.00    +0.000 C 
BRANCH  12  13
ATOM     13  C   UNL     1       7.875  16.348  18.237  0.00  0.00    +0.000 C 
BRANCH  13  14
ATOM     14  O   UNL     1       7.529  17.728  18.352  0.00  0.00    +0.000 OA
ATOM     15  H   UNL     1       8.362  18.230  18.323  0.00  0.00    +0.000 HD
ENDBRANCH  13  14
ENDBRANCH  12  13
ENDBRANCH  10  12
ENDBRANCH   7   8
ENDBRANCH   6   7
ENDBRANCH   5   6
ENDBRANCH   4   5
ENDBRANCH   3   4
ENDBRANCH   2   3
ENDBRANCH   1   2
BRANCH   1  16
ATOM     16  O   UNL     1       7.018   6.436  17.164  0.00  0.00    +0.000 OA
BRANCH  16  21
ATOM     17  C   UNL     1       4.042   4.265  17.670  0.00  0.00    +0.000 A 
ATOM     18  C   UNL     1       3.072   5.255  17.855  0.00  0.00    +0.000 A 
ATOM     19  C   UNL     1       3.437   6.593  17.792  0.00  0.00    +0.000 A 
ATOM     20  C   UNL     1       4.761   6.962  17.556  0.00  0.00    +0.000 A 
ATOM     21  C   UNL     1       5.741   5.983  17.374  0.00  0.00    +0.000 A 
ATOM     22  C   UNL     1       5.370   4.638  17.428  0.00  0.00    +0.000 A 
BRANCH  19  23
ATOM     23  O   UNL     1       2.511   7.577  17.967  0.00  0.00    +0.000 OA
ATOM     24  H   UNL     1       2.004   7.677  17.139  0.00  0.00    +0.000 HD
ENDBRANCH  19  23
BRANCH  17  25
ATOM     25  C   UNL     1       3.687   2.807  17.754  0.00  0.00    +0.000 C 
BRANCH  25  26
ATOM     26  C   UNL     1       3.218   2.433  19.158  0.00  0.00    +0.000 C 
BRANCH  26  27
ATOM     27  C   UNL     1       1.757   2.009  19.135  0.00  0.00    +0.000 C 
BRANCH  27  29
ATOM     28  C   UNL     1       1.533   3.646  21.012  0.00  0.00    +0.000 C 
ATOM     29  C   UNL     1       0.870   3.071  19.774  0.00  0.00    +0.000 C 
ENDBRANCH  27  29
ENDBRANCH  26  27
ENDBRANCH  25  26
ENDBRANCH  17  25
ENDBRANCH  16  21
ENDBRANCH   1  16
TORSDOF 17
ENDMDL
MODEL 7
REMARK VINA RESULT:      -6.1      2.099      2.888
REMARK  Name = 
REMARK  18 active torsions:
REMARK  status: ('A' for Active; 'I' for Inactive)
REMARK    1  A    between atoms: C_1  and  C_2
REMARK    2  A    between atoms: C_2  and  C_3
REMARK    3  A    between atoms: C_3  and  C_4
REMARK    4  A    between atoms: C_4  and  C_5
REMARK    5  A    between atoms: C_5  and  C_6
REMARK    6  A    between atoms: C_8  and  O_9
REMARK    7  A    between atoms: C_11  and  O_12
REMARK    8  A    between atoms: O_12  and  C_13
REMARK    9  A    between atoms: C_13  and  C_14
REMARK   10  A    between atoms: C_14  and  C_15
REMARK   11  A    between atoms: C_15  and  C_16
REMARK   12  A    between atoms: C_16  and  C_17
REMARK   13  A    between atoms: C_17  and  C_18
REMARK   14  A    between atoms: C_18  and  C_19
REMARK   15  A    between atoms: C_19  and  C_20
REMARK   16  A    between atoms: N_22  and  C_23
REMARK   17  A    between atoms: C_23  and  C_24
REMARK   18  A    between atoms: C_24  and  O_25
REMARK                            x       y       z     vdW  Elec       q    Type
REMARK                         _______ _______ _______ _____ _____    ______ ____
ROOT
ATOM      1  C   UNL     1       6.500   8.032  17.434  0.00  0.00    +0.000 C 
ENDROOT
BRANCH   1   2
ATOM      2  C   UNL     1       8.023   8.035  17.397  0.00  0.00    +0.000 C 
BRANCH   2   3
ATOM      3  C   UNL     1       8.608   8.564  18.708  0.00  0.00    +0.000 C 
BRANCH   3   4
ATOM      4  C   UNL     1       8.989  10.040  18.599  0.00  0.00    +0.000 C 
BRANCH   4   5
ATOM      5  C   UNL     1       9.456  10.605  19.937  0.00  0.00    +0.000 C 
BRANCH   5   6
ATOM      6  C   UNL     1      10.596  11.596  19.726  0.00  0.00    +0.000 C 
BRANCH   6   7
ATOM      7  C   UNL     1      11.104  11.612  18.285  0.00  0.00    +0.000 C 
BRANCH   7   8
ATOM      8  C   UNL     1      10.706  12.897  17.593  0.00  0.00    +0.000 C 
ATOM      9  O   UNL     1      10.969  13.131  16.408  0.00  0.00    +0.000 OA
ATOM     10  N   UNL     1      10.024  13.795  18.375  0.00  0.00    +0.000 N 
ATOM     11  H   UNL     1       9.777  13.552  19.330  0.00  0.00    +0.000 HD
BRANCH  10  12
ATOM     12  C   UNL     1       9.608  15.079  17.828  0.00  0.00    +0.000 C 
BRANCH  12  13
ATOM     13  C   UNL     1      10.791  15.946  17.393  0.00  0.00    +0.000 C 
BRANCH  13  14
ATOM     14  O   UNL     1      10.815  16.099  15.974  0.00  0.00    +0.000 OA
ATOM     15  H   UNL     1      11.742  16.254  15.723  0.00  0.00    +0.000 HD
ENDBRANCH  13  14
ENDBRANCH  12  13
ENDBRANCH  10  12
ENDBRANCH   7   8
ENDBRANCH   6   7
ENDBRANCH   5   6
ENDBRANCH   4   5
ENDBRANCH   3   4
ENDBRANCH   2   3
ENDBRANCH   1   2
BRANCH   1  16
ATOM     16  O   UNL     1       5.992   6.927  16.688  0.00  0.00    +0.000 OA
BRANCH  16  21
ATOM     17  C   UNL     1       3.138   4.685  17.497  0.00  0.00    +0.000 A 
ATOM     18  C   UNL     1       2.282   5.618  18.090  0.00  0.00    +0.000 A 
ATOM     19  C   UNL     1       2.676   6.946  18.186  0.00  0.00    +0.000 A 
ATOM     20  C   UNL     1       3.920   7.359  17.707  0.00  0.00    +0.000 A 
ATOM     21  C   UNL     1       4.786   6.437  17.116  0.00  0.00    +0.000 A 
ATOM     22  C   UNL     1       4.384   5.103  17.012  0.00  0.00    +0.000 A 
BRANCH  19  23
ATOM     23  O   UNL     1       1.861   7.877  18.757  0.00  0.00    +0.000 OA
ATOM     24  H   UNL     1       1.278   8.245  18.066  0.00  0.00    +0.000 HD
ENDBRANCH  19  23
BRANCH  17  25
ATOM     25  C   UNL     1       2.754   3.235  17.397  0.00  0.00    +0.000 C 
BRANCH  25  26
ATOM     26  C   UNL     1       2.662   2.592  18.779  0.00  0.00    +0.000 C 
BRANCH  26  27
ATOM     27  C   UNL     1       1.211   2.502  19.228  0.00  0.00    +0.000 C 
BRANCH  27  29
ATOM     28  C   UNL     1       2.330   3.581  21.186  0.00  0.00    +0.000 C 
ATOM     29  C   UNL     1       1.066   2.905  20.690  0.00  0.00    +0.000 C 
ENDBRANCH  27  29
ENDBRANCH  26  27
ENDBRANCH  25  26
ENDBRANCH  17  25
ENDBRANCH  16  21
ENDBRANCH   1  16
TORSDOF 17
ENDMDL
MODEL 8
REMARK VINA RESULT:      -6.1      5.623      8.943
REMARK  Name = 
REMARK  18 active torsions:
REMARK  status: ('A' for Active; 'I' for Inactive)
REMARK    1  A    between atoms: C_1  and  C_2
REMARK    2  A    between atoms: C_2  and  C_3
REMARK    3  A    between atoms: C_3  and  C_4
REMARK    4  A    between atoms: C_4  and  C_5
REMARK    5  A    between atoms: C_5  and  C_6
REMARK    6  A    between atoms: C_8  and  O_9
REMARK    7  A    between atoms: C_11  and  O_12
REMARK    8  A    between atoms: O_12  and  C_13
REMARK    9  A    between atoms: C_13  and  C_14
REMARK   10  A    between atoms: C_14  and  C_15
REMARK   11  A    between atoms: C_15  and  C_16
REMARK   12  A    between atoms: C_16  and  C_17
REMARK   13  A    between atoms: C_17  and  C_18
REMARK   14  A    between atoms: C_18  and  C_19
REMARK   15  A    between atoms: C_19  and  C_20
REMARK   16  A    between atoms: N_22  and  C_23
REMARK   17  A    between atoms: C_23  and  C_24
REMARK   18  A    between atoms: C_24  and  O_25
REMARK                            x       y       z     vdW  Elec       q    Type
REMARK                         _______ _______ _______ _____ _____    ______ ____
ROOT
ATOM      1  C   UNL     1       1.720   5.350  20.388  0.00  0.00    +0.000 C 
ENDROOT
BRANCH   1   2
ATOM      2  C   UNL     1       2.101   4.292  21.416  0.00  0.00    +0.000 C 
BRANCH   2   3
ATOM      3  C   UNL     1       1.530   2.924  21.039  0.00  0.00    +0.000 C 
BRANCH   3   4
ATOM      4  C   UNL     1       0.566   3.022  19.857  0.00  0.00    +0.000 C 
BRANCH   4   5
ATOM      5  C   UNL     1       1.285   2.854  18.523  0.00  0.00    +0.000 C 
BRANCH   5   6
ATOM      6  C   UNL     1       2.379   1.797  18.637  0.00  0.00    +0.000 C 
BRANCH   6   7
ATOM      7  C   UNL     1       3.672   2.210  17.935  0.00  0.00    +0.000 C 
BRANCH   7   8
ATOM      8  C   UNL     1       4.528   3.058  18.850  0.00  0.00    +0.000 C 
ATOM      9  O   UNL     1       4.981   2.643  19.922  0.00  0.00    +0.000 OA
ATOM     10  N   UNL     1       4.775   4.333  18.405  0.00  0.00    +0.000 N 
ATOM     11  H   UNL     1       4.433   4.628  17.495  0.00  0.00    +0.000 HD
BRANCH  10  12
ATOM     12  C   UNL     1       5.568   5.252  19.210  0.00  0.00    +0.000 C 
BRANCH  12  13
ATOM     13  C   UNL     1       6.850   5.698  18.505  0.00  0.00    +0.000 C 
BRANCH  13  14
ATOM     14  O   UNL     1       7.900   4.753  18.713  0.00  0.00    +0.000 OA
ATOM     15  H   UNL     1       8.077   4.735  19.670  0.00  0.00    +0.000 HD
ENDBRANCH  13  14
ENDBRANCH  12  13
ENDBRANCH  10  12
ENDBRANCH   7   8
ENDBRANCH   6   7
ENDBRANCH   5   6
ENDBRANCH   4   5
ENDBRANCH   3   4
ENDBRANCH   2   3
ENDBRANCH   1   2
BRANCH   1  16
ATOM     16  O   UNL     1       1.810   6.652  20.966  0.00  0.00    +0.000 OA
BRANCH  16  21
ATOM     17  C   UNL     1       1.071   9.920  19.353  0.00  0.00    +0.000 A 
ATOM     18  C   UNL     1       1.736   9.726  18.140  0.00  0.00    +0.000 A 
ATOM     19  C   UNL     1       2.388   8.523  17.899  0.00  0.00    +0.000 A 
ATOM     20  C   UNL     1       2.396   7.511  18.858  0.00  0.00    +0.000 A 
ATOM     21  C   UNL     1       1.738   7.692  20.077  0.00  0.00    +0.000 A 
ATOM     22  C   UNL     1       1.075   8.899  20.312  0.00  0.00    +0.000 A 
BRANCH  19  23
ATOM     23  O   UNL     1       3.043   8.308  16.724  0.00  0.00    +0.000 OA
ATOM     24  H   UNL     1       2.441   7.841  16.114  0.00  0.00    +0.000 HD
ENDBRANCH  19  23
BRANCH  17  25
ATOM     25  C   UNL     1       0.374  11.217  19.657  0.00  0.00    +0.000 C 
BRANCH  25  26
ATOM     26  C   UNL     1       0.394  11.516  21.153  0.00  0.00    +0.000 C 
BRANCH  26  27
ATOM     27  C   UNL     1      -0.947  12.080  21.601  0.00  0.00    +0.000 C 
BRANCH  27  29
ATOM     28  C   UNL     1      -0.774  10.130  23.157  0.00  0.00    +0.000 C 
ATOM     29  C   UNL     1      -1.348  11.520  22.960  0.00  0.00    +0.000 C 
ENDBRANCH  27  29
ENDBRANCH  26  27
ENDBRANCH  25  26
ENDBRANCH  17  25
ENDBRANCH  16  21
ENDBRANCH   1  16
TORSDOF 17
ENDMDL
MODEL 9
REMARK VINA RESULT:      -6.0      5.447      8.916
REMARK  Name = 
REMARK  18 active torsions:
REMARK  status: ('A' for Active; 'I' for Inactive)
REMARK    1  A    between atoms: C_1  and  C_2
REMARK    2  A    between atoms: C_2  and  C_3
REMARK    3  A    between atoms: C_3  and  C_4
REMARK    4  A    between atoms: C_4  and  C_5
REMARK    5  A    between atoms: C_5  and  C_6
REMARK    6  A    between atoms: C_8  and  O_9
REMARK    7  A    between atoms: C_11  and  O_12
REMARK    8  A    between atoms: O_12  and  C_13
REMARK    9  A    between atoms: C_13  and  C_14
REMARK   10  A    between atoms: C_14  and  C_15
REMARK   11  A    between atoms: C_15  and  C_16
REMARK   12  A    between atoms: C_16  and  C_17
REMARK   13  A    between atoms: C_17  and  C_18
REMARK   14  A    between atoms: C_18  and  C_19
REMARK   15  A    between atoms: C_19  and  C_20
REMARK   16  A    between atoms: N_22  and  C_23
REMARK   17  A    between atoms: C_23  and  C_24
REMARK   18  A    between atoms: C_24  and  O_25
REMARK                            x       y       z     vdW  Elec       q    Type
REMARK                         _______ _______ _______ _____ _____    ______ ____
ROOT
ATOM      1  C   UNL     1       6.794   4.179  16.957  0.00  0.00    +0.000 C 
ENDROOT
BRANCH   1   2
ATOM      2  C   UNL     1       6.138   4.897  18.129  0.00  0.00    +0.000 C 
BRANCH   2   3
ATOM      3  C   UNL     1       6.219   6.416  17.964  0.00  0.00    +0.000 C 
BRANCH   3   4
ATOM      4  C   UNL     1       5.231   6.922  16.914  0.00  0.00    +0.000 C 
BRANCH   4   5
ATOM      5  C   UNL     1       3.872   7.250  17.524  0.00  0.00    +0.000 C 
BRANCH   5   6
ATOM      6  C   UNL     1       3.361   6.072  18.347  0.00  0.00    +0.000 C 
BRANCH   6   7
ATOM      7  C   UNL     1       2.000   5.566  17.869  0.00  0.00    +0.000 C 
BRANCH   7   8
ATOM      8  C   UNL     1       1.712   4.193  18.435  0.00  0.00    +0.000 C 
ATOM      9  O   UNL     1       0.932   3.396  17.902  0.00  0.00    +0.000 OA
ATOM     10  N   UNL     1       2.384   3.885  19.592  0.00  0.00    +0.000 N 
ATOM     11  H   UNL     1       3.057   4.540  19.977  0.00  0.00    +0.000 HD
BRANCH  10  12
ATOM     12  C   UNL     1       2.172   2.601  20.246  0.00  0.00    +0.000 C 
BRANCH  12  13
ATOM     13  C   UNL     1       2.363   2.672  21.762  0.00  0.00    +0.000 C 
BRANCH  13  14
ATOM     14  O   UNL     1       1.179   2.260  22.445  0.00  0.00    +0.000 OA
ATOM     15  H   UNL     1       0.433   2.703  22.005  0.00  0.00    +0.000 HD
ENDBRANCH  13  14
ENDBRANCH  12  13
ENDBRANCH  10  12
ENDBRANCH   7   8
ENDBRANCH   6   7
ENDBRANCH   5   6
ENDBRANCH   4   5
ENDBRANCH   3   4
ENDBRANCH   2   3
ENDBRANCH   1   2
BRANCH   1  16
ATOM     16  O   UNL     1       5.823   3.893  15.951  0.00  0.00    +0.000 OA
BRANCH  16  21
ATOM     17  C   UNL     1       6.100   3.866  12.243  0.00  0.00    +0.000 A 
ATOM     18  C   UNL     1       7.214   4.696  12.096  0.00  0.00    +0.000 A 
ATOM     19  C   UNL     1       7.834   5.218  13.223  0.00  0.00    +0.000 A 
ATOM     20  C   UNL     1       7.352   4.933  14.500  0.00  0.00    +0.000 A 
ATOM     21  C   UNL     1       6.237   4.107  14.662  0.00  0.00    +0.000 A 
ATOM     22  C   UNL     1       5.621   3.576  13.527  0.00  0.00    +0.000 A 
BRANCH  19  23
ATOM     23  O   UNL     1       8.923   6.029  13.108  0.00  0.00    +0.000 OA
ATOM     24  H   UNL     1       8.800   6.606  12.329  0.00  0.00    +0.000 HD
ENDBRANCH  19  23
BRANCH  17  25
ATOM     25  C   UNL     1       5.389   3.301  11.044  0.00  0.00    +0.000 C 
BRANCH  25  26
ATOM     26  C   UNL     1       4.021   2.743  11.425  0.00  0.00    +0.000 C 
BRANCH  26  27
ATOM     27  C   UNL     1       2.998   3.057  10.343  0.00  0.00    +0.000 C 
BRANCH  27  29
ATOM     28  C   UNL     1       2.126   4.979   9.001  0.00  0.00    +0.000 C 
ATOM     29  C   UNL     1       3.363   4.338   9.602  0.00  0.00    +0.000 C 
ENDBRANCH  27  29
ENDBRANCH  26  27
ENDBRANCH  25  26
ENDBRANCH  17  25
ENDBRANCH  16  21
ENDBRANCH   1  16
TORSDOF 17
ENDMDL
