MODEL 1
REMARK VINA RESULT:      -6.8      0.000      0.000
REMARK  Name = 
REMARK  11 active torsions:
REMARK  status: ('A' for Active; 'I' for Inactive)
REMARK    1  A    between atoms: C_1  and  C_2
REMARK    2  A    between atoms: C_2  and  N_3
REMARK    3  A    between atoms: N_3  and  C_4
REMARK    4  A    between atoms: C_7  and  S_8
REMARK    5  A    between atoms: S_8  and  N_11
REMARK    6  A    between atoms: N_11  and  C_12
REMARK    7  A    between atoms: C_12  and  C_13
REMARK    8  A    between atoms: C_13  and  N_14
REMARK    9  A    between atoms: N_14  and  C_15
REMARK   10  A    between atoms: N_14  and  C_16
REMARK   11  A    between atoms: C_18  and  N_19
REMARK                            x       y       z     vdW  Elec       q    Type
REMARK                         _______ _______ _______ _____ _____    ______ ____
ROOT
ATOM      1  C   UNL     1       2.820   4.709  18.515  0.00  0.00    +0.000 A 
ATOM      2  C   UNL     1       3.414   5.982  18.448  0.00  0.00    +0.000 A 
ATOM      3  C   UNL     1       4.639   6.200  17.803  0.00  0.00    +0.000 A 
ATOM      4  C   UNL     1       5.335   5.132  17.237  0.00  0.00    +0.000 A 
ATOM      5  C   UNL     1       4.820   3.841  17.325  0.00  0.00    +0.000 A 
ATOM      6  C   UNL     1       3.584   3.646  17.969  0.00  0.00    +0.000 A 
ENDROOT
BRANCH   4   7
ATOM      7  S   UNL     1       6.817   5.444  16.304  0.00  0.00    +0.000 S 
ATOM      8  O   UNL     1       7.094   6.860  16.425  0.00  0.00    +0.000 OA
ATOM      9  O   UNL     1       7.806   4.450  16.661  0.00  0.00    +0.000 OA
BRANCH   7  10
ATOM     10  N   UNL     1       6.342   5.176  14.721  0.00  0.00    +0.000 NA
ATOM     11  H   UNL     1       6.706   5.879  14.071  0.00  0.00    +0.000 HD
BRANCH  10  12
ATOM     12  C   UNL     1       6.378   3.793  14.214  0.00  0.00    +0.000 C 
BRANCH  12  13
ATOM     13  C   UNL     1       6.229   3.779  12.678  0.00  0.00    +0.000 C 
BRANCH  13  14
ATOM     14  N   UNL     1       5.348   2.717  12.134  0.00  0.00    +0.000 NA
ATOM     15  C   UNL     1       4.259   3.266  11.321  0.00  0.00    +0.000 C 
ATOM     16  C   UNL     1       6.149   1.803  11.305  0.00  0.00    +0.000 C 
ENDBRANCH  13  14
ENDBRANCH  12  13
ENDBRANCH  10  12
ENDBRANCH   7  10
ENDBRANCH   4   7
BRANCH   6  17
ATOM     17  N   UNL     1       3.068   2.291  18.010  0.00  0.00    +0.000 N 
ATOM     18  O   UNL     1       1.933   2.098  17.548  0.00  0.00    +0.000 OA
ATOM     19  O   UNL     1       3.806   1.418  18.492  0.00  0.00    +0.000 OA
ENDBRANCH   6  17
BRANCH   1  20
ATOM     20  N   UNL     1       1.619   4.499  19.221  0.00  0.00    +0.000 N 
ATOM     21  H   UNL     1       0.849   5.055  18.836  0.00  0.00    +0.000 HD
BRANCH  20  23
ATOM     22  C   UNL     1       1.789   3.210  21.297  0.00  0.00    +0.000 C 
ATOM     23  C   UNL     1       1.642   4.594  20.683  0.00  0.00    +0.000 C 
ENDBRANCH  20  23
ENDBRANCH   1  20
TORSDOF 8
ENDMDL
MODEL 2
REMARK VINA RESULT:      -6.7      1.154      1.474
REMARK  Name = 
REMARK  11 active torsions:
REMARK  status: ('A' for Active; 'I' for Inactive)
REMARK    1  A    between atoms: C_1  and  C_2
REMARK    2  A    between atoms: C_2  and  N_3
REMARK    3  A    between atoms: N_3  and  C_4
REMARK    4  A    between atoms: C_7  and  S_8
REMARK    5  A    between atoms: S_8  and  N_11
REMARK    6  A    between atoms: N_11  and  C_12
REMARK    7  A    between atoms: C_12  and  C_13
REMARK    8  A    between atoms: C_13  and  N_14
REMARK    9  A    between atoms: N_14  and  C_15
REMARK   10  A    between atoms: N_14  and  C_16
REMARK   11  A    between atoms: C_18  and  N_19
REMARK                            x       y       z     vdW  Elec       q    Type
REMARK                         _______ _______ _______ _____ _____    ______ ____
ROOT
ATOM      1  C   UNL     1       3.200   4.717  19.276  0.00  0.00    +0.000 A 
ATOM      2  C   UNL     1       4.366   5.322  19.779  0.00  0.00    +0.000 A 
ATOM      3  C   UNL     1       5.577   5.306  19.074  0.00  0.00    +0.000 A 
ATOM      4  C   UNL     1       5.670   4.640  17.852  0.00  0.00    +0.000 A 
ATOM      5  C   UNL     1       4.561   3.975  17.335  0.00  0.00    +0.000 A 
ATOM      6  C   UNL     1       3.352   4.011  18.056  0.00  0.00    +0.000 A 
ENDROOT
BRANCH   4   7
ATOM      7  S   UNL     1       7.172   4.744  16.905  0.00  0.00    +0.000 S 
ATOM      8  O   UNL     1       7.283   6.115  16.451  0.00  0.00    +0.000 OA
ATOM      9  O   UNL     1       8.236   4.110  17.654  0.00  0.00    +0.000 OA
BRANCH   7  10
ATOM     10  N   UNL     1       6.844   3.812  15.554  0.00  0.00    +0.000 NA
ATOM     11  H   UNL     1       6.249   3.004  15.761  0.00  0.00    +0.000 HD
BRANCH  10  12
ATOM     12  C   UNL     1       6.516   4.509  14.298  0.00  0.00    +0.000 C 
BRANCH  12  13
ATOM     13  C   UNL     1       5.480   3.701  13.488  0.00  0.00    +0.000 C 
BRANCH  13  14
ATOM     14  N   UNL     1       5.781   3.546  12.044  0.00  0.00    +0.000 NA
ATOM     15  C   UNL     1       7.159   3.929  11.723  0.00  0.00    +0.000 C 
ATOM     16  C   UNL     1       5.571   2.143  11.654  0.00  0.00    +0.000 C 
ENDBRANCH  13  14
ENDBRANCH  12  13
ENDBRANCH  10  12
ENDBRANCH   7  10
ENDBRANCH   4   7
BRANCH   6  17
ATOM     17  N   UNL     1       2.212   3.334  17.467  0.00  0.00    +0.000 N 
ATOM     18  O   UNL     1       2.305   2.109  17.289  0.00  0.00    +0.000 OA
ATOM     19  O   UNL     1       1.220   4.027  17.196  0.00  0.00    +0.000 OA
ENDBRANCH   6  17
BRANCH   1  20
ATOM     20  N   UNL     1       2.008   4.691  20.028  0.00  0.00    +0.000 N 
ATOM     21  H   UNL     1       1.554   5.609  20.055  0.00  0.00    +0.000 HD
BRANCH  20  23
ATOM     22  C   UNL     1       1.407   2.708  21.335  0.00  0.00    +0.000 C 
ATOM     23  C   UNL     1       2.038   4.092  21.365  0.00  0.00    +0.000 C 
ENDBRANCH  20  23
ENDBRANCH   1  20
TORSDOF 8
ENDMDL
MODEL 3
REMARK VINA RESULT:      -6.7      0.876      1.298
REMARK  Name = 
REMARK  11 active torsions:
REMARK  status: ('A' for Active; 'I' for Inactive)
REMARK    1  A    between atoms: C_1  and  C_2
REMARK    2  A    between atoms: C_2  and  N_3
REMARK    3  A    between atoms: N_3  and  C_4
REMARK    4  A    between atoms: C_7  and  S_8
REMARK    5  A    between atoms: S_8  and  N_11
REMARK    6  A    between atoms: N_11  and  C_12
REMARK    7  A    between atoms: C_12  and  C_13
REMARK    8  A    between atoms: C_13  and  N_14
REMARK    9  A    between atoms: N_14  and  C_15
REMARK   10  A    between atoms: N_14  and  C_16
REMARK   11  A    between atoms: C_18  and  N_19
REMARK                            x       y       z     vdW  Elec       q    Type
REMARK                         _______ _______ _______ _____ _____    ______ ____
ROOT
ATOM      1  C   UNL     1       2.956   4.405  18.541  0.00  0.00    +0.000 A 
ATOM      2  C   UNL     1       3.154   5.662  17.942  0.00  0.00    +0.000 A 
ATOM      3  C   UNL     1       4.386   6.038  17.390  0.00  0.00    +0.000 A 
ATOM      4  C   UNL     1       5.479   5.176  17.460  0.00  0.00    +0.000 A 
ATOM      5  C   UNL     1       5.355   3.942  18.093  0.00  0.00    +0.000 A 
ATOM      6  C   UNL     1       4.105   3.581  18.632  0.00  0.00    +0.000 A 
ENDROOT
BRANCH   4   7
ATOM      7  S   UNL     1       6.996   5.610  16.636  0.00  0.00    +0.000 S 
ATOM      8  O   UNL     1       7.202   7.025  16.864  0.00  0.00    +0.000 OA
ATOM      9  O   UNL     1       8.007   4.636  16.984  0.00  0.00    +0.000 OA
BRANCH   7  10
ATOM     10  N   UNL     1       6.620   5.430  15.014  0.00  0.00    +0.000 NA
ATOM     11  H   UNL     1       7.126   6.085  14.412  0.00  0.00    +0.000 HD
BRANCH  10  12
ATOM     12  C   UNL     1       6.512   4.061  14.478  0.00  0.00    +0.000 C 
BRANCH  12  13
ATOM     13  C   UNL     1       5.295   3.947  13.537  0.00  0.00    +0.000 C 
BRANCH  13  14
ATOM     14  N   UNL     1       5.617   3.768  12.100  0.00  0.00    +0.000 NA
ATOM     15  C   UNL     1       7.029   3.441  11.886  0.00  0.00    +0.000 C 
ATOM     16  C   UNL     1       4.786   2.685  11.550  0.00  0.00    +0.000 C 
ENDBRANCH  13  14
ENDBRANCH  12  13
ENDBRANCH  10  12
ENDBRANCH   7  10
ENDBRANCH   4   7
BRANCH   6  17
ATOM     17  N   UNL     1       4.009   2.273  19.254  0.00  0.00    +0.000 N 
ATOM     18  O   UNL     1       4.763   2.039  20.211  0.00  0.00    +0.000 OA
ATOM     19  O   UNL     1       3.168   1.487  18.792  0.00  0.00    +0.000 OA
ENDBRANCH   6  17
BRANCH   1  20
ATOM     20  N   UNL     1       1.727   4.069  19.144  0.00  0.00    +0.000 N 
ATOM     21  H   UNL     1       0.929   4.342  18.563  0.00  0.00    +0.000 HD
BRANCH  20  23
ATOM     22  C   UNL     1       1.470   3.225  21.429  0.00  0.00    +0.000 C 
ATOM     23  C   UNL     1       1.505   4.458  20.539  0.00  0.00    +0.000 C 
ENDBRANCH  20  23
ENDBRANCH   1  20
TORSDOF 8
ENDMDL
MODEL 4
REMARK VINA RESULT:      -6.6      1.422      1.838
REMARK  Name = 
REMARK  11 active torsions:
REMARK  status: ('A' for Active; 'I' for Inactive)
REMARK    1  A    between atoms: C_1  and  C_2
REMARK    2  A    between atoms: C_2  and  N_3
REMARK    3  A    between atoms: N_3  and  C_4
REMARK    4  A    between atoms: C_7  and  S_8
REMARK    5  A    between atoms: S_8  and  N_11
REMARK    6  A    between atoms: N_11  and  C_12
REMARK    7  A    between atoms: C_12  and  C_13
REMARK    8  A    between atoms: C_13  and  N_14
REMARK    9  A    between atoms: N_14  and  C_15
REMARK   10  A    between atoms: N_14  and  C_16
REMARK   11  A    between atoms: C_18  and  N_19
REMARK                            x       y       z     vdW  Elec       q    Type
REMARK                         _______ _______ _______ _____ _____    ______ ____
ROOT
ATOM      1  C   UNL     1       3.849   3.578  19.253  0.00  0.00    +0.000 A 
ATOM      2  C   UNL     1       5.083   4.159  19.596  0.00  0.00    +0.000 A 
ATOM      3  C   UNL     1       5.796   4.974  18.705  0.00  0.00    +0.000 A 
ATOM      4  C   UNL     1       5.311   5.198  17.417  0.00  0.00    +0.000 A 
ATOM      5  C   UNL     1       4.122   4.601  17.006  0.00  0.00    +0.000 A 
ATOM      6  C   UNL     1       3.419   3.793  17.920  0.00  0.00    +0.000 A 
ENDROOT
BRANCH   4   7
ATOM      7  S   UNL     1       6.155   6.343  16.347  0.00  0.00    +0.000 S 
ATOM      8  O   UNL     1       5.191   6.768  15.352  0.00  0.00    +0.000 OA
ATOM      9  O   UNL     1       6.867   7.301  17.163  0.00  0.00    +0.000 OA
BRANCH   7  10
ATOM     10  N   UNL     1       7.274   5.380  15.556  0.00  0.00    +0.000 NA
ATOM     11  H   UNL     1       7.569   4.573  16.112  0.00  0.00    +0.000 HD
BRANCH  10  12
ATOM     12  C   UNL     1       7.049   5.093  14.128  0.00  0.00    +0.000 C 
BRANCH  12  13
ATOM     13  C   UNL     1       6.165   3.839  13.964  0.00  0.00    +0.000 C 
BRANCH  13  14
ATOM     14  N   UNL     1       6.159   3.237  12.609  0.00  0.00    +0.000 NA
ATOM     15  C   UNL     1       4.838   3.303  11.980  0.00  0.00    +0.000 C 
ATOM     16  C   UNL     1       7.129   3.948  11.760  0.00  0.00    +0.000 C 
ENDBRANCH  13  14
ENDBRANCH  12  13
ENDBRANCH  10  12
ENDBRANCH   7  10
ENDBRANCH   4   7
BRANCH   6  17
ATOM     17  N   UNL     1       2.169   3.216  17.463  0.00  0.00    +0.000 N 
ATOM     18  O   UNL     1       2.118   1.982  17.347  0.00  0.00    +0.000 OA
ATOM     19  O   UNL     1       1.234   3.999  17.233  0.00  0.00    +0.000 OA
ENDBRANCH   6  17
BRANCH   1  20
ATOM     20  N   UNL     1       3.179   2.712  20.140  0.00  0.00    +0.000 N 
ATOM     21  H   UNL     1       2.603   2.026  19.641  0.00  0.00    +0.000 HD
BRANCH  20  23
ATOM     22  C   UNL     1       1.200   4.025  20.738  0.00  0.00    +0.000 C 
ATOM     23  C   UNL     1       2.431   3.297  21.255  0.00  0.00    +0.000 C 
ENDBRANCH  20  23
ENDBRANCH   1  20
TORSDOF 8
ENDMDL
MODEL 5
REMARK VINA RESULT:      -6.5      1.906      2.524
REMARK  Name = 
REMARK  11 active torsions:
REMARK  status: ('A' for Active; 'I' for Inactive)
REMARK    1  A    between atoms: C_1  and  C_2
REMARK    2  A    between atoms: C_2  and  N_3
REMARK    3  A    between atoms: N_3  and  C_4
REMARK    4  A    between atoms: C_7  and  S_8
REMARK    5  A    between atoms: S_8  and  N_11
REMARK    6  A    between atoms: N_11  and  C_12
REMARK    7  A    between atoms: C_12  and  C_13
REMARK    8  A    between atoms: C_13  and  N_14
REMARK    9  A    between atoms: N_14  and  C_15
REMARK   10  A    between atoms: N_14  and  C_16
REMARK   11  A    between atoms: C_18  and  N_19
REMARK                            x       y       z     vdW  Elec       q    Type
REMARK                         _______ _______ _______ _____ _____    ______ ____
ROOT
ATOM      1  C   UNL     1       2.744   4.680  18.071  0.00  0.00    +0.000 A 
ATOM      2  C   UNL     1       3.541   3.693  17.463  0.00  0.00    +0.000 A 
ATOM      3  C   UNL     1       4.816   3.974  16.954  0.00  0.00    +0.000 A 
ATOM      4  C   UNL     1       5.319   5.275  16.998  0.00  0.00    +0.000 A 
ATOM      5  C   UNL     1       4.548   6.302  17.537  0.00  0.00    +0.000 A 
ATOM      6  C   UNL     1       3.274   5.994  18.051  0.00  0.00    +0.000 A 
ENDROOT
BRANCH   4   7
ATOM      7  S   UNL     1       6.989   5.590  16.473  0.00  0.00    +0.000 S 
ATOM      8  O   UNL     1       7.298   6.950  16.867  0.00  0.00    +0.000 OA
ATOM      9  O   UNL     1       7.821   4.480  16.884  0.00  0.00    +0.000 OA
BRANCH   7  10
ATOM     10  N   UNL     1       6.878   5.583  14.803  0.00  0.00    +0.000 NA
ATOM     11  H   UNL     1       7.471   6.291  14.360  0.00  0.00    +0.000 HD
BRANCH  10  12
ATOM     12  C   UNL     1       6.864   4.278  14.118  0.00  0.00    +0.000 C 
BRANCH  12  13
ATOM     13  C   UNL     1       5.504   4.049  13.426  0.00  0.00    +0.000 C 
BRANCH  13  14
ATOM     14  N   UNL     1       5.498   3.020  12.357  0.00  0.00    +0.000 NA
ATOM     15  C   UNL     1       4.400   3.216  11.407  0.00  0.00    +0.000 C 
ATOM     16  C   UNL     1       6.776   3.074  11.630  0.00  0.00    +0.000 C 
ENDBRANCH  13  14
ENDBRANCH  12  13
ENDBRANCH  10  12
ENDBRANCH   7  10
ENDBRANCH   4   7
BRANCH   6  17
ATOM     17  N   UNL     1       2.517   7.086  18.633  0.00  0.00    +0.000 N 
ATOM     18  O   UNL     1       2.308   7.049  19.856  0.00  0.00    +0.000 OA
ATOM     19  O   UNL     1       2.143   7.988  17.867  0.00  0.00    +0.000 OA
ENDBRANCH   6  17
BRANCH   1  20
ATOM     20  N   UNL     1       1.441   4.390  18.522  0.00  0.00    +0.000 N 
ATOM     21  H   UNL     1       0.991   5.210  18.941  0.00  0.00    +0.000 HD
BRANCH  20  23
ATOM     22  C   UNL     1       1.241   3.599  20.831  0.00  0.00    +0.000 C 
ATOM     23  C   UNL     1       1.239   3.207  19.361  0.00  0.00    +0.000 C 
ENDBRANCH  20  23
ENDBRANCH   1  20
TORSDOF 8
ENDMDL
MODEL 6
REMARK VINA RESULT:      -6.5      1.900      2.280
REMARK  Name = 
REMARK  11 active torsions:
REMARK  status: ('A' for Active; 'I' for Inactive)
REMARK    1  A    between atoms: C_1  and  C_2
REMARK    2  A    between atoms: C_2  and  N_3
REMARK    3  A    between atoms: N_3  and  C_4
REMARK    4  A    between atoms: C_7  and  S_8
REMARK    5  A    between atoms: S_8  and  N_11
REMARK    6  A    between atoms: N_11  and  C_12
REMARK    7  A    between atoms: C_12  and  C_13
REMARK    8  A    between atoms: C_13  and  N_14
REMARK    9  A    between atoms: N_14  and  C_15
REMARK   10  A    between atoms: N_14  and  C_16
REMARK   11  A    between atoms: C_18  and  N_19
REMARK                            x       y       z     vdW  Elec       q    Type
REMARK                         _______ _______ _______ _____ _____    ______ ____
ROOT
ATOM      1  C   UNL     1       3.215   2.807  18.394  0.00  0.00    +0.000 A 
ATOM      2  C   UNL     1       3.162   3.652  17.271  0.00  0.00    +0.000 A 
ATOM      3  C   UNL     1       4.164   4.592  16.998  0.00  0.00    +0.000 A 
ATOM      4  C   UNL     1       5.239   4.747  17.872  0.00  0.00    +0.000 A 
ATOM      5  C   UNL     1       5.313   3.975  19.030  0.00  0.00    +0.000 A 
ATOM      6  C   UNL     1       4.299   3.031  19.279  0.00  0.00    +0.000 A 
ENDROOT
BRANCH   4   7
ATOM      7  S   UNL     1       6.572   5.845  17.444  0.00  0.00    +0.000 S 
ATOM      8  O   UNL     1       5.981   6.954  16.723  0.00  0.00    +0.000 OA
ATOM      9  O   UNL     1       7.390   6.060  18.617  0.00  0.00    +0.000 OA
BRANCH   7  10
ATOM     10  N   UNL     1       7.459   4.962  16.331  0.00  0.00    +0.000 NA
ATOM     11  H   UNL     1       8.349   4.626  16.707  0.00  0.00    +0.000 HD
BRANCH  10  12
ATOM     12  C   UNL     1       6.738   3.987  15.493  0.00  0.00    +0.000 C 
BRANCH  12  13
ATOM     13  C   UNL     1       6.398   4.606  14.121  0.00  0.00    +0.000 C 
BRANCH  13  14
ATOM     14  N   UNL     1       6.499   3.682  12.964  0.00  0.00    +0.000 NA
ATOM     15  C   UNL     1       5.186   3.354  12.403  0.00  0.00    +0.000 C 
ATOM     16  C   UNL     1       7.323   4.308  11.917  0.00  0.00    +0.000 C 
ENDBRANCH  13  14
ENDBRANCH  12  13
ENDBRANCH  10  12
ENDBRANCH   7  10
ENDBRANCH   4   7
BRANCH   6  17
ATOM     17  N   UNL     1       4.430   2.225  20.478  0.00  0.00    +0.000 N 
ATOM     18  O   UNL     1       5.374   1.422  20.527  0.00  0.00    +0.000 OA
ATOM     19  O   UNL     1       3.593   2.407  21.377  0.00  0.00    +0.000 OA
ENDBRANCH   6  17
BRANCH   1  20
ATOM     20  N   UNL     1       2.167   1.911  18.683  0.00  0.00    +0.000 N 
ATOM     21  H   UNL     1       2.193   1.084  18.078  0.00  0.00    +0.000 HD
BRANCH  20  23
ATOM     22  C   UNL     1       0.673   3.350  19.986  0.00  0.00    +0.000 C 
ATOM     23  C   UNL     1       0.803   2.438  18.776  0.00  0.00    +0.000 C 
ENDBRANCH  20  23
ENDBRANCH   1  20
TORSDOF 8
ENDMDL
MODEL 7
REMARK VINA RESULT:      -6.5      2.919      6.637
REMARK  Name = 
REMARK  11 active torsions:
REMARK  status: ('A' for Active; 'I' for Inactive)
REMARK    1  A    between atoms: C_1  and  C_2
REMARK    2  A    between atoms: C_2  and  N_3
REMARK    3  A    between atoms: N_3  and  C_4
REMARK    4  A    between atoms: C_7  and  S_8
REMARK    5  A    between atoms: S_8  and  N_11
REMARK    6  A    between atoms: N_11  and  C_12
REMARK    7  A    between atoms: C_12  and  C_13
REMARK    8  A    between atoms: C_13  and  N_14
REMARK    9  A    between atoms: N_14  and  C_15
REMARK   10  A    between atoms: N_14  and  C_16
REMARK   11  A    between atoms: C_18  and  N_19
REMARK                            x       y       z     vdW  Elec       q    Type
REMARK                         _______ _______ _______ _____ _____    ______ ____
ROOT
ATOM      1  C   UNL     1       5.928   6.669  17.091  0.00  0.00    +0.000 A 
ATOM      2  C   UNL     1       4.659   7.016  17.587  0.00  0.00    +0.000 A 
ATOM      3  C   UNL     1       3.624   6.079  17.708  0.00  0.00    +0.000 A 
ATOM      4  C   UNL     1       3.817   4.762  17.291  0.00  0.00    +0.000 A 
ATOM      5  C   UNL     1       5.037   4.378  16.739  0.00  0.00    +0.000 A 
ATOM      6  C   UNL     1       6.065   5.334  16.635  0.00  0.00    +0.000 A 
ENDROOT
BRANCH   4   7
ATOM      7  S   UNL     1       2.543   3.553  17.577  0.00  0.00    +0.000 S 
ATOM      8  O   UNL     1       1.492   4.224  18.314  0.00  0.00    +0.000 OA
ATOM      9  O   UNL     1       2.271   2.865  16.334  0.00  0.00    +0.000 OA
BRANCH   7  10
ATOM     10  N   UNL     1       3.264   2.474  18.636  0.00  0.00    +0.000 NA
ATOM     11  H   UNL     1       3.741   1.705  18.158  0.00  0.00    +0.000 HD
BRANCH  10  12
ATOM     12  C   UNL     1       3.994   3.025  19.792  0.00  0.00    +0.000 C 
BRANCH  12  13
ATOM     13  C   UNL     1       3.459   2.416  21.104  0.00  0.00    +0.000 C 
BRANCH  13  14
ATOM     14  N   UNL     1       2.431   3.221  21.808  0.00  0.00    +0.000 NA
ATOM     15  C   UNL     1       2.410   4.612  21.348  0.00  0.00    +0.000 C 
ATOM     16  C   UNL     1       1.107   2.621  21.578  0.00  0.00    +0.000 C 
ENDBRANCH  13  14
ENDBRANCH  12  13
ENDBRANCH  10  12
ENDBRANCH   7  10
ENDBRANCH   4   7
BRANCH   6  17
ATOM     17  N   UNL     1       7.329   4.885  16.084  0.00  0.00    +0.000 N 
ATOM     18  O   UNL     1       8.054   4.187  16.811  0.00  0.00    +0.000 OA
ATOM     19  O   UNL     1       7.590   5.220  14.919  0.00  0.00    +0.000 OA
ENDBRANCH   6  17
BRANCH   1  20
ATOM     20  N   UNL     1       6.936   7.639  16.920  0.00  0.00    +0.000 N 
ATOM     21  H   UNL     1       7.397   7.554  16.009  0.00  0.00    +0.000 HD
BRANCH  20  23
ATOM     22  C   UNL     1       8.324   9.277  18.100  0.00  0.00    +0.000 C 
ATOM     23  C   UNL     1       7.927   7.812  17.984  0.00  0.00    +0.000 C 
ENDBRANCH  20  23
ENDBRANCH   1  20
TORSDOF 8
ENDMDL
MODEL 8
REMARK VINA RESULT:      -6.5      1.810      2.500
REMARK  Name = 
REMARK  11 active torsions:
REMARK  status: ('A' for Active; 'I' for Inactive)
REMARK    1  A    between atoms: C_1  and  C_2
REMARK    2  A    between atoms: C_2  and  N_3
REMARK    3  A    between atoms: N_3  and  C_4
REMARK    4  A    between atoms: C_7  and  S_8
REMARK    5  A    between atoms: S_8  and  N_11
REMARK    6  A    between atoms: N_11  and  C_12
REMARK    7  A    between atoms: C_12  and  C_13
REMARK    8  A    between atoms: C_13  and  N_14
REMARK    9  A    between atoms: N_14  and  C_15
REMARK   10  A    between atoms: N_14  and  C_16
REMARK   11  A    between atoms: C_18  and  N_19
REMARK                            x       y       z     vdW  Elec       q    Type
REMARK                         _______ _______ _______ _____ _____    ______ ____
ROOT
ATOM      1  C   UNL     1       2.816   4.500  18.437  0.00  0.00    +0.000 A 
ATOM      2  C   UNL     1       3.640   3.517  17.859  0.00  0.00    +0.000 A 
ATOM      3  C   UNL     1       4.846   3.836  17.222  0.00  0.00    +0.000 A 
ATOM      4  C   UNL     1       5.247   5.167  17.104  0.00  0.00    +0.000 A 
ATOM      5  C   UNL     1       4.441   6.185  17.607  0.00  0.00    +0.000 A 
ATOM      6  C   UNL     1       3.238   5.840  18.251  0.00  0.00    +0.000 A 
ENDROOT
BRANCH   4   7
ATOM      7  S   UNL     1       6.843   5.547  16.415  0.00  0.00    +0.000 S 
ATOM      8  O   UNL     1       7.168   6.894  16.838  0.00  0.00    +0.000 OA
ATOM      9  O   UNL     1       7.736   4.439  16.677  0.00  0.00    +0.000 OA
BRANCH   7  10
ATOM     10  N   UNL     1       6.548   5.615  14.768  0.00  0.00    +0.000 NA
ATOM     11  H   UNL     1       6.806   6.514  14.354  0.00  0.00    +0.000 HD
BRANCH  10  12
ATOM     12  C   UNL     1       6.904   4.439  13.954  0.00  0.00    +0.000 C 
BRANCH  12  13
ATOM     13  C   UNL     1       5.631   3.747  13.424  0.00  0.00    +0.000 C 
BRANCH  13  14
ATOM     14  N   UNL     1       5.639   3.420  11.977  0.00  0.00    +0.000 NA
ATOM     15  C   UNL     1       6.382   2.190  11.693  0.00  0.00    +0.000 C 
ATOM     16  C   UNL     1       4.253   3.261  11.510  0.00  0.00    +0.000 C 
ENDBRANCH  13  14
ENDBRANCH  12  13
ENDBRANCH  10  12
ENDBRANCH   7  10
ENDBRANCH   4   7
BRANCH   6  17
ATOM     17  N   UNL     1       2.443   6.928  18.790  0.00  0.00    +0.000 N 
ATOM     18  O   UNL     1       2.147   7.855  18.020  0.00  0.00    +0.000 OA
ATOM     19  O   UNL     1       2.105   6.846  19.980  0.00  0.00    +0.000 OA
ENDBRANCH   6  17
BRANCH   1  20
ATOM     20  N   UNL     1       1.577   4.164  19.019  0.00  0.00    +0.000 N 
ATOM     21  H   UNL     1       1.108   4.984  19.416  0.00  0.00    +0.000 HD
BRANCH  20  23
ATOM     22  C   UNL     1       1.928   3.496  21.349  0.00  0.00    +0.000 C 
ATOM     23  C   UNL     1       1.527   3.038  19.955  0.00  0.00    +0.000 C 
ENDBRANCH  20  23
ENDBRANCH   1  20
TORSDOF 8
ENDMDL
MODEL 9
REMARK VINA RESULT:      -6.4      1.028      1.162
REMARK  Name = 
REMARK  11 active torsions:
REMARK  status: ('A' for Active; 'I' for Inactive)
REMARK    1  A    between atoms: C_1  and  C_2
REMARK    2  A    between atoms: C_2  and  N_3
REMARK    3  A    between atoms: N_3  and  C_4
REMARK    4  A    between atoms: C_7  and  S_8
REMARK    5  A    between atoms: S_8  and  N_11
REMARK    6  A    between atoms: N_11  and  C_12
REMARK    7  A    between atoms: C_12  and  C_13
REMARK    8  A    between atoms: C_13  and  N_14
REMARK    9  A    between atoms: N_14  and  C_15
REMARK   10  A    between atoms: N_14  and  C_16
REMARK   11  A    between atoms: C_18  and  N_19
REMARK                            x       y       z     vdW  Elec       q    Type
REMARK                         _______ _______ _______ _____ _____    ______ ____
ROOT
ATOM      1  C   UNL     1       2.484   4.472  18.621  0.00  0.00    +0.000 A 
ATOM      2  C   UNL     1       2.911   5.806  18.744  0.00  0.00    +0.000 A 
ATOM      3  C   UNL     1       4.185   6.221  18.334  0.00  0.00    +0.000 A 
ATOM      4  C   UNL     1       5.095   5.295  17.824  0.00  0.00    +0.000 A 
ATOM      5  C   UNL     1       4.744   3.950  17.734  0.00  0.00    +0.000 A 
ATOM      6  C   UNL     1       3.456   3.558  18.143  0.00  0.00    +0.000 A 
ENDROOT
BRANCH   4   7
ATOM      7  S   UNL     1       6.656   5.858  17.181  0.00  0.00    +0.000 S 
ATOM      8  O   UNL     1       6.367   6.978  16.309  0.00  0.00    +0.000 OA
ATOM      9  O   UNL     1       7.591   5.979  18.278  0.00  0.00    +0.000 OA
BRANCH   7  10
ATOM     10  N   UNL     1       7.148   4.594  16.199  0.00  0.00    +0.000 NA
ATOM     11  H   UNL     1       6.799   3.685  16.514  0.00  0.00    +0.000 HD
BRANCH  10  12
ATOM     12  C   UNL     1       7.104   4.797  14.740  0.00  0.00    +0.000 C 
BRANCH  12  13
ATOM     13  C   UNL     1       5.889   4.064  14.132  0.00  0.00    +0.000 C 
BRANCH  13  14
ATOM     14  N   UNL     1       6.135   3.398  12.830  0.00  0.00    +0.000 NA
ATOM     15  C   UNL     1       4.916   3.299  12.022  0.00  0.00    +0.000 C 
ATOM     16  C   UNL     1       7.145   4.161  12.080  0.00  0.00    +0.000 C 
ENDBRANCH  13  14
ENDBRANCH  12  13
ENDBRANCH  10  12
ENDBRANCH   7  10
ENDBRANCH   4   7
BRANCH   6  17
ATOM     17  N   UNL     1       3.119   2.154  18.002  0.00  0.00    +0.000 N 
ATOM     18  O   UNL     1       2.160   1.867  17.269  0.00  0.00    +0.000 OA
ATOM     19  O   UNL     1       3.823   1.338  18.616  0.00  0.00    +0.000 OA
ENDBRANCH   6  17
BRANCH   1  20
ATOM     20  N   UNL     1       1.221   4.063  19.096  0.00  0.00    +0.000 N 
ATOM     21  H   UNL     1       0.541   4.830  19.080  0.00  0.00    +0.000 HD
BRANCH  20  23
ATOM     22  C   UNL     1       2.105   3.965  21.378  0.00  0.00    +0.000 C 
ATOM     23  C   UNL     1       1.154   3.341  20.369  0.00  0.00    +0.000 C 
ENDBRANCH  20  23
ENDBRANCH   1  20
TORSDOF 8
ENDMDL
