MODEL 1
REMARK VINA RESULT:      -7.6      0.000      0.000
REMARK  Name = 
REMARK  7 active torsions:
REMARK  status: ('A' for Active; 'I' for Inactive)
REMARK    1  A    between atoms: C_1  and  O_2
REMARK    2  A    between atoms: O_2  and  C_3
REMARK    3  A    between atoms: C_8  and  N_9
REMARK    4  A    between atoms: C_10  and  C_12
REMARK    5  A    between atoms: C_15  and  C_16
REMARK    6  A    between atoms: C_16  and  O_17
REMARK    7  A    between atoms: O_17  and  C_18
REMARK                            x       y       z     vdW  Elec       q    Type
REMARK                         _______ _______ _______ _____ _____    ______ ____
ROOT
ATOM      1  C   UNL     1       8.069   8.210  18.140  0.00  0.00    +0.000 A 
ATOM      2  C   UNL     1       8.314   7.124  18.962  0.00  0.00    +0.000 A 
ATOM      3  C   UNL     1       7.649   6.021  18.389  0.00  0.00    +0.000 A 
ATOM      4  C   UNL     1       7.047   6.492  17.240  0.00  0.00    +0.000 A 
ATOM      5  O   UNL     1       7.290   7.824  17.083  0.00  0.00    +0.000 OA
ENDROOT
BRANCH   1   7
ATOM      6  N   UNL     1       9.492   9.787  19.228  0.00  0.00    +0.000 N 
ATOM      7  C   UNL     1       8.532   9.581  18.252  0.00  0.00    +0.000 C 
ATOM      8  O   UNL     1       8.093  10.446  17.501  0.00  0.00    +0.000 OA
ATOM      9  H   UNL     1       9.891   8.966  19.669  0.00  0.00    +0.000 HD
BRANCH   6  15
ATOM     10  C   UNL     1       9.534  11.678  20.778  0.00  0.00    +0.000 A 
ATOM     11  C   UNL     1      10.051  12.931  21.145  0.00  0.00    +0.000 A 
ATOM     12  C   UNL     1      11.059  13.538  20.396  0.00  0.00    +0.000 A 
ATOM     13  C   UNL     1      11.549  12.912  19.260  0.00  0.00    +0.000 A 
ATOM     14  C   UNL     1      11.025  11.679  18.872  0.00  0.00    +0.000 A 
ATOM     15  C   UNL     1      10.028  11.038  19.621  0.00  0.00    +0.000 A 
BRANCH  10  17
ATOM     16  C   UNL     1       8.215  11.643  22.745  0.00  0.00    +0.000 C 
ATOM     17  O   UNL     1       8.561  11.026  21.502  0.00  0.00    +0.000 OA
ENDBRANCH  10  17
ENDBRANCH   6  15
ENDBRANCH   1   7
BRANCH   4  18
ATOM     18  C   UNL     1       6.253   5.810  16.186  0.00  0.00    +0.000 C 
BRANCH  18  19
ATOM     19  O   UNL     1       4.916   6.263  16.342  0.00  0.00    +0.000 OA
BRANCH  19  20
ATOM     20  C   UNL     1       4.070   5.503  17.105  0.00  0.00    +0.000 A 
ATOM     21  C   UNL     1       4.239   4.123  16.899  0.00  0.00    +0.000 A 
ATOM     22  C   UNL     1       3.386   3.188  17.491  0.00  0.00    +0.000 A 
ATOM     23  C   UNL     1       2.346   3.623  18.302  0.00  0.00    +0.000 A 
ATOM     24  C   UNL     1       2.168   4.986  18.521  0.00  0.00    +0.000 A 
ATOM     25  C   UNL     1       3.014   5.933  17.920  0.00  0.00    +0.000 A 
ATOM     26 BR   UNL     1       2.502   7.736  18.219  0.00  0.00    +0.000 Br
ENDBRANCH  19  20
ENDBRANCH  18  19
ENDBRANCH   4  18
TORSDOF 6
ENDMDL
MODEL 2
REMARK VINA RESULT:      -7.4      0.946      1.860
REMARK  Name = 
REMARK  7 active torsions:
REMARK  status: ('A' for Active; 'I' for Inactive)
REMARK    1  A    between atoms: C_1  and  O_2
REMARK    2  A    between atoms: O_2  and  C_3
REMARK    3  A    between atoms: C_8  and  N_9
REMARK    4  A    between atoms: C_10  and  C_12
REMARK    5  A    between atoms: C_15  and  C_16
REMARK    6  A    between atoms: C_16  and  O_17
REMARK    7  A    between atoms: O_17  and  C_18
REMARK                            x       y       z     vdW  Elec       q    Type
REMARK                         _______ _______ _______ _____ _____    ______ ____
ROOT
ATOM      1  C   UNL     1       8.036   8.206  18.154  0.00  0.00    +0.000 A 
ATOM      2  C   UNL     1       8.362   7.068  18.869  0.00  0.00    +0.000 A 
ATOM      3  C   UNL     1       7.751   5.983  18.208  0.00  0.00    +0.000 A 
ATOM      4  C   UNL     1       7.097   6.518  17.117  0.00  0.00    +0.000 A 
ATOM      5  O   UNL     1       7.259   7.871  17.078  0.00  0.00    +0.000 OA
ENDROOT
BRANCH   1   7
ATOM      6  N   UNL     1       9.193   9.790  19.513  0.00  0.00    +0.000 N 
ATOM      7  C   UNL     1       8.420   9.587  18.383  0.00  0.00    +0.000 C 
ATOM      8  O   UNL     1       8.081  10.463  17.594  0.00  0.00    +0.000 OA
ATOM      9  H   UNL     1       9.543   8.968  19.991  0.00  0.00    +0.000 HD
BRANCH   6  15
ATOM     10  C   UNL     1      10.625  11.768  19.372  0.00  0.00    +0.000 A 
ATOM     11  C   UNL     1      11.048  12.997  19.905  0.00  0.00    +0.000 A 
ATOM     12  C   UNL     1      10.459  13.520  21.056  0.00  0.00    +0.000 A 
ATOM     13  C   UNL     1       9.457  12.814  21.702  0.00  0.00    +0.000 A 
ATOM     14  C   UNL     1       9.047  11.580  21.197  0.00  0.00    +0.000 A 
ATOM     15  C   UNL     1       9.606  11.045  20.028  0.00  0.00    +0.000 A 
BRANCH  10  17
ATOM     16  C   UNL     1      11.581  12.179  17.244  0.00  0.00    +0.000 C 
ATOM     17  O   UNL     1      11.154  11.226  18.222  0.00  0.00    +0.000 OA
ENDBRANCH  10  17
ENDBRANCH   6  15
ENDBRANCH   1   7
BRANCH   4  18
ATOM     18  C   UNL     1       6.323   5.886  16.018  0.00  0.00    +0.000 C 
BRANCH  18  19
ATOM     19  O   UNL     1       4.973   6.293  16.202  0.00  0.00    +0.000 OA
BRANCH  19  20
ATOM     20  C   UNL     1       4.182   5.527  17.015  0.00  0.00    +0.000 A 
ATOM     21  C   UNL     1       4.385   4.147  16.833  0.00  0.00    +0.000 A 
ATOM     22  C   UNL     1       3.584   3.202  17.480  0.00  0.00    +0.000 A 
ATOM     23  C   UNL     1       2.564   3.625  18.322  0.00  0.00    +0.000 A 
ATOM     24  C   UNL     1       2.354   4.988  18.518  0.00  0.00    +0.000 A 
ATOM     25  C   UNL     1       3.146   5.944  17.862  0.00  0.00    +0.000 A 
ATOM     26 BR   UNL     1       2.593   7.738  18.141  0.00  0.00    +0.000 Br
ENDBRANCH  19  20
ENDBRANCH  18  19
ENDBRANCH   4  18
TORSDOF 6
ENDMDL
MODEL 3
REMARK VINA RESULT:      -7.3      5.578      7.396
REMARK  Name = 
REMARK  7 active torsions:
REMARK  status: ('A' for Active; 'I' for Inactive)
REMARK    1  A    between atoms: C_1  and  O_2
REMARK    2  A    between atoms: O_2  and  C_3
REMARK    3  A    between atoms: C_8  and  N_9
REMARK    4  A    between atoms: C_10  and  C_12
REMARK    5  A    between atoms: C_15  and  C_16
REMARK    6  A    between atoms: C_16  and  O_17
REMARK    7  A    between atoms: O_17  and  C_18
REMARK                            x       y       z     vdW  Elec       q    Type
REMARK                         _______ _______ _______ _____ _____    ______ ____
ROOT
ATOM      1  C   UNL     1       2.104   7.531  18.895  0.00  0.00    +0.000 A 
ATOM      2  C   UNL     1       2.060   7.054  20.193  0.00  0.00    +0.000 A 
ATOM      3  C   UNL     1       2.422   5.693  20.140  0.00  0.00    +0.000 A 
ATOM      4  C   UNL     1       2.681   5.417  18.813  0.00  0.00    +0.000 A 
ATOM      5  O   UNL     1       2.484   6.527  18.046  0.00  0.00    +0.000 OA
ENDROOT
BRANCH   1   7
ATOM      6  N   UNL     1       1.180   9.699  19.273  0.00  0.00    +0.000 N 
ATOM      7  C   UNL     1       1.844   8.866  18.388  0.00  0.00    +0.000 C 
ATOM      8  O   UNL     1       2.224   9.187  17.267  0.00  0.00    +0.000 OA
ATOM      9  H   UNL     1       1.066   9.370  20.225  0.00  0.00    +0.000 HD
BRANCH   6  15
ATOM     10  C   UNL     1      -0.629  11.189  18.575  0.00  0.00    +0.000 A 
ATOM     11  C   UNL     1      -1.082  12.484  18.273  0.00  0.00    +0.000 A 
ATOM     12  C   UNL     1      -0.239  13.588  18.405  0.00  0.00    +0.000 A 
ATOM     13  C   UNL     1       1.072  13.411  18.818  0.00  0.00    +0.000 A 
ATOM     14  C   UNL     1       1.541  12.127  19.095  0.00  0.00    +0.000 A 
ATOM     15  C   UNL     1       0.706  11.005  18.994  0.00  0.00    +0.000 A 
BRANCH  10  17
ATOM     16  C   UNL     1      -2.126   9.919  17.249  0.00  0.00    +0.000 C 
ATOM     17  O   UNL     1      -1.432  10.074  18.490  0.00  0.00    +0.000 OA
ENDBRANCH  10  17
ENDBRANCH   6  15
ENDBRANCH   1   7
BRANCH   4  18
ATOM     18  C   UNL     1       3.152   4.185  18.130  0.00  0.00    +0.000 C 
BRANCH  18  19
ATOM     19  O   UNL     1       4.557   4.132  18.335  0.00  0.00    +0.000 OA
BRANCH  19  20
ATOM     20  C   UNL     1       5.367   4.503  17.295  0.00  0.00    +0.000 A 
ATOM     21  C   UNL     1       4.907   4.039  16.051  0.00  0.00    +0.000 A 
ATOM     22  C   UNL     1       5.661   4.207  14.886  0.00  0.00    +0.000 A 
ATOM     23  C   UNL     1       6.892   4.845  14.950  0.00  0.00    +0.000 A 
ATOM     24  C   UNL     1       7.361   5.316  16.175  0.00  0.00    +0.000 A 
ATOM     25  C   UNL     1       6.615   5.140  17.351  0.00  0.00    +0.000 A 
ATOM     26 BR   UNL     1       7.502   5.709  18.930  0.00  0.00    +0.000 Br
ENDBRANCH  19  20
ENDBRANCH  18  19
ENDBRANCH   4  18
TORSDOF 6
ENDMDL
MODEL 4
REMARK VINA RESULT:      -7.3      5.354      8.282
REMARK  Name = 
REMARK  7 active torsions:
REMARK  status: ('A' for Active; 'I' for Inactive)
REMARK    1  A    between atoms: C_1  and  O_2
REMARK    2  A    between atoms: O_2  and  C_3
REMARK    3  A    between atoms: C_8  and  N_9
REMARK    4  A    between atoms: C_10  and  C_12
REMARK    5  A    between atoms: C_15  and  C_16
REMARK    6  A    between atoms: C_16  and  O_17
REMARK    7  A    between atoms: O_17  and  C_18
REMARK                            x       y       z     vdW  Elec       q    Type
REMARK                         _______ _______ _______ _____ _____    ______ ____
ROOT
ATOM      1  C   UNL     1       2.410   7.781  18.495  0.00  0.00    +0.000 A 
ATOM      2  C   UNL     1       2.003   8.921  17.825  0.00  0.00    +0.000 A 
ATOM      3  C   UNL     1       1.291   9.707  18.753  0.00  0.00    +0.000 A 
ATOM      4  C   UNL     1       1.314   9.009  19.943  0.00  0.00    +0.000 A 
ATOM      5  O   UNL     1       1.987   7.832  19.795  0.00  0.00    +0.000 OA
ENDROOT
BRANCH   1   7
ATOM      6  N   UNL     1       4.395   6.997  17.426  0.00  0.00    +0.000 N 
ATOM      7  C   UNL     1       3.191   6.654  18.018  0.00  0.00    +0.000 C 
ATOM      8  O   UNL     1       2.783   5.508  18.174  0.00  0.00    +0.000 OA
ATOM      9  H   UNL     1       4.694   7.963  17.504  0.00  0.00    +0.000 HD
BRANCH   6  15
ATOM     10  C   UNL     1       6.292   5.457  17.532  0.00  0.00    +0.000 A 
ATOM     11  C   UNL     1       7.193   4.600  16.879  0.00  0.00    +0.000 A 
ATOM     12  C   UNL     1       7.096   4.368  15.507  0.00  0.00    +0.000 A 
ATOM     13  C   UNL     1       6.113   5.005  14.765  0.00  0.00    +0.000 A 
ATOM     14  C   UNL     1       5.229   5.879  15.398  0.00  0.00    +0.000 A 
ATOM     15  C   UNL     1       5.291   6.109  16.780  0.00  0.00    +0.000 A 
BRANCH  10  17
ATOM     16  C   UNL     1       7.639   5.761  19.457  0.00  0.00    +0.000 C 
ATOM     17  O   UNL     1       6.328   5.693  18.888  0.00  0.00    +0.000 OA
ENDBRANCH  10  17
ENDBRANCH   6  15
ENDBRANCH   1   7
BRANCH   4  18
ATOM     18  C   UNL     1       0.788   9.334  21.294  0.00  0.00    +0.000 C 
BRANCH  18  19
ATOM     19  O   UNL     1       0.949  10.737  21.453  0.00  0.00    +0.000 OA
BRANCH  19  20
ATOM     20  C   UNL     1      -0.171  11.482  21.709  0.00  0.00    +0.000 A 
ATOM     21  C   UNL     1      -0.853  11.064  22.865  0.00  0.00    +0.000 A 
ATOM     22  C   UNL     1      -2.085  11.617  23.223  0.00  0.00    +0.000 A 
ATOM     23  C   UNL     1      -2.656  12.601  22.427  0.00  0.00    +0.000 A 
ATOM     24  C   UNL     1      -1.990  13.030  21.281  0.00  0.00    +0.000 A 
ATOM     25  C   UNL     1      -0.758  12.470  20.907  0.00  0.00    +0.000 A 
ATOM     26 BR   UNL     1      -0.100  13.080  19.234  0.00  0.00    +0.000 Br
ENDBRANCH  19  20
ENDBRANCH  18  19
ENDBRANCH   4  18
TORSDOF 6
ENDMDL
MODEL 5
REMARK VINA RESULT:      -7.2      5.868      8.227
REMARK  Name = 
REMARK  7 active torsions:
REMARK  status: ('A' for Active; 'I' for Inactive)
REMARK    1  A    between atoms: C_1  and  O_2
REMARK    2  A    between atoms: O_2  and  C_3
REMARK    3  A    between atoms: C_8  and  N_9
REMARK    4  A    between atoms: C_10  and  C_12
REMARK    5  A    between atoms: C_15  and  C_16
REMARK    6  A    between atoms: C_16  and  O_17
REMARK    7  A    between atoms: O_17  and  C_18
REMARK                            x       y       z     vdW  Elec       q    Type
REMARK                         _______ _______ _______ _____ _____    ______ ____
ROOT
ATOM      1  C   UNL     1       2.159   7.572  18.911  0.00  0.00    +0.000 A 
ATOM      2  C   UNL     1       1.853   7.656  20.258  0.00  0.00    +0.000 A 
ATOM      3  C   UNL     1       1.170   8.875  20.445  0.00  0.00    +0.000 A 
ATOM      4  C   UNL     1       1.083   9.461  19.199  0.00  0.00    +0.000 A 
ATOM      5  O   UNL     1       1.688   8.679  18.259  0.00  0.00    +0.000 OA
ENDROOT
BRANCH   1   7
ATOM      6  N   UNL     1       4.153   6.796  17.853  0.00  0.00    +0.000 N 
ATOM      7  C   UNL     1       2.836   6.518  18.177  0.00  0.00    +0.000 C 
ATOM      8  O   UNL     1       2.249   5.474  17.913  0.00  0.00    +0.000 OA
ATOM      9  H   UNL     1       4.570   7.620  18.269  0.00  0.00    +0.000 HD
BRANCH   6  15
ATOM     10  C   UNL     1       5.763   4.967  17.646  0.00  0.00    +0.000 A 
ATOM     11  C   UNL     1       6.623   4.196  16.846  0.00  0.00    +0.000 A 
ATOM     12  C   UNL     1       6.714   4.417  15.472  0.00  0.00    +0.000 A 
ATOM     13  C   UNL     1       5.966   5.424  14.882  0.00  0.00    +0.000 A 
ATOM     14  C   UNL     1       5.129   6.213  15.670  0.00  0.00    +0.000 A 
ATOM     15  C   UNL     1       5.001   5.994  17.049  0.00  0.00    +0.000 A 
BRANCH  10  17
ATOM     16  C   UNL     1       4.867   3.602  19.362  0.00  0.00    +0.000 C 
ATOM     17  O   UNL     1       5.615   4.766  19.000  0.00  0.00    +0.000 OA
ENDBRANCH  10  17
ENDBRANCH   6  15
ENDBRANCH   1   7
BRANCH   4  18
ATOM     18  C   UNL     1       0.438  10.716  18.737  0.00  0.00    +0.000 C 
BRANCH  18  19
ATOM     19  O   UNL     1      -0.869  10.718  19.296  0.00  0.00    +0.000 OA
BRANCH  19  20
ATOM     20  C   UNL     1      -1.931  10.747  18.433  0.00  0.00    +0.000 A 
ATOM     21  C   UNL     1      -1.685  10.044  17.241  0.00  0.00    +0.000 A 
ATOM     22  C   UNL     1      -2.599  10.062  16.183  0.00  0.00    +0.000 A 
ATOM     23  C   UNL     1      -3.777  10.787  16.305  0.00  0.00    +0.000 A 
ATOM     24  C   UNL     1      -4.038  11.484  17.482  0.00  0.00    +0.000 A 
ATOM     25  C   UNL     1      -3.119  11.481  18.544  0.00  0.00    +0.000 A 
ATOM     26 BR   UNL     1      -3.593  12.620  19.987  0.00  0.00    +0.000 Br
ENDBRANCH  19  20
ENDBRANCH  18  19
ENDBRANCH   4  18
TORSDOF 6
ENDMDL
MODEL 6
REMARK VINA RESULT:      -7.2      1.346      1.710
REMARK  Name = 
REMARK  7 active torsions:
REMARK  status: ('A' for Active; 'I' for Inactive)
REMARK    1  A    between atoms: C_1  and  O_2
REMARK    2  A    between atoms: O_2  and  C_3
REMARK    3  A    between atoms: C_8  and  N_9
REMARK    4  A    between atoms: C_10  and  C_12
REMARK    5  A    between atoms: C_15  and  C_16
REMARK    6  A    between atoms: C_16  and  O_17
REMARK    7  A    between atoms: O_17  and  C_18
REMARK                            x       y       z     vdW  Elec       q    Type
REMARK                         _______ _______ _______ _____ _____    ______ ____
ROOT
ATOM      1  C   UNL     1       7.939   8.248  18.038  0.00  0.00    +0.000 A 
ATOM      2  C   UNL     1       8.277   7.103  18.737  0.00  0.00    +0.000 A 
ATOM      3  C   UNL     1       7.489   6.058  18.213  0.00  0.00    +0.000 A 
ATOM      4  C   UNL     1       6.724   6.621  17.212  0.00  0.00    +0.000 A 
ATOM      5  O   UNL     1       6.985   7.955  17.102  0.00  0.00    +0.000 OA
ENDROOT
BRANCH   1   7
ATOM      6  N   UNL     1       9.448   9.748  19.119  0.00  0.00    +0.000 N 
ATOM      7  C   UNL     1       8.462   9.597  18.158  0.00  0.00    +0.000 C 
ATOM      8  O   UNL     1       8.047  10.489  17.427  0.00  0.00    +0.000 OA
ATOM      9  H   UNL     1       9.819   8.906  19.542  0.00  0.00    +0.000 HD
BRANCH   6  15
ATOM     10  C   UNL     1       9.655  11.573  20.734  0.00  0.00    +0.000 A 
ATOM     11  C   UNL     1      10.230  12.799  21.108  0.00  0.00    +0.000 A 
ATOM     12  C   UNL     1      11.193  13.413  20.307  0.00  0.00    +0.000 A 
ATOM     13  C   UNL     1      11.578  12.825  19.113  0.00  0.00    +0.000 A 
ATOM     14  C   UNL     1      10.995  11.620  18.718  0.00  0.00    +0.000 A 
ATOM     15  C   UNL     1      10.043  10.971  19.518  0.00  0.00    +0.000 A 
BRANCH  10  17
ATOM     16  C   UNL     1       8.147  11.693  22.557  0.00  0.00    +0.000 C 
ATOM     17  O   UNL     1       8.726  10.913  21.506  0.00  0.00    +0.000 OA
ENDBRANCH  10  17
ENDBRANCH   6  15
ENDBRANCH   1   7
BRANCH   4  18
ATOM     18  C   UNL     1       5.745   6.032  16.263  0.00  0.00    +0.000 C 
BRANCH  18  19
ATOM     19  O   UNL     1       5.075   5.000  16.975  0.00  0.00    +0.000 OA
BRANCH  19  20
ATOM     20  C   UNL     1       4.110   5.369  17.873  0.00  0.00    +0.000 A 
ATOM     21  C   UNL     1       3.615   6.664  17.642  0.00  0.00    +0.000 A 
ATOM     22  C   UNL     1       2.715   7.268  18.525  0.00  0.00    +0.000 A 
ATOM     23  C   UNL     1       2.296   6.582  19.657  0.00  0.00    +0.000 A 
ATOM     24  C   UNL     1       2.773   5.295  19.897  0.00  0.00    +0.000 A 
ATOM     25  C   UNL     1       3.686   4.686  19.021  0.00  0.00    +0.000 A 
ATOM     26 BR   UNL     1       4.330   3.002  19.615  0.00  0.00    +0.000 Br
ENDBRANCH  19  20
ENDBRANCH  18  19
ENDBRANCH   4  18
TORSDOF 6
ENDMDL
MODEL 7
REMARK VINA RESULT:      -7.1      5.411      8.362
REMARK  Name = 
REMARK  7 active torsions:
REMARK  status: ('A' for Active; 'I' for Inactive)
REMARK    1  A    between atoms: C_1  and  O_2
REMARK    2  A    between atoms: O_2  and  C_3
REMARK    3  A    between atoms: C_8  and  N_9
REMARK    4  A    between atoms: C_10  and  C_12
REMARK    5  A    between atoms: C_15  and  C_16
REMARK    6  A    between atoms: C_16  and  O_17
REMARK    7  A    between atoms: O_17  and  C_18
REMARK                            x       y       z     vdW  Elec       q    Type
REMARK                         _______ _______ _______ _____ _____    ______ ____
ROOT
ATOM      1  C   UNL     1       2.160   7.894  19.211  0.00  0.00    +0.000 A 
ATOM      2  C   UNL     1       1.889   7.270  20.416  0.00  0.00    +0.000 A 
ATOM      3  C   UNL     1       1.012   8.117  21.124  0.00  0.00    +0.000 A 
ATOM      4  C   UNL     1       0.785   9.204  20.306  0.00  0.00    +0.000 A 
ATOM      5  O   UNL     1       1.484   9.081  19.142  0.00  0.00    +0.000 OA
ENDROOT
BRANCH   1   7
ATOM      6  N   UNL     1       3.748   6.326  18.365  0.00  0.00    +0.000 N 
ATOM      7  C   UNL     1       2.984   7.450  18.101  0.00  0.00    +0.000 C 
ATOM      8  O   UNL     1       2.950   8.044  17.029  0.00  0.00    +0.000 OA
ATOM      9  H   UNL     1       3.565   5.831  19.231  0.00  0.00    +0.000 HD
BRANCH   6  15
ATOM     10  C   UNL     1       4.443   4.527  16.861  0.00  0.00    +0.000 A 
ATOM     11  C   UNL     1       5.420   3.954  16.030  0.00  0.00    +0.000 A 
ATOM     12  C   UNL     1       6.642   4.591  15.815  0.00  0.00    +0.000 A 
ATOM     13  C   UNL     1       6.914   5.796  16.442  0.00  0.00    +0.000 A 
ATOM     14  C   UNL     1       5.962   6.363  17.290  0.00  0.00    +0.000 A 
ATOM     15  C   UNL     1       4.717   5.754  17.503  0.00  0.00    +0.000 A 
BRANCH  10  17
ATOM     16  C   UNL     1       3.236   2.724  17.812  0.00  0.00    +0.000 C 
ATOM     17  O   UNL     1       3.211   3.953  17.079  0.00  0.00    +0.000 OA
ENDBRANCH  10  17
ENDBRANCH   6  15
ENDBRANCH   1   7
BRANCH   4  18
ATOM     18  C   UNL     1      -0.082  10.400  20.465  0.00  0.00    +0.000 C 
BRANCH  18  19
ATOM     19  O   UNL     1      -0.233  10.953  19.164  0.00  0.00    +0.000 OA
BRANCH  19  20
ATOM     20  C   UNL     1      -1.468  10.876  18.578  0.00  0.00    +0.000 A 
ATOM     21  C   UNL     1      -1.482  10.051  17.441  0.00  0.00    +0.000 A 
ATOM     22  C   UNL     1      -2.618   9.943  16.633  0.00  0.00    +0.000 A 
ATOM     23  C   UNL     1      -3.760  10.665  16.953  0.00  0.00    +0.000 A 
ATOM     24  C   UNL     1      -3.764  11.483  18.080  0.00  0.00    +0.000 A 
ATOM     25  C   UNL     1      -2.623  11.606  18.889  0.00  0.00    +0.000 A 
ATOM     26 BR   UNL     1      -2.787  12.891  20.278  0.00  0.00    +0.000 Br
ENDBRANCH  19  20
ENDBRANCH  18  19
ENDBRANCH   4  18
TORSDOF 6
ENDMDL
MODEL 8
REMARK VINA RESULT:      -7.1      5.743      9.067
REMARK  Name = 
REMARK  7 active torsions:
REMARK  status: ('A' for Active; 'I' for Inactive)
REMARK    1  A    between atoms: C_1  and  O_2
REMARK    2  A    between atoms: O_2  and  C_3
REMARK    3  A    between atoms: C_8  and  N_9
REMARK    4  A    between atoms: C_10  and  C_12
REMARK    5  A    between atoms: C_15  and  C_16
REMARK    6  A    between atoms: C_16  and  O_17
REMARK    7  A    between atoms: O_17  and  C_18
REMARK                            x       y       z     vdW  Elec       q    Type
REMARK                         _______ _______ _______ _____ _____    ______ ____
ROOT
ATOM      1  C   UNL     1       1.996   8.237  18.786  0.00  0.00    +0.000 A 
ATOM      2  C   UNL     1       2.725   9.021  17.909  0.00  0.00    +0.000 A 
ATOM      3  C   UNL     1       2.071  10.268  17.839  0.00  0.00    +0.000 A 
ATOM      4  C   UNL     1       0.986  10.180  18.688  0.00  0.00    +0.000 A 
ATOM      5  O   UNL     1       0.928   8.946  19.264  0.00  0.00    +0.000 OA
ENDROOT
BRANCH   1   7
ATOM      6  N   UNL     1       2.720   6.025  18.256  0.00  0.00    +0.000 N 
ATOM      7  C   UNL     1       2.239   6.878  19.235  0.00  0.00    +0.000 C 
ATOM      8  O   UNL     1       2.039   6.568  20.405  0.00  0.00    +0.000 OA
ATOM      9  H   UNL     1       2.998   6.439  17.374  0.00  0.00    +0.000 HD
BRANCH   6  15
ATOM     10  C   UNL     1       4.128   4.161  18.980  0.00  0.00    +0.000 A 
ATOM     11  C   UNL     1       4.343   2.777  19.088  0.00  0.00    +0.000 A 
ATOM     12  C   UNL     1       3.383   1.866  18.647  0.00  0.00    +0.000 A 
ATOM     13  C   UNL     1       2.207   2.323  18.073  0.00  0.00    +0.000 A 
ATOM     14  C   UNL     1       1.994   3.695  17.937  0.00  0.00    +0.000 A 
ATOM     15  C   UNL     1       2.933   4.631  18.395  0.00  0.00    +0.000 A 
BRANCH  10  17
ATOM     16  C   UNL     1       6.308   5.066  18.786  0.00  0.00    +0.000 C 
ATOM     17  O   UNL     1       5.031   5.098  19.429  0.00  0.00    +0.000 OA
ENDBRANCH  10  17
ENDBRANCH   6  15
ENDBRANCH   1   7
BRANCH   4  18
ATOM     18  C   UNL     1      -0.046  11.172  19.082  0.00  0.00    +0.000 C 
BRANCH  18  19
ATOM     19  O   UNL     1      -1.257  10.443  19.232  0.00  0.00    +0.000 OA
BRANCH  19  20
ATOM     20  C   UNL     1      -2.216  10.595  18.267  0.00  0.00    +0.000 A 
ATOM     21  C   UNL     1      -1.892   9.938  17.067  0.00  0.00    +0.000 A 
ATOM     22  C   UNL     1      -2.683  10.078  15.923  0.00  0.00    +0.000 A 
ATOM     23  C   UNL     1      -3.815  10.881  15.964  0.00  0.00    +0.000 A 
ATOM     24  C   UNL     1      -4.153  11.534  17.147  0.00  0.00    +0.000 A 
ATOM     25  C   UNL     1      -3.357  11.408  18.297  0.00  0.00    +0.000 A 
ATOM     26 BR   UNL     1      -3.904  12.504  19.747  0.00  0.00    +0.000 Br
ENDBRANCH  19  20
ENDBRANCH  18  19
ENDBRANCH   4  18
TORSDOF 6
ENDMDL
MODEL 9
REMARK VINA RESULT:      -7.1      6.106      9.345
REMARK  Name = 
REMARK  7 active torsions:
REMARK  status: ('A' for Active; 'I' for Inactive)
REMARK    1  A    between atoms: C_1  and  O_2
REMARK    2  A    between atoms: O_2  and  C_3
REMARK    3  A    between atoms: C_8  and  N_9
REMARK    4  A    between atoms: C_10  and  C_12
REMARK    5  A    between atoms: C_15  and  C_16
REMARK    6  A    between atoms: C_16  and  O_17
REMARK    7  A    between atoms: O_17  and  C_18
REMARK                            x       y       z     vdW  Elec       q    Type
REMARK                         _______ _______ _______ _____ _____    ______ ____
ROOT
ATOM      1  C   UNL     1       1.334   8.909  19.353  0.00  0.00    +0.000 A 
ATOM      2  C   UNL     1       1.168   8.702  20.711  0.00  0.00    +0.000 A 
ATOM      3  C   UNL     1       0.275   9.692  21.167  0.00  0.00    +0.000 A 
ATOM      4  C   UNL     1      -0.067  10.440  20.059  0.00  0.00    +0.000 A 
ATOM      5  O   UNL     1       0.578   9.976  18.951  0.00  0.00    +0.000 OA
ENDROOT
BRANCH   1   7
ATOM      6  N   UNL     1       2.458   6.880  18.789  0.00  0.00    +0.000 N 
ATOM      7  C   UNL     1       2.127   8.164  18.392  0.00  0.00    +0.000 C 
ATOM      8  O   UNL     1       2.433   8.671  17.317  0.00  0.00    +0.000 OA
ATOM      9  H   UNL     1       2.010   6.521  19.624  0.00  0.00    +0.000 HD
BRANCH   6  15
ATOM     10  C   UNL     1       2.827   4.723  17.698  0.00  0.00    +0.000 A 
ATOM     11  C   UNL     1       3.688   3.832  17.037  0.00  0.00    +0.000 A 
ATOM     12  C   UNL     1       5.006   4.189  16.750  0.00  0.00    +0.000 A 
ATOM     13  C   UNL     1       5.487   5.429  17.138  0.00  0.00    +0.000 A 
ATOM     14  C   UNL     1       4.648   6.312  17.819  0.00  0.00    +0.000 A 
ATOM     15  C   UNL     1       3.313   5.986  18.097  0.00  0.00    +0.000 A 
BRANCH  10  17
ATOM     16  C   UNL     1       1.310   3.320  18.857  0.00  0.00    +0.000 C 
ATOM     17  O   UNL     1       1.510   4.428  17.975  0.00  0.00    +0.000 OA
ENDBRANCH  10  17
ENDBRANCH   6  15
ENDBRANCH   1   7
BRANCH   4  18
ATOM     18  C   UNL     1      -1.002  11.581  19.883  0.00  0.00    +0.000 C 
BRANCH  18  19
ATOM     19  O   UNL     1      -1.439  11.528  18.532  0.00  0.00    +0.000 OA
BRANCH  19  20
ATOM     20  C   UNL     1      -2.778  11.672  18.289  0.00  0.00    +0.000 A 
ATOM     21  C   UNL     1      -3.482  12.184  19.394  0.00  0.00    +0.000 A 
ATOM     22  C   UNL     1      -4.876  12.285  19.386  0.00  0.00    +0.000 A 
ATOM     23  C   UNL     1      -5.589  11.874  18.268  0.00  0.00    +0.000 A 
ATOM     24  C   UNL     1      -4.907  11.371  17.163  0.00  0.00    +0.000 A 
ATOM     25  C   UNL     1      -3.507  11.254  17.168  0.00  0.00    +0.000 A 
ATOM     26 BR   UNL     1      -2.791  10.398  15.632  0.00  0.00    +0.000 Br
ENDBRANCH  19  20
ENDBRANCH  18  19
ENDBRANCH   4  18
TORSDOF 6
ENDMDL
