MODEL 1
REMARK VINA RESULT:      -7.4      0.000      0.000
REMARK  Name = 
REMARK  0 active torsions:
REMARK  status: ('A' for Active; 'I' for Inactive)
REMARK                            x       y       z     vdW  Elec       q    Type
REMARK                         _______ _______ _______ _____ _____    ______ ____
ROOT
ATOM      1  O   UNL     1       7.357   5.022  14.523  0.00  0.00    +0.000 OA
ATOM      2  C   UNL     1       6.908   4.786  15.645  0.00  0.00    +0.000 C 
ATOM      3  C   UNL     1       5.424   4.605  15.883  0.00  0.00    +0.000 C 
ATOM      4  N   UNL     1       5.074   4.504  17.287  0.00  0.00    +0.000 N 
ATOM      5  C   UNL     1       6.000   4.614  18.291  0.00  0.00    +0.000 A 
ATOM      6  C   UNL     1       5.311   4.558  19.485  0.00  0.00    +0.000 A 
ATOM      7  C   UNL     1       3.940   4.330  19.188  0.00  0.00    +0.000 A 
ATOM      8  C   UNL     1       2.790   4.140  19.984  0.00  0.00    +0.000 A 
ATOM      9  C   UNL     1       1.559   3.905  19.362  0.00  0.00    +0.000 A 
ATOM     10  C   UNL     1       1.459   3.869  17.974  0.00  0.00    +0.000 A 
ATOM     11  C   UNL     1       2.582   4.069  17.164  0.00  0.00    +0.000 A 
ATOM     12  C   UNL     1       3.814   4.292  17.797  0.00  0.00    +0.000 A 
ATOM     13  C   UNL     1       7.408   4.749  18.044  0.00  0.00    +0.000 C 
ATOM     14  O   UNL     1       8.257   4.919  18.912  0.00  0.00    +0.000 OA
ATOM     15  N   UNL     1       7.760   4.691  16.717  0.00  0.00    +0.000 N 
ATOM     16  H   UNL     1       8.741   4.830  16.526  0.00  0.00    +0.000 HD
ENDROOT
TORSDOF 0
ENDMDL
MODEL 2
REMARK VINA RESULT:      -7.1      1.176      2.735
REMARK  Name = 
REMARK  0 active torsions:
REMARK  status: ('A' for Active; 'I' for Inactive)
REMARK                            x       y       z     vdW  Elec       q    Type
REMARK                         _______ _______ _______ _____ _____    ______ ____
ROOT
ATOM      1  O   UNL     1       7.853   5.874  18.827  0.00  0.00    +0.000 OA
ATOM      2  C   UNL     1       6.800   5.400  18.399  0.00  0.00    +0.000 C 
ATOM      3  C   UNL     1       5.588   5.230  19.290  0.00  0.00    +0.000 C 
ATOM      4  N   UNL     1       4.505   4.502  18.656  0.00  0.00    +0.000 N 
ATOM      5  C   UNL     1       4.602   3.982  17.391  0.00  0.00    +0.000 A 
ATOM      6  C   UNL     1       3.434   3.289  17.148  0.00  0.00    +0.000 A 
ATOM      7  C   UNL     1       2.581   3.464  18.270  0.00  0.00    +0.000 A 
ATOM      8  C   UNL     1       1.268   3.039  18.571  0.00  0.00    +0.000 A 
ATOM      9  C   UNL     1       0.690   3.416  19.787  0.00  0.00    +0.000 A 
ATOM     10  C   UNL     1       1.398   4.190  20.702  0.00  0.00    +0.000 A 
ATOM     11  C   UNL     1       2.705   4.609  20.434  0.00  0.00    +0.000 A 
ATOM     12  C   UNL     1       3.272   4.237  19.206  0.00  0.00    +0.000 A 
ATOM     13  C   UNL     1       5.747   4.185  16.549  0.00  0.00    +0.000 C 
ATOM     14  O   UNL     1       5.899   3.680  15.443  0.00  0.00    +0.000 OA
ATOM     15  N   UNL     1       6.711   5.003  17.088  0.00  0.00    +0.000 N 
ATOM     16  H   UNL     1       7.541   5.117  16.525  0.00  0.00    +0.000 HD
ENDROOT
TORSDOF 0
ENDMDL
MODEL 3
REMARK VINA RESULT:      -7.0      1.577      1.577
REMARK  Name = 
REMARK  0 active torsions:
REMARK  status: ('A' for Active; 'I' for Inactive)
REMARK                            x       y       z     vdW  Elec       q    Type
REMARK                         _______ _______ _______ _____ _____    ______ ____
ROOT
ATOM      1  O   UNL     1       7.030   4.299  13.920  0.00  0.00    +0.000 OA
ATOM      2  C   UNL     1       6.509   4.676  14.970  0.00  0.00    +0.000 C 
ATOM      3  C   UNL     1       5.245   4.034  15.501  0.00  0.00    +0.000 C 
ATOM      4  N   UNL     1       4.690   4.720  16.652  0.00  0.00    +0.000 N 
ATOM      5  C   UNL     1       5.239   5.866  17.167  0.00  0.00    +0.000 A 
ATOM      6  C   UNL     1       4.412   6.287  18.189  0.00  0.00    +0.000 A 
ATOM      7  C   UNL     1       3.381   5.322  18.341  0.00  0.00    +0.000 A 
ATOM      8  C   UNL     1       2.294   5.191  19.233  0.00  0.00    +0.000 A 
ATOM      9  C   UNL     1       1.456   4.077  19.131  0.00  0.00    +0.000 A 
ATOM     10  C   UNL     1       1.675   3.109  18.154  0.00  0.00    +0.000 A 
ATOM     11  C   UNL     1       2.735   3.226  17.248  0.00  0.00    +0.000 A 
ATOM     12  C   UNL     1       3.578   4.340  17.367  0.00  0.00    +0.000 A 
ATOM     13  C   UNL     1       6.458   6.439  16.671  0.00  0.00    +0.000 C 
ATOM     14  O   UNL     1       6.942   7.497  17.059  0.00  0.00    +0.000 OA
ATOM     15  N   UNL     1       7.069   5.707  15.682  0.00  0.00    +0.000 N 
ATOM     16  H   UNL     1       7.903   6.122  15.293  0.00  0.00    +0.000 HD
ENDROOT
TORSDOF 0
ENDMDL
MODEL 4
REMARK VINA RESULT:      -7.0      1.224      2.713
REMARK  Name = 
REMARK  0 active torsions:
REMARK  status: ('A' for Active; 'I' for Inactive)
REMARK                            x       y       z     vdW  Elec       q    Type
REMARK                         _______ _______ _______ _____ _____    ______ ____
ROOT
ATOM      1  O   UNL     1       8.305   7.101  18.664  0.00  0.00    +0.000 OA
ATOM      2  C   UNL     1       7.403   6.505  18.073  0.00  0.00    +0.000 C 
ATOM      3  C   UNL     1       6.241   5.886  18.819  0.00  0.00    +0.000 C 
ATOM      4  N   UNL     1       5.375   5.085  17.974  0.00  0.00    +0.000 N 
ATOM      5  C   UNL     1       5.625   4.878  16.643  0.00  0.00    +0.000 A 
ATOM      6  C   UNL     1       4.658   4.009  16.180  0.00  0.00    +0.000 A 
ATOM      7  C   UNL     1       3.757   3.750  17.247  0.00  0.00    +0.000 A 
ATOM      8  C   UNL     1       2.573   2.989  17.359  0.00  0.00    +0.000 A 
ATOM      9  C   UNL     1       1.889   2.963  18.578  0.00  0.00    +0.000 A 
ATOM     10  C   UNL     1       2.372   3.665  19.679  0.00  0.00    +0.000 A 
ATOM     11  C   UNL     1       3.552   4.412  19.598  0.00  0.00    +0.000 A 
ATOM     12  C   UNL     1       4.223   4.443  18.366  0.00  0.00    +0.000 A 
ATOM     13  C   UNL     1       6.713   5.503  15.945  0.00  0.00    +0.000 C 
ATOM     14  O   UNL     1       7.009   5.289  14.775  0.00  0.00    +0.000 OA
ATOM     15  N   UNL     1       7.445   6.383  16.707  0.00  0.00    +0.000 N 
ATOM     16  H   UNL     1       8.240   6.795  16.242  0.00  0.00    +0.000 HD
ENDROOT
TORSDOF 0
ENDMDL
MODEL 5
REMARK VINA RESULT:      -7.0      3.391      5.695
REMARK  Name = 
REMARK  0 active torsions:
REMARK  status: ('A' for Active; 'I' for Inactive)
REMARK                            x       y       z     vdW  Elec       q    Type
REMARK                         _______ _______ _______ _____ _____    ______ ____
ROOT
ATOM      1  O   UNL     1       2.025   3.128  22.403  0.00  0.00    +0.000 OA
ATOM      2  C   UNL     1       2.247   3.049  21.194  0.00  0.00    +0.000 C 
ATOM      3  C   UNL     1       3.513   3.610  20.583  0.00  0.00    +0.000 C 
ATOM      4  N   UNL     1       3.518   3.573  19.133  0.00  0.00    +0.000 N 
ATOM      5  C   UNL     1       2.452   3.119  18.400  0.00  0.00    +0.000 A 
ATOM      6  C   UNL     1       2.766   3.308  17.069  0.00  0.00    +0.000 A 
ATOM      7  C   UNL     1       4.090   3.820  17.002  0.00  0.00    +0.000 A 
ATOM      8  C   UNL     1       4.949   4.158  15.934  0.00  0.00    +0.000 A 
ATOM      9  C   UNL     1       6.239   4.622  16.215  0.00  0.00    +0.000 A 
ATOM     10  C   UNL     1       6.673   4.763  17.530  0.00  0.00    +0.000 A 
ATOM     11  C   UNL     1       5.834   4.449  18.604  0.00  0.00    +0.000 A 
ATOM     12  C   UNL     1       4.547   3.972  18.313  0.00  0.00    +0.000 A 
ATOM     13  C   UNL     1       1.275   2.557  18.999  0.00  0.00    +0.000 C 
ATOM     14  O   UNL     1       0.276   2.205  18.381  0.00  0.00    +0.000 OA
ATOM     15  N   UNL     1       1.330   2.449  20.368  0.00  0.00    +0.000 N 
ATOM     16  H   UNL     1       0.491   2.098  20.805  0.00  0.00    +0.000 HD
ENDROOT
TORSDOF 0
ENDMDL
MODEL 6
REMARK VINA RESULT:      -6.9      3.431      5.230
REMARK  Name = 
REMARK  0 active torsions:
REMARK  status: ('A' for Active; 'I' for Inactive)
REMARK                            x       y       z     vdW  Elec       q    Type
REMARK                         _______ _______ _______ _____ _____    ______ ____
ROOT
ATOM      1  O   UNL     1       2.208   3.544  21.753  0.00  0.00    +0.000 OA
ATOM      2  C   UNL     1       2.431   4.308  20.813  0.00  0.00    +0.000 C 
ATOM      3  C   UNL     1       3.303   3.894  19.646  0.00  0.00    +0.000 C 
ATOM      4  N   UNL     1       3.586   4.979  18.726  0.00  0.00    +0.000 N 
ATOM      5  C   UNL     1       3.142   6.260  18.931  0.00  0.00    +0.000 A 
ATOM      6  C   UNL     1       3.665   7.037  17.917  0.00  0.00    +0.000 A 
ATOM      7  C   UNL     1       4.379   6.181  17.036  0.00  0.00    +0.000 A 
ATOM      8  C   UNL     1       5.073   6.392  15.825  0.00  0.00    +0.000 A 
ATOM      9  C   UNL     1       5.659   5.302  15.174  0.00  0.00    +0.000 A 
ATOM     10  C   UNL     1       5.575   4.022  15.715  0.00  0.00    +0.000 A 
ATOM     11  C   UNL     1       4.906   3.791  16.922  0.00  0.00    +0.000 A 
ATOM     12  C   UNL     1       4.310   4.889  17.560  0.00  0.00    +0.000 A 
ATOM     13  C   UNL     1       2.286   6.624  20.025  0.00  0.00    +0.000 C 
ATOM     14  O   UNL     1       1.927   7.768  20.280  0.00  0.00    +0.000 OA
ATOM     15  N   UNL     1       1.891   5.570  20.812  0.00  0.00    +0.000 N 
ATOM     16  H   UNL     1       1.326   5.818  21.611  0.00  0.00    +0.000 HD
ENDROOT
TORSDOF 0
ENDMDL
MODEL 7
REMARK VINA RESULT:      -6.9      1.559      2.508
REMARK  Name = 
REMARK  0 active torsions:
REMARK  status: ('A' for Active; 'I' for Inactive)
REMARK                            x       y       z     vdW  Elec       q    Type
REMARK                         _______ _______ _______ _____ _____    ______ ____
ROOT
ATOM      1  O   UNL     1       7.784   7.145  16.854  0.00  0.00    +0.000 OA
ATOM      2  C   UNL     1       6.811   6.393  16.787  0.00  0.00    +0.000 C 
ATOM      3  C   UNL     1       5.745   6.380  17.862  0.00  0.00    +0.000 C 
ATOM      4  N   UNL     1       4.773   5.316  17.696  0.00  0.00    +0.000 N 
ATOM      5  C   UNL     1       4.854   4.389  16.690  0.00  0.00    +0.000 A 
ATOM      6  C   UNL     1       3.829   3.486  16.888  0.00  0.00    +0.000 A 
ATOM      7  C   UNL     1       3.066   3.930  18.001  0.00  0.00    +0.000 A 
ATOM      8  C   UNL     1       1.897   3.451  18.633  0.00  0.00    +0.000 A 
ATOM      9  C   UNL     1       1.371   4.156  19.720  0.00  0.00    +0.000 A 
ATOM     10  C   UNL     1       1.993   5.309  20.189  0.00  0.00    +0.000 A 
ATOM     11  C   UNL     1       3.161   5.794  19.589  0.00  0.00    +0.000 A 
ATOM     12  C   UNL     1       3.674   5.088  18.491  0.00  0.00    +0.000 A 
ATOM     13  C   UNL     1       5.852   4.440  15.659  0.00  0.00    +0.000 C 
ATOM     14  O   UNL     1       5.999   3.593  14.785  0.00  0.00    +0.000 OA
ATOM     15  N   UNL     1       6.681   5.534  15.725  0.00  0.00    +0.000 N 
ATOM     16  H   UNL     1       7.416   5.558  15.033  0.00  0.00    +0.000 HD
ENDROOT
TORSDOF 0
ENDMDL
MODEL 8
REMARK VINA RESULT:      -6.8      3.431      4.845
REMARK  Name = 
REMARK  0 active torsions:
REMARK  status: ('A' for Active; 'I' for Inactive)
REMARK                            x       y       z     vdW  Elec       q    Type
REMARK                         _______ _______ _______ _____ _____    ______ ____
ROOT
ATOM      1  O   UNL     1       5.291   1.333  20.377  0.00  0.00    +0.000 OA
ATOM      2  C   UNL     1       4.447   2.228  20.315  0.00  0.00    +0.000 C 
ATOM      3  C   UNL     1       4.641   3.438  19.426  0.00  0.00    +0.000 C 
ATOM      4  N   UNL     1       3.627   4.459  19.615  0.00  0.00    +0.000 N 
ATOM      5  C   UNL     1       2.627   4.347  20.546  0.00  0.00    +0.000 A 
ATOM      6  C   UNL     1       1.908   5.524  20.510  0.00  0.00    +0.000 A 
ATOM      7  C   UNL     1       2.446   6.333  19.474  0.00  0.00    +0.000 A 
ATOM      8  C   UNL     1       2.103   7.598  18.948  0.00  0.00    +0.000 A 
ATOM      9  C   UNL     1       2.838   8.116  17.878  0.00  0.00    +0.000 A 
ATOM     10  C   UNL     1       3.907   7.405  17.339  0.00  0.00    +0.000 A 
ATOM     11  C   UNL     1       4.276   6.157  17.853  0.00  0.00    +0.000 A 
ATOM     12  C   UNL     1       3.524   5.640  18.918  0.00  0.00    +0.000 A 
ATOM     13  C   UNL     1       2.440   3.175  21.354  0.00  0.00    +0.000 C 
ATOM     14  O   UNL     1       1.602   3.065  22.242  0.00  0.00    +0.000 OA
ATOM     15  N   UNL     1       3.304   2.145  21.070  0.00  0.00    +0.000 N 
ATOM     16  H   UNL     1       3.213   1.332  21.662  0.00  0.00    +0.000 HD
ENDROOT
TORSDOF 0
ENDMDL
MODEL 9
REMARK VINA RESULT:      -6.8      3.175      4.994
REMARK  Name = 
REMARK  0 active torsions:
REMARK  status: ('A' for Active; 'I' for Inactive)
REMARK                            x       y       z     vdW  Elec       q    Type
REMARK                         _______ _______ _______ _____ _____    ______ ____
ROOT
ATOM      1  O   UNL     1       0.302   2.105  18.411  0.00  0.00    +0.000 OA
ATOM      2  C   UNL     1       1.206   2.925  18.576  0.00  0.00    +0.000 C 
ATOM      3  C   UNL     1       2.400   2.986  17.648  0.00  0.00    +0.000 C 
ATOM      4  N   UNL     1       3.435   3.897  18.100  0.00  0.00    +0.000 N 
ATOM      5  C   UNL     1       3.348   4.590  19.279  0.00  0.00    +0.000 A 
ATOM      6  C   UNL     1       4.532   5.283  19.430  0.00  0.00    +0.000 A 
ATOM      7  C   UNL     1       5.319   5.058  18.269  0.00  0.00    +0.000 A 
ATOM      8  C   UNL     1       6.580   5.529  17.841  0.00  0.00    +0.000 A 
ATOM      9  C   UNL     1       7.074   5.127  16.596  0.00  0.00    +0.000 A 
ATOM     10  C   UNL     1       6.343   4.261  15.787  0.00  0.00    +0.000 A 
ATOM     11  C   UNL     1       5.099   3.768  16.196  0.00  0.00    +0.000 A 
ATOM     12  C   UNL     1       4.606   4.188  17.441  0.00  0.00    +0.000 A 
ATOM     13  C   UNL     1       2.191   4.546  20.128  0.00  0.00    +0.000 C 
ATOM     14  O   UNL     1       2.104   5.096  21.220  0.00  0.00    +0.000 OA
ATOM     15  N   UNL     1       1.147   3.805  19.628  0.00  0.00    +0.000 N 
ATOM     16  H   UNL     1       0.344   3.729  20.235  0.00  0.00    +0.000 HD
ENDROOT
TORSDOF 0
ENDMDL
