MODEL 1
REMARK VINA RESULT:      -8.3      0.000      0.000
REMARK  Name = 
REMARK  3 active torsions:
REMARK  status: ('A' for Active; 'I' for Inactive)
REMARK    1  A    between atoms: C_2  and  C_3
REMARK    2  A    between atoms: C_3  and  N_4
REMARK    3  A    between atoms: N_15  and  C_16
REMARK                            x       y       z     vdW  Elec       q    Type
REMARK                         _______ _______ _______ _____ _____    ______ ____
ROOT
ATOM      1  O   UNL     1       1.040   4.896  20.380  0.00  0.00    +0.000 OA
ATOM      2  C   UNL     1       2.221   5.233  20.362  0.00  0.00    +0.000 C 
ATOM      3  N   UNL     1       2.689   6.532  20.233  0.00  0.00    +0.000 N 
ATOM      4  H   UNL     1       3.660   6.649  19.930  0.00  0.00    +0.000 HD
ENDROOT
BRANCH   3   5
ATOM      5  C   UNL     1       1.891   7.708  20.214  0.00  0.00    +0.000 A 
ATOM      6  C   UNL     1       1.164   8.139  21.331  0.00  0.00    +0.000 A 
ATOM      7  C   UNL     1       0.332   9.258  21.251  0.00  0.00    +0.000 A 
ATOM      8 CL   UNL     1      -0.588   9.737  22.626  0.00  0.00    +0.000 Cl
ATOM      9  C   UNL     1       0.230   9.985  20.069  0.00  0.00    +0.000 A 
ATOM     10  C   UNL     1       0.988   9.604  18.963  0.00  0.00    +0.000 A 
ATOM     11  C   UNL     1       1.820   8.479  19.037  0.00  0.00    +0.000 A 
ATOM     12 CL   UNL     1       2.732   8.054  17.632  0.00  0.00    +0.000 Cl
ENDBRANCH   3   5
BRANCH   2  13
ATOM     13  C   UNL     1       3.314   4.169  20.365  0.00  0.00    +0.000 C 
BRANCH  13  14
ATOM     14  N   UNL     1       3.892   4.103  19.034  0.00  0.00    +0.000 N 
ATOM     15  C   UNL     1       3.108   3.775  17.953  0.00  0.00    +0.000 A 
ATOM     16  N   UNL     1       3.515   3.750  16.729  0.00  0.00    +0.000 NA
ATOM     17  C   UNL     1       4.846   4.117  16.475  0.00  0.00    +0.000 A 
ATOM     18  C   UNL     1       5.291   4.174  15.153  0.00  0.00    +0.000 A 
ATOM     19  C   UNL     1       6.599   4.572  14.862  0.00  0.00    +0.000 A 
ATOM     20  C   UNL     1       7.480   4.897  15.893  0.00  0.00    +0.000 A 
ATOM     21  C   UNL     1       7.052   4.834  17.219  0.00  0.00    +0.000 A 
ATOM     22  C   UNL     1       5.733   4.457  17.497  0.00  0.00    +0.000 A 
ATOM     23  C   UNL     1       5.219   4.466  18.879  0.00  0.00    +0.000 A 
ATOM     24  O   UNL     1       5.928   4.825  19.818  0.00  0.00    +0.000 OA
ENDBRANCH  13  14
ENDBRANCH   2  13
TORSDOF 3
ENDMDL
MODEL 2
REMARK VINA RESULT:      -8.0      1.096      1.705
REMARK  Name = 
REMARK  3 active torsions:
REMARK  status: ('A' for Active; 'I' for Inactive)
REMARK    1  A    between atoms: C_2  and  C_3
REMARK    2  A    between atoms: C_3  and  N_4
REMARK    3  A    between atoms: N_15  and  C_16
REMARK                            x       y       z     vdW  Elec       q    Type
REMARK                         _______ _______ _______ _____ _____    ______ ____
ROOT
ATOM      1  O   UNL     1       1.025   4.829  20.242  0.00  0.00    +0.000 OA
ATOM      2  C   UNL     1       2.207   5.158  20.208  0.00  0.00    +0.000 C 
ATOM      3  N   UNL     1       2.682   6.458  20.122  0.00  0.00    +0.000 N 
ATOM      4  H   UNL     1       3.646   6.580  19.798  0.00  0.00    +0.000 HD
ENDROOT
BRANCH   3   5
ATOM      5  C   UNL     1       1.894   7.640  20.174  0.00  0.00    +0.000 A 
ATOM      6  C   UNL     1       1.177   8.013  21.318  0.00  0.00    +0.000 A 
ATOM      7  C   UNL     1       0.354   9.141  21.306  0.00  0.00    +0.000 A 
ATOM      8 CL   UNL     1      -0.551   9.551  22.713  0.00  0.00    +0.000 Cl
ATOM      9  C   UNL     1       0.249   9.934  20.167  0.00  0.00    +0.000 A 
ATOM     10  C   UNL     1       0.996   9.608  19.036  0.00  0.00    +0.000 A 
ATOM     11  C   UNL     1       1.820   8.475  19.041  0.00  0.00    +0.000 A 
ATOM     12 CL   UNL     1       2.719   8.121  17.608  0.00  0.00    +0.000 Cl
ENDBRANCH   3   5
BRANCH   2  13
ATOM     13  C   UNL     1       3.291   4.087  20.136  0.00  0.00    +0.000 C 
BRANCH  13  14
ATOM     14  N   UNL     1       4.235   4.459  19.096  0.00  0.00    +0.000 N 
ATOM     15  C   UNL     1       5.396   5.119  19.419  0.00  0.00    +0.000 A 
ATOM     16  N   UNL     1       6.321   5.436  18.576  0.00  0.00    +0.000 NA
ATOM     17  C   UNL     1       6.146   5.051  17.238  0.00  0.00    +0.000 A 
ATOM     18  C   UNL     1       7.164   5.313  16.320  0.00  0.00    +0.000 A 
ATOM     19  C   UNL     1       7.040   4.909  14.988  0.00  0.00    +0.000 A 
ATOM     20  C   UNL     1       5.885   4.257  14.558  0.00  0.00    +0.000 A 
ATOM     21  C   UNL     1       4.854   3.999  15.461  0.00  0.00    +0.000 A 
ATOM     22  C   UNL     1       5.000   4.386  16.797  0.00  0.00    +0.000 A 
ATOM     23  C   UNL     1       3.972   4.051  17.800  0.00  0.00    +0.000 A 
ATOM     24  O   UNL     1       2.972   3.404  17.491  0.00  0.00    +0.000 OA
ENDBRANCH  13  14
ENDBRANCH   2  13
TORSDOF 3
ENDMDL
MODEL 3
REMARK VINA RESULT:      -7.2      3.602      8.598
REMARK  Name = 
REMARK  3 active torsions:
REMARK  status: ('A' for Active; 'I' for Inactive)
REMARK    1  A    between atoms: C_2  and  C_3
REMARK    2  A    between atoms: C_3  and  N_4
REMARK    3  A    between atoms: N_15  and  C_16
REMARK                            x       y       z     vdW  Elec       q    Type
REMARK                         _______ _______ _______ _____ _____    ______ ____
ROOT
ATOM      1  O   UNL     1      -0.065   7.806  21.299  0.00  0.00    +0.000 OA
ATOM      2  C   UNL     1       1.081   8.240  21.218  0.00  0.00    +0.000 C 
ATOM      3  N   UNL     1       2.160   7.572  20.658  0.00  0.00    +0.000 N 
ATOM      4  H   UNL     1       3.095   7.897  20.922  0.00  0.00    +0.000 HD
ENDROOT
BRANCH   3   5
ATOM      5  C   UNL     1       2.109   6.325  19.979  0.00  0.00    +0.000 A 
ATOM      6  C   UNL     1       1.759   5.133  20.626  0.00  0.00    +0.000 A 
ATOM      7  C   UNL     1       1.793   3.915  19.942  0.00  0.00    +0.000 A 
ATOM      8 CL   UNL     1       1.403   2.459  20.775  0.00  0.00    +0.000 Cl
ATOM      9  C   UNL     1       2.148   3.864  18.598  0.00  0.00    +0.000 A 
ATOM     10  C   UNL     1       2.446   5.048  17.923  0.00  0.00    +0.000 A 
ATOM     11  C   UNL     1       2.418   6.271  18.606  0.00  0.00    +0.000 A 
ATOM     12 CL   UNL     1       2.802   7.702  17.716  0.00  0.00    +0.000 Cl
ENDBRANCH   3   5
BRANCH   2  13
ATOM     13  C   UNL     1       1.437   9.571  21.873  0.00  0.00    +0.000 C 
BRANCH  13  14
ATOM     14  N   UNL     1       0.376  10.521  21.585  0.00  0.00    +0.000 N 
ATOM     15  C   UNL     1       0.225  11.026  20.316  0.00  0.00    +0.000 A 
ATOM     16  N   UNL     1      -0.721  11.825  19.949  0.00  0.00    +0.000 NA
ATOM     17  C   UNL     1      -1.685  12.178  20.905  0.00  0.00    +0.000 A 
ATOM     18  C   UNL     1      -2.761  12.979  20.517  0.00  0.00    +0.000 A 
ATOM     19  C   UNL     1      -3.760  13.318  21.433  0.00  0.00    +0.000 A 
ATOM     20  C   UNL     1      -3.680  12.876  22.754  0.00  0.00    +0.000 A 
ATOM     21  C   UNL     1      -2.605  12.086  23.159  0.00  0.00    +0.000 A 
ATOM     22  C   UNL     1      -1.624  11.732  22.226  0.00  0.00    +0.000 A 
ATOM     23  C   UNL     1      -0.521  10.825  22.595  0.00  0.00    +0.000 A 
ATOM     24  O   UNL     1      -0.448  10.340  23.723  0.00  0.00    +0.000 OA
ENDBRANCH  13  14
ENDBRANCH   2  13
TORSDOF 3
ENDMDL
MODEL 4
REMARK VINA RESULT:      -7.2      2.278      3.606
REMARK  Name = 
REMARK  3 active torsions:
REMARK  status: ('A' for Active; 'I' for Inactive)
REMARK    1  A    between atoms: C_2  and  C_3
REMARK    2  A    between atoms: C_3  and  N_4
REMARK    3  A    between atoms: N_15  and  C_16
REMARK                            x       y       z     vdW  Elec       q    Type
REMARK                         _______ _______ _______ _____ _____    ______ ____
ROOT
ATOM      1  O   UNL     1       5.612   5.766  19.735  0.00  0.00    +0.000 OA
ATOM      2  C   UNL     1       4.996   5.156  18.864  0.00  0.00    +0.000 C 
ATOM      3  N   UNL     1       3.685   5.400  18.481  0.00  0.00    +0.000 N 
ATOM      4  H   UNL     1       3.201   4.649  17.981  0.00  0.00    +0.000 HD
ENDROOT
BRANCH   3   5
ATOM      5  C   UNL     1       2.865   6.464  18.942  0.00  0.00    +0.000 A 
ATOM      6  C   UNL     1       2.716   7.660  18.228  0.00  0.00    +0.000 A 
ATOM      7  C   UNL     1       1.961   8.713  18.750  0.00  0.00    +0.000 A 
ATOM      8 CL   UNL     1       1.834  10.188  17.872  0.00  0.00    +0.000 Cl
ATOM      9  C   UNL     1       1.318   8.586  19.977  0.00  0.00    +0.000 A 
ATOM     10  C   UNL     1       1.410   7.383  20.678  0.00  0.00    +0.000 A 
ATOM     11  C   UNL     1       2.170   6.327  20.160  0.00  0.00    +0.000 A 
ATOM     12 CL   UNL     1       2.249   4.863  21.076  0.00  0.00    +0.000 Cl
ENDBRANCH   3   5
BRANCH   2  13
ATOM     13  C   UNL     1       5.634   3.945  18.191  0.00  0.00    +0.000 C 
BRANCH  13  14
ATOM     14  N   UNL     1       6.100   4.346  16.874  0.00  0.00    +0.000 N 
ATOM     15  C   UNL     1       7.060   5.321  16.746  0.00  0.00    +0.000 A 
ATOM     16  N   UNL     1       7.579   5.700  15.627  0.00  0.00    +0.000 NA
ATOM     17  C   UNL     1       7.159   5.048  14.457  0.00  0.00    +0.000 A 
ATOM     18  C   UNL     1       7.759   5.385  13.243  0.00  0.00    +0.000 A 
ATOM     19  C   UNL     1       7.393   4.728  12.064  0.00  0.00    +0.000 A 
ATOM     20  C   UNL     1       6.406   3.743  12.088  0.00  0.00    +0.000 A 
ATOM     21  C   UNL     1       5.790   3.405  13.292  0.00  0.00    +0.000 A 
ATOM     22  C   UNL     1       6.182   4.051  14.469  0.00  0.00    +0.000 A 
ATOM     23  C   UNL     1       5.618   3.658  15.774  0.00  0.00    +0.000 A 
ATOM     24  O   UNL     1       4.806   2.738  15.862  0.00  0.00    +0.000 OA
ENDBRANCH  13  14
ENDBRANCH   2  13
TORSDOF 3
ENDMDL
MODEL 5
REMARK VINA RESULT:      -6.9      4.142      6.233
REMARK  Name = 
REMARK  3 active torsions:
REMARK  status: ('A' for Active; 'I' for Inactive)
REMARK    1  A    between atoms: C_2  and  C_3
REMARK    2  A    between atoms: C_3  and  N_4
REMARK    3  A    between atoms: N_15  and  C_16
REMARK                            x       y       z     vdW  Elec       q    Type
REMARK                         _______ _______ _______ _____ _____    ______ ____
ROOT
ATOM      1  O   UNL     1      -0.337  12.536  18.912  0.00  0.00    +0.000 OA
ATOM      2  C   UNL     1      -0.425  11.358  19.248  0.00  0.00    +0.000 C 
ATOM      3  N   UNL     1      -1.477  10.508  18.941  0.00  0.00    +0.000 N 
ATOM      4  H   UNL     1      -1.580   9.669  19.520  0.00  0.00    +0.000 HD
ENDROOT
BRANCH   3   5
ATOM      5  C   UNL     1      -2.576  10.811  18.093  0.00  0.00    +0.000 A 
ATOM      6  C   UNL     1      -2.684  10.296  16.794  0.00  0.00    +0.000 A 
ATOM      7  C   UNL     1      -3.740  10.677  15.963  0.00  0.00    +0.000 A 
ATOM      8 CL   UNL     1      -3.824  10.065  14.356  0.00  0.00    +0.000 Cl
ATOM      9  C   UNL     1      -4.722  11.553  16.416  0.00  0.00    +0.000 A 
ATOM     10  C   UNL     1      -4.659  12.034  17.724  0.00  0.00    +0.000 A 
ATOM     11  C   UNL     1      -3.599  11.658  18.559  0.00  0.00    +0.000 A 
ATOM     12 CL   UNL     1      -3.575  12.290  20.168  0.00  0.00    +0.000 Cl
ENDBRANCH   3   5
BRANCH   2  13
ATOM     13  C   UNL     1       0.622  10.754  20.178  0.00  0.00    +0.000 C 
BRANCH  13  14
ATOM     14  N   UNL     1       1.266   9.650  19.486  0.00  0.00    +0.000 N 
ATOM     15  C   UNL     1       1.736   9.816  18.206  0.00  0.00    +0.000 A 
ATOM     16  N   UNL     1       2.374   8.917  17.534  0.00  0.00    +0.000 NA
ATOM     17  C   UNL     1       2.638   7.692  18.167  0.00  0.00    +0.000 A 
ATOM     18  C   UNL     1       3.392   6.731  17.492  0.00  0.00    +0.000 A 
ATOM     19  C   UNL     1       3.706   5.515  18.107  0.00  0.00    +0.000 A 
ATOM     20  C   UNL     1       3.249   5.243  19.396  0.00  0.00    +0.000 A 
ATOM     21  C   UNL     1       2.485   6.189  20.078  0.00  0.00    +0.000 A 
ATOM     22  C   UNL     1       2.197   7.412  19.462  0.00  0.00    +0.000 A 
ATOM     23  C   UNL     1       1.469   8.472  20.184  0.00  0.00    +0.000 A 
ATOM     24  O   UNL     1       1.116   8.316  21.352  0.00  0.00    +0.000 OA
ENDBRANCH  13  14
ENDBRANCH   2  13
TORSDOF 3
ENDMDL
MODEL 6
REMARK VINA RESULT:      -6.8      4.253      7.506
REMARK  Name = 
REMARK  3 active torsions:
REMARK  status: ('A' for Active; 'I' for Inactive)
REMARK    1  A    between atoms: C_2  and  C_3
REMARK    2  A    between atoms: C_3  and  N_4
REMARK    3  A    between atoms: N_15  and  C_16
REMARK                            x       y       z     vdW  Elec       q    Type
REMARK                         _______ _______ _______ _____ _____    ______ ____
ROOT
ATOM      1  O   UNL     1       5.021   7.005  15.235  0.00  0.00    +0.000 OA
ATOM      2  C   UNL     1       5.730   6.251  15.896  0.00  0.00    +0.000 C 
ATOM      3  N   UNL     1       6.340   5.097  15.427  0.00  0.00    +0.000 N 
ATOM      4  H   UNL     1       6.638   4.411  16.127  0.00  0.00    +0.000 HD
ENDROOT
BRANCH   3   5
ATOM      5  C   UNL     1       6.348   4.646  14.079  0.00  0.00    +0.000 A 
ATOM      6  C   UNL     1       5.271   3.949  13.515  0.00  0.00    +0.000 A 
ATOM      7  C   UNL     1       5.347   3.456  12.210  0.00  0.00    +0.000 A 
ATOM      8 CL   UNL     1       4.027   2.563  11.559  0.00  0.00    +0.000 Cl
ATOM      9  C   UNL     1       6.481   3.672  11.434  0.00  0.00    +0.000 A 
ATOM     10  C   UNL     1       7.541   4.410  11.959  0.00  0.00    +0.000 A 
ATOM     11  C   UNL     1       7.471   4.902  13.269  0.00  0.00    +0.000 A 
ATOM     12 CL   UNL     1       8.819   5.806  13.866  0.00  0.00    +0.000 Cl
ENDBRANCH   3   5
BRANCH   2  13
ATOM     13  C   UNL     1       5.900   6.487  17.394  0.00  0.00    +0.000 C 
BRANCH  13  14
ATOM     14  N   UNL     1       5.113   5.495  18.106  0.00  0.00    +0.000 N 
ATOM     15  C   UNL     1       5.706   4.349  18.580  0.00  0.00    +0.000 A 
ATOM     16  N   UNL     1       5.106   3.442  19.274  0.00  0.00    +0.000 NA
ATOM     17  C   UNL     1       3.757   3.654  19.599  0.00  0.00    +0.000 A 
ATOM     18  C   UNL     1       3.104   2.726  20.413  0.00  0.00    +0.000 A 
ATOM     19  C   UNL     1       1.772   2.925  20.787  0.00  0.00    +0.000 A 
ATOM     20  C   UNL     1       1.075   4.044  20.333  0.00  0.00    +0.000 A 
ATOM     21  C   UNL     1       1.711   4.972  19.509  0.00  0.00    +0.000 A 
ATOM     22  C   UNL     1       3.052   4.776  19.161  0.00  0.00    +0.000 A 
ATOM     23  C   UNL     1       3.784   5.780  18.367  0.00  0.00    +0.000 A 
ATOM     24  O   UNL     1       3.241   6.826  18.011  0.00  0.00    +0.000 OA
ENDBRANCH  13  14
ENDBRANCH   2  13
TORSDOF 3
ENDMDL
MODEL 7
REMARK VINA RESULT:      -6.8      4.251      7.416
REMARK  Name = 
REMARK  3 active torsions:
REMARK  status: ('A' for Active; 'I' for Inactive)
REMARK    1  A    between atoms: C_2  and  C_3
REMARK    2  A    between atoms: C_3  and  N_4
REMARK    3  A    between atoms: N_15  and  C_16
REMARK                            x       y       z     vdW  Elec       q    Type
REMARK                         _______ _______ _______ _____ _____    ______ ____
ROOT
ATOM      1  O   UNL     1       5.245   6.929  15.402  0.00  0.00    +0.000 OA
ATOM      2  C   UNL     1       5.833   6.038  16.009  0.00  0.00    +0.000 C 
ATOM      3  N   UNL     1       6.304   4.857  15.455  0.00  0.00    +0.000 N 
ATOM      4  H   UNL     1       6.493   4.084  16.100  0.00  0.00    +0.000 HD
ENDROOT
BRANCH   3   5
ATOM      5  C   UNL     1       6.293   4.520  14.075  0.00  0.00    +0.000 A 
ATOM      6  C   UNL     1       5.219   3.850  13.475  0.00  0.00    +0.000 A 
ATOM      7  C   UNL     1       5.278   3.469  12.132  0.00  0.00    +0.000 A 
ATOM      8 CL   UNL     1       3.963   2.605  11.433  0.00  0.00    +0.000 Cl
ATOM      9  C   UNL     1       6.392   3.772  11.355  0.00  0.00    +0.000 A 
ATOM     10  C   UNL     1       7.448   4.487  11.920  0.00  0.00    +0.000 A 
ATOM     11  C   UNL     1       7.395   4.867  13.268  0.00  0.00    +0.000 A 
ATOM     12 CL   UNL     1       8.736   5.747  13.913  0.00  0.00    +0.000 Cl
ENDBRANCH   3   5
BRANCH   2  13
ATOM     13  C   UNL     1       5.988   6.128  17.524  0.00  0.00    +0.000 C 
BRANCH  13  14
ATOM     14  N   UNL     1       4.762   5.649  18.139  0.00  0.00    +0.000 N 
ATOM     15  C   UNL     1       3.560   6.247  17.844  0.00  0.00    +0.000 A 
ATOM     16  N   UNL     1       2.414   5.855  18.291  0.00  0.00    +0.000 NA
ATOM     17  C   UNL     1       2.386   4.717  19.111  0.00  0.00    +0.000 A 
ATOM     18  C   UNL     1       1.153   4.226  19.546  0.00  0.00    +0.000 A 
ATOM     19  C   UNL     1       1.086   3.073  20.332  0.00  0.00    +0.000 A 
ATOM     20  C   UNL     1       2.255   2.411  20.708  0.00  0.00    +0.000 A 
ATOM     21  C   UNL     1       3.494   2.897  20.291  0.00  0.00    +0.000 A 
ATOM     22  C   UNL     1       3.547   4.038  19.484  0.00  0.00    +0.000 A 
ATOM     23  C   UNL     1       4.831   4.529  18.949  0.00  0.00    +0.000 A 
ATOM     24  O   UNL     1       5.884   3.935  19.181  0.00  0.00    +0.000 OA
ENDBRANCH  13  14
ENDBRANCH   2  13
TORSDOF 3
ENDMDL
MODEL 8
REMARK VINA RESULT:      -6.7      3.200      5.078
REMARK  Name = 
REMARK  3 active torsions:
REMARK  status: ('A' for Active; 'I' for Inactive)
REMARK    1  A    between atoms: C_2  and  C_3
REMARK    2  A    between atoms: C_3  and  N_4
REMARK    3  A    between atoms: N_15  and  C_16
REMARK                            x       y       z     vdW  Elec       q    Type
REMARK                         _______ _______ _______ _____ _____    ______ ____
ROOT
ATOM      1  O   UNL     1       1.820   9.683  17.441  0.00  0.00    +0.000 OA
ATOM      2  C   UNL     1       1.468   9.259  18.538  0.00  0.00    +0.000 C 
ATOM      3  N   UNL     1       0.231   9.470  19.127  0.00  0.00    +0.000 N 
ATOM      4  H   UNL     1       0.169   9.335  20.140  0.00  0.00    +0.000 HD
ENDROOT
BRANCH   3   5
ATOM      5  C   UNL     1      -0.883  10.113  18.521  0.00  0.00    +0.000 A 
ATOM      6  C   UNL     1      -1.374   9.734  17.265  0.00  0.00    +0.000 A 
ATOM      7  C   UNL     1      -2.423  10.438  16.669  0.00  0.00    +0.000 A 
ATOM      8 CL   UNL     1      -2.976   9.981  15.103  0.00  0.00    +0.000 Cl
ATOM      9  C   UNL     1      -3.020  11.512  17.322  0.00  0.00    +0.000 A 
ATOM     10  C   UNL     1      -2.581  11.869  18.596  0.00  0.00    +0.000 A 
ATOM     11  C   UNL     1      -1.526  11.169  19.196  0.00  0.00    +0.000 A 
ATOM     12 CL   UNL     1      -1.023  11.661  20.775  0.00  0.00    +0.000 Cl
ENDBRANCH   3   5
BRANCH   2  13
ATOM     13  C   UNL     1       2.471   8.527  19.426  0.00  0.00    +0.000 C 
BRANCH  13  14
ATOM     14  N   UNL     1       2.374   7.104  19.150  0.00  0.00    +0.000 N 
ATOM     15  C   UNL     1       2.950   6.578  18.018  0.00  0.00    +0.000 A 
ATOM     16  N   UNL     1       2.970   5.323  17.718  0.00  0.00    +0.000 NA
ATOM     17  C   UNL     1       2.393   4.424  18.628  0.00  0.00    +0.000 A 
ATOM     18  C   UNL     1       2.468   3.055  18.367  0.00  0.00    +0.000 A 
ATOM     19  C   UNL     1       1.938   2.130  19.270  0.00  0.00    +0.000 A 
ATOM     20  C   UNL     1       1.309   2.568  20.435  0.00  0.00    +0.000 A 
ATOM     21  C   UNL     1       1.215   3.933  20.703  0.00  0.00    +0.000 A 
ATOM     22  C   UNL     1       1.771   4.849  19.803  0.00  0.00    +0.000 A 
ATOM     23  C   UNL     1       1.772   6.294  20.097  0.00  0.00    +0.000 A 
ATOM     24  O   UNL     1       1.304   6.729  21.149  0.00  0.00    +0.000 OA
ENDBRANCH  13  14
ENDBRANCH   2  13
TORSDOF 3
ENDMDL
MODEL 9
REMARK VINA RESULT:      -6.7      3.539      5.794
REMARK  Name = 
REMARK  3 active torsions:
REMARK  status: ('A' for Active; 'I' for Inactive)
REMARK    1  A    between atoms: C_2  and  C_3
REMARK    2  A    between atoms: C_3  and  N_4
REMARK    3  A    between atoms: N_15  and  C_16
REMARK                            x       y       z     vdW  Elec       q    Type
REMARK                         _______ _______ _______ _____ _____    ______ ____
ROOT
ATOM      1  O   UNL     1      -1.246  10.088  19.184  0.00  0.00    +0.000 OA
ATOM      2  C   UNL     1      -0.278  10.719  19.598  0.00  0.00    +0.000 C 
ATOM      3  N   UNL     1      -0.322  11.750  20.525  0.00  0.00    +0.000 N 
ATOM      4  H   UNL     1       0.483  12.383  20.555  0.00  0.00    +0.000 HD
ENDROOT
BRANCH   3   5
ATOM      5  C   UNL     1      -1.472  12.180  21.241  0.00  0.00    +0.000 A 
ATOM      6  C   UNL     1      -2.352  13.146  20.737  0.00  0.00    +0.000 A 
ATOM      7  C   UNL     1      -3.429  13.597  21.503  0.00  0.00    +0.000 A 
ATOM      8 CL   UNL     1      -4.468  14.820  20.876  0.00  0.00    +0.000 Cl
ATOM      9  C   UNL     1      -3.667  13.077  22.771  0.00  0.00    +0.000 A 
ATOM     10  C   UNL     1      -2.834  12.076  23.268  0.00  0.00    +0.000 A 
ATOM     11  C   UNL     1      -1.749  11.623  22.505  0.00  0.00    +0.000 A 
ATOM     12 CL   UNL     1      -0.750  10.383  23.177  0.00  0.00    +0.000 Cl
ENDBRANCH   3   5
BRANCH   2  13
ATOM     13  C   UNL     1       1.103  10.473  18.997  0.00  0.00    +0.000 C 
BRANCH  13  14
ATOM     14  N   UNL     1       1.520   9.126  19.346  0.00  0.00    +0.000 N 
ATOM     15  C   UNL     1       1.219   8.606  20.582  0.00  0.00    +0.000 A 
ATOM     16  N   UNL     1       1.493   7.403  20.961  0.00  0.00    +0.000 NA
ATOM     17  C   UNL     1       2.114   6.551  20.034  0.00  0.00    +0.000 A 
ATOM     18  C   UNL     1       2.352   5.223  20.390  0.00  0.00    +0.000 A 
ATOM     19  C   UNL     1       2.934   4.337  19.479  0.00  0.00    +0.000 A 
ATOM     20  C   UNL     1       3.301   4.779  18.208  0.00  0.00    +0.000 A 
ATOM     21  C   UNL     1       3.080   6.106  17.842  0.00  0.00    +0.000 A 
ATOM     22  C   UNL     1       2.475   6.978  18.755  0.00  0.00    +0.000 A 
ATOM     23  C   UNL     1       2.143   8.363  18.373  0.00  0.00    +0.000 A 
ATOM     24  O   UNL     1       2.369   8.780  17.238  0.00  0.00    +0.000 OA
ENDBRANCH  13  14
ENDBRANCH   2  13
TORSDOF 3
ENDMDL
