MODEL 1
REMARK VINA RESULT:      -8.1      0.000      0.000
REMARK  Name = 
REMARK  2 active torsions:
REMARK  status: ('A' for Active; 'I' for Inactive)
REMARK    1  A    between atoms: C_2  and  C_3
REMARK    2  A    between atoms: C_8  and  C_9
REMARK                            x       y       z     vdW  Elec       q    Type
REMARK                         _______ _______ _______ _____ _____    ______ ____
ROOT
ATOM      1  C   UNL     1       5.048   4.897  17.799  0.00  0.00    +0.000 A 
ATOM      2  N   UNL     1       6.105   4.387  17.090  0.00  0.00    +0.000 NA
ATOM      3  C   UNL     1       6.416   4.984  15.925  0.00  0.00    +0.000 A 
ATOM      4  C   UNL     1       5.724   6.077  15.460  0.00  0.00    +0.000 A 
ATOM      5  N   UNL     1       4.699   6.624  16.150  0.00  0.00    +0.000 NA
ATOM      6  C   UNL     1       4.371   6.040  17.355  0.00  0.00    +0.000 A 
ENDROOT
BRANCH   1   8
ATOM      7  O   UNL     1       5.576   4.533  20.049  0.00  0.00    +0.000 OA
ATOM      8  C   UNL     1       4.813   4.241  19.124  0.00  0.00    +0.000 C 
ATOM      9  N   UNL     1       3.791   3.270  19.294  0.00  0.00    +0.000 N 
ATOM     10  C   UNL     1       2.917   2.730  18.246  0.00  0.00    +0.000 C 
ATOM     11  C   UNL     1       1.576   3.452  18.191  0.00  0.00    +0.000 C 
ATOM     12  C   UNL     1       0.605   3.040  19.296  0.00  0.00    +0.000 C 
ATOM     13  C   UNL     1       1.153   3.151  20.719  0.00  0.00    +0.000 C 
ATOM     14  C   UNL     1       2.280   2.158  21.008  0.00  0.00    +0.000 C 
ATOM     15  C   UNL     1       3.671   2.672  20.623  0.00  0.00    +0.000 C 
ENDBRANCH   1   8
BRANCH   6  16
ATOM     16  C   UNL     1       3.312   6.742  18.097  0.00  0.00    +0.000 A 
ATOM     17  N   UNL     1       2.797   6.384  19.256  0.00  0.00    +0.000 NA
ATOM     18  C   UNL     1       2.069   7.436  19.789  0.00  0.00    +0.000 A 
ATOM     19  C   UNL     1       1.551   7.501  21.099  0.00  0.00    +0.000 A 
ATOM     20  C   UNL     1       0.893   8.658  21.531  0.00  0.00    +0.000 A 
ATOM     21  C   UNL     1       0.702   9.729  20.663  0.00  0.00    +0.000 A 
ATOM     22  C   UNL     1       1.169   9.673  19.347  0.00  0.00    +0.000 A 
ATOM     23  C   UNL     1       1.877   8.528  18.944  0.00  0.00    +0.000 A 
ATOM     24  S   UNL     1       2.663   8.212  17.451  0.00  0.00    +0.000 S 
ENDBRANCH   6  16
TORSDOF 2
ENDMDL
MODEL 2
REMARK VINA RESULT:      -7.8      1.509      4.266
REMARK  Name = 
REMARK  2 active torsions:
REMARK  status: ('A' for Active; 'I' for Inactive)
REMARK    1  A    between atoms: C_2  and  C_3
REMARK    2  A    between atoms: C_8  and  C_9
REMARK                            x       y       z     vdW  Elec       q    Type
REMARK                         _______ _______ _______ _____ _____    ______ ____
ROOT
ATOM      1  C   UNL     1       3.671   3.939  19.013  0.00  0.00    +0.000 A 
ATOM      2  N   UNL     1       3.704   2.595  18.741  0.00  0.00    +0.000 NA
ATOM      3  C   UNL     1       2.531   1.935  18.730  0.00  0.00    +0.000 A 
ATOM      4  C   UNL     1       1.336   2.572  18.962  0.00  0.00    +0.000 A 
ATOM      5  N   UNL     1       1.265   3.901  19.200  0.00  0.00    +0.000 NA
ATOM      6  C   UNL     1       2.451   4.602  19.200  0.00  0.00    +0.000 A 
ENDROOT
BRANCH   1   8
ATOM      7  O   UNL     1       5.687   4.673  19.945  0.00  0.00    +0.000 OA
ATOM      8  C   UNL     1       4.997   4.626  18.922  0.00  0.00    +0.000 C 
ATOM      9  N   UNL     1       5.420   5.257  17.723  0.00  0.00    +0.000 N 
ATOM     10  C   UNL     1       4.638   5.400  16.489  0.00  0.00    +0.000 C 
ATOM     11  C   UNL     1       4.961   4.307  15.477  0.00  0.00    +0.000 C 
ATOM     12  C   UNL     1       6.280   4.519  14.737  0.00  0.00    +0.000 C 
ATOM     13  C   UNL     1       7.504   4.723  15.631  0.00  0.00    +0.000 C 
ATOM     14  C   UNL     1       7.458   6.034  16.420  0.00  0.00    +0.000 C 
ATOM     15  C   UNL     1       6.721   5.925  17.758  0.00  0.00    +0.000 C 
ENDBRANCH   1   8
BRANCH   6  16
ATOM     16  C   UNL     1       2.293   6.055  19.371  0.00  0.00    +0.000 A 
ATOM     17  N   UNL     1       2.487   6.979  18.452  0.00  0.00    +0.000 NA
ATOM     18  C   UNL     1       1.942   8.181  18.873  0.00  0.00    +0.000 A 
ATOM     19  C   UNL     1       1.771   9.334  18.079  0.00  0.00    +0.000 A 
ATOM     20  C   UNL     1       1.139  10.462  18.615  0.00  0.00    +0.000 A 
ATOM     21  C   UNL     1       0.719  10.473  19.942  0.00  0.00    +0.000 A 
ATOM     22  C   UNL     1       0.914   9.359  20.762  0.00  0.00    +0.000 A 
ATOM     23  C   UNL     1       1.499   8.213  20.195  0.00  0.00    +0.000 A 
ATOM     24  S   UNL     1       1.764   6.672  20.900  0.00  0.00    +0.000 S 
ENDBRANCH   6  16
TORSDOF 2
ENDMDL
MODEL 3
REMARK VINA RESULT:      -7.7      1.866      4.577
REMARK  Name = 
REMARK  2 active torsions:
REMARK  status: ('A' for Active; 'I' for Inactive)
REMARK    1  A    between atoms: C_2  and  C_3
REMARK    2  A    between atoms: C_8  and  C_9
REMARK                            x       y       z     vdW  Elec       q    Type
REMARK                         _______ _______ _______ _____ _____    ______ ____
ROOT
ATOM      1  C   UNL     1       2.693   3.585  19.220  0.00  0.00    +0.000 A 
ATOM      2  N   UNL     1       2.590   2.250  19.514  0.00  0.00    +0.000 NA
ATOM      3  C   UNL     1       2.176   1.917  20.750  0.00  0.00    +0.000 A 
ATOM      4  C   UNL     1       1.844   2.867  21.687  0.00  0.00    +0.000 A 
ATOM      5  N   UNL     1       1.903   4.191  21.418  0.00  0.00    +0.000 NA
ATOM      6  C   UNL     1       2.310   4.557  20.153  0.00  0.00    +0.000 A 
ENDROOT
BRANCH   1   8
ATOM      7  O   UNL     1       2.186   3.833  16.949  0.00  0.00    +0.000 OA
ATOM      8  C   UNL     1       3.076   3.883  17.804  0.00  0.00    +0.000 C 
ATOM      9  N   UNL     1       4.423   4.149  17.444  0.00  0.00    +0.000 N 
ATOM     10  C   UNL     1       5.590   4.094  18.333  0.00  0.00    +0.000 C 
ATOM     11  C   UNL     1       5.956   5.467  18.884  0.00  0.00    +0.000 C 
ATOM     12  C   UNL     1       6.685   6.361  17.883  0.00  0.00    +0.000 C 
ATOM     13  C   UNL     1       5.974   6.554  16.543  0.00  0.00    +0.000 C 
ATOM     14  C   UNL     1       5.903   5.272  15.712  0.00  0.00    +0.000 C 
ATOM     15  C   UNL     1       4.687   4.396  16.028  0.00  0.00    +0.000 C 
ENDBRANCH   1   8
BRANCH   6  16
ATOM     16  C   UNL     1       2.259   6.005  19.899  0.00  0.00    +0.000 A 
ATOM     17  N   UNL     1       2.725   6.633  18.838  0.00  0.00    +0.000 NA
ATOM     18  C   UNL     1       2.223   7.923  18.799  0.00  0.00    +0.000 A 
ATOM     19  C   UNL     1       2.329   8.818  17.715  0.00  0.00    +0.000 A 
ATOM     20  C   UNL     1       1.711  10.072  17.783  0.00  0.00    +0.000 A 
ATOM     21  C   UNL     1       1.032  10.464  18.932  0.00  0.00    +0.000 A 
ATOM     22  C   UNL     1       0.946   9.612  20.037  0.00  0.00    +0.000 A 
ATOM     23  C   UNL     1       1.523   8.334  19.933  0.00  0.00    +0.000 A 
ATOM     24  S   UNL     1       1.489   7.038  21.057  0.00  0.00    +0.000 S 
ENDBRANCH   6  16
TORSDOF 2
ENDMDL
MODEL 4
REMARK VINA RESULT:      -7.7      1.109      1.526
REMARK  Name = 
REMARK  2 active torsions:
REMARK  status: ('A' for Active; 'I' for Inactive)
REMARK    1  A    between atoms: C_2  and  C_3
REMARK    2  A    between atoms: C_8  and  C_9
REMARK                            x       y       z     vdW  Elec       q    Type
REMARK                         _______ _______ _______ _____ _____    ______ ____
ROOT
ATOM      1  C   UNL     1       5.202   4.416  17.175  0.00  0.00    +0.000 A 
ATOM      2  N   UNL     1       6.017   3.649  16.383  0.00  0.00    +0.000 NA
ATOM      3  C   UNL     1       6.332   4.130  15.167  0.00  0.00    +0.000 A 
ATOM      4  C   UNL     1       5.878   5.351  14.727  0.00  0.00    +0.000 A 
ATOM      5  N   UNL     1       5.100   6.146  15.496  0.00  0.00    +0.000 NA
ATOM      6  C   UNL     1       4.776   5.682  16.753  0.00  0.00    +0.000 A 
ENDROOT
BRANCH   1   8
ATOM      7  O   UNL     1       5.835   4.054  19.398  0.00  0.00    +0.000 OA
ATOM      8  C   UNL     1       4.964   3.863  18.545  0.00  0.00    +0.000 C 
ATOM      9  N   UNL     1       3.809   3.090  18.838  0.00  0.00    +0.000 N 
ATOM     10  C   UNL     1       2.776   2.668  17.883  0.00  0.00    +0.000 C 
ATOM     11  C   UNL     1       1.577   3.608  17.886  0.00  0.00    +0.000 C 
ATOM     12  C   UNL     1       0.641   3.413  19.077  0.00  0.00    +0.000 C 
ATOM     13  C   UNL     1       1.309   3.483  20.450  0.00  0.00    +0.000 C 
ATOM     14  C   UNL     1       2.272   2.322  20.709  0.00  0.00    +0.000 C 
ATOM     15  C   UNL     1       3.695   2.573  20.201  0.00  0.00    +0.000 C 
ENDBRANCH   1   8
BRANCH   6  16
ATOM     16  C   UNL     1       4.009   6.637  17.568  0.00  0.00    +0.000 A 
ATOM     17  N   UNL     1       3.543   7.805  17.178  0.00  0.00    +0.000 NA
ATOM     18  C   UNL     1       2.616   8.271  18.097  0.00  0.00    +0.000 A 
ATOM     19  C   UNL     1       1.759   9.376  17.918  0.00  0.00    +0.000 A 
ATOM     20  C   UNL     1       0.818   9.695  18.904  0.00  0.00    +0.000 A 
ATOM     21  C   UNL     1       0.753   8.959  20.083  0.00  0.00    +0.000 A 
ATOM     22  C   UNL     1       1.619   7.884  20.303  0.00  0.00    +0.000 A 
ATOM     23  C   UNL     1       2.520   7.541  19.281  0.00  0.00    +0.000 A 
ATOM     24  S   UNL     1       3.618   6.224  19.204  0.00  0.00    +0.000 S 
ENDBRANCH   6  16
TORSDOF 2
ENDMDL
MODEL 5
REMARK VINA RESULT:      -7.2      2.059      6.255
REMARK  Name = 
REMARK  2 active torsions:
REMARK  status: ('A' for Active; 'I' for Inactive)
REMARK    1  A    between atoms: C_2  and  C_3
REMARK    2  A    between atoms: C_8  and  C_9
REMARK                            x       y       z     vdW  Elec       q    Type
REMARK                         _______ _______ _______ _____ _____    ______ ____
ROOT
ATOM      1  C   UNL     1       2.008   4.393  19.423  0.00  0.00    +0.000 A 
ATOM      2  N   UNL     1       1.080   4.274  20.425  0.00  0.00    +0.000 NA
ATOM      3  C   UNL     1       1.314   3.356  21.381  0.00  0.00    +0.000 A 
ATOM      4  C   UNL     1       2.445   2.574  21.378  0.00  0.00    +0.000 A 
ATOM      5  N   UNL     1       3.394   2.690  20.423  0.00  0.00    +0.000 NA
ATOM      6  C   UNL     1       3.185   3.634  19.441  0.00  0.00    +0.000 A 
ENDROOT
BRANCH   1   8
ATOM      7  O   UNL     1       1.301   5.167  17.331  0.00  0.00    +0.000 OA
ATOM      8  C   UNL     1       1.729   5.489  18.443  0.00  0.00    +0.000 C 
ATOM      9  N   UNL     1       2.007   6.846  18.756  0.00  0.00    +0.000 N 
ATOM     10  C   UNL     1       2.649   7.346  19.978  0.00  0.00    +0.000 C 
ATOM     11  C   UNL     1       1.629   7.802  21.014  0.00  0.00    +0.000 C 
ATOM     12  C   UNL     1       1.006   9.164  20.713  0.00  0.00    +0.000 C 
ATOM     13  C   UNL     1       0.376   9.299  19.326  0.00  0.00    +0.000 C 
ATOM     14  C   UNL     1       1.403   9.249  18.193  0.00  0.00    +0.000 C 
ATOM     15  C   UNL     1       1.724   7.830  17.712  0.00  0.00    +0.000 C 
ENDBRANCH   1   8
BRANCH   6  16
ATOM     16  C   UNL     1       4.300   3.772  18.490  0.00  0.00    +0.000 A 
ATOM     17  N   UNL     1       4.381   3.229  17.292  0.00  0.00    +0.000 NA
ATOM     18  C   UNL     1       5.404   3.828  16.575  0.00  0.00    +0.000 A 
ATOM     19  C   UNL     1       5.656   3.660  15.198  0.00  0.00    +0.000 A 
ATOM     20  C   UNL     1       6.685   4.383  14.584  0.00  0.00    +0.000 A 
ATOM     21  C   UNL     1       7.495   5.232  15.331  0.00  0.00    +0.000 A 
ATOM     22  C   UNL     1       7.293   5.386  16.706  0.00  0.00    +0.000 A 
ATOM     23  C   UNL     1       6.221   4.697  17.298  0.00  0.00    +0.000 A 
ATOM     24  S   UNL     1       5.653   4.765  18.916  0.00  0.00    +0.000 S 
ENDBRANCH   6  16
TORSDOF 2
ENDMDL
MODEL 6
REMARK VINA RESULT:      -7.0      2.908      6.129
REMARK  Name = 
REMARK  2 active torsions:
REMARK  status: ('A' for Active; 'I' for Inactive)
REMARK    1  A    between atoms: C_2  and  C_3
REMARK    2  A    between atoms: C_8  and  C_9
REMARK                            x       y       z     vdW  Elec       q    Type
REMARK                         _______ _______ _______ _____ _____    ______ ____
ROOT
ATOM      1  C   UNL     1       5.953   5.332  18.484  0.00  0.00    +0.000 A 
ATOM      2  N   UNL     1       6.292   5.598  19.786  0.00  0.00    +0.000 NA
ATOM      3  C   UNL     1       7.594   5.520  20.116  0.00  0.00    +0.000 A 
ATOM      4  C   UNL     1       8.561   5.206  19.192  0.00  0.00    +0.000 A 
ATOM      5  N   UNL     1       8.264   4.970  17.894  0.00  0.00    +0.000 NA
ATOM      6  C   UNL     1       6.939   5.060  17.527  0.00  0.00    +0.000 A 
ENDROOT
BRANCH   1   8
ATOM      7  O   UNL     1       4.200   6.451  17.412  0.00  0.00    +0.000 OA
ATOM      8  C   UNL     1       4.502   5.523  18.167  0.00  0.00    +0.000 C 
ATOM      9  N   UNL     1       3.504   4.708  18.764  0.00  0.00    +0.000 N 
ATOM     10  C   UNL     1       3.717   3.674  19.784  0.00  0.00    +0.000 C 
ATOM     11  C   UNL     1       3.827   2.282  19.173  0.00  0.00    +0.000 C 
ATOM     12  C   UNL     1       2.486   1.681  18.757  0.00  0.00    +0.000 C 
ATOM     13  C   UNL     1       1.643   2.550  17.823  0.00  0.00    +0.000 C 
ATOM     14  C   UNL     1       1.136   3.830  18.490  0.00  0.00    +0.000 C 
ATOM     15  C   UNL     1       2.117   5.003  18.406  0.00  0.00    +0.000 C 
ENDBRANCH   1   8
BRANCH   6  16
ATOM     16  C   UNL     1       6.699   4.887  16.086  0.00  0.00    +0.000 A 
ATOM     17  N   UNL     1       7.299   5.533  15.107  0.00  0.00    +0.000 NA
ATOM     18  C   UNL     1       7.055   4.892  13.904  0.00  0.00    +0.000 A 
ATOM     19  C   UNL     1       7.695   5.167  12.677  0.00  0.00    +0.000 A 
ATOM     20  C   UNL     1       7.401   4.392  11.550  0.00  0.00    +0.000 A 
ATOM     21  C   UNL     1       6.446   3.382  11.615  0.00  0.00    +0.000 A 
ATOM     22  C   UNL     1       5.767   3.117  12.808  0.00  0.00    +0.000 A 
ATOM     23  C   UNL     1       6.112   3.865  13.946  0.00  0.00    +0.000 A 
ATOM     24  S   UNL     1       5.550   3.704  15.559  0.00  0.00    +0.000 S 
ENDBRANCH   6  16
TORSDOF 2
ENDMDL
MODEL 7
REMARK VINA RESULT:      -6.9      1.948      4.580
REMARK  Name = 
REMARK  2 active torsions:
REMARK  status: ('A' for Active; 'I' for Inactive)
REMARK    1  A    between atoms: C_2  and  C_3
REMARK    2  A    between atoms: C_8  and  C_9
REMARK                            x       y       z     vdW  Elec       q    Type
REMARK                         _______ _______ _______ _____ _____    ______ ____
ROOT
ATOM      1  C   UNL     1       3.845   3.522  17.969  0.00  0.00    +0.000 A 
ATOM      2  N   UNL     1       3.901   2.157  17.847  0.00  0.00    +0.000 NA
ATOM      3  C   UNL     1       3.211   1.426  18.741  0.00  0.00    +0.000 A 
ATOM      4  C   UNL     1       2.457   2.010  19.731  0.00  0.00    +0.000 A 
ATOM      5  N   UNL     1       2.355   3.351  19.858  0.00  0.00    +0.000 NA
ATOM      6  C   UNL     1       3.040   4.123  18.945  0.00  0.00    +0.000 A 
ENDROOT
BRANCH   1   8
ATOM      7  O   UNL     1       3.957   4.483  15.838  0.00  0.00    +0.000 OA
ATOM      8  C   UNL     1       4.564   4.273  16.892  0.00  0.00    +0.000 C 
ATOM      9  N   UNL     1       5.917   4.674  17.050  0.00  0.00    +0.000 N 
ATOM     10  C   UNL     1       6.793   4.361  18.186  0.00  0.00    +0.000 C 
ATOM     11  C   UNL     1       6.827   5.489  19.210  0.00  0.00    +0.000 C 
ATOM     12  C   UNL     1       7.691   6.677  18.794  0.00  0.00    +0.000 C 
ATOM     13  C   UNL     1       7.359   7.278  17.428  0.00  0.00    +0.000 C 
ATOM     14  C   UNL     1       7.672   6.335  16.265  0.00  0.00    +0.000 C 
ATOM     15  C   UNL     1       6.529   5.374  15.922  0.00  0.00    +0.000 C 
ENDBRANCH   1   8
BRANCH   6  16
ATOM     16  C   UNL     1       2.809   5.569  19.083  0.00  0.00    +0.000 A 
ATOM     17  N   UNL     1       3.060   6.494  18.178  0.00  0.00    +0.000 NA
ATOM     18  C   UNL     1       2.428   7.676  18.528  0.00  0.00    +0.000 A 
ATOM     19  C   UNL     1       2.295   8.815  17.709  0.00  0.00    +0.000 A 
ATOM     20  C   UNL     1       1.567   9.921  18.165  0.00  0.00    +0.000 A 
ATOM     21  C   UNL     1       1.014   9.925  19.441  0.00  0.00    +0.000 A 
ATOM     22  C   UNL     1       1.166   8.824  20.290  0.00  0.00    +0.000 A 
ATOM     23  C   UNL     1       1.851   7.700  19.798  0.00  0.00    +0.000 A 
ATOM     24  S   UNL     1       2.102   6.174  20.543  0.00  0.00    +0.000 S 
ENDBRANCH   6  16
TORSDOF 2
ENDMDL
MODEL 8
REMARK VINA RESULT:      -6.7      8.526     11.717
REMARK  Name = 
REMARK  2 active torsions:
REMARK  status: ('A' for Active; 'I' for Inactive)
REMARK    1  A    between atoms: C_2  and  C_3
REMARK    2  A    between atoms: C_8  and  C_9
REMARK                            x       y       z     vdW  Elec       q    Type
REMARK                         _______ _______ _______ _____ _____    ______ ____
ROOT
ATOM      1  C   UNL     1      -3.641  14.034  23.715  0.00  0.00    +0.000 A 
ATOM      2  N   UNL     1      -3.253  14.775  24.801  0.00  0.00    +0.000 NA
ATOM      3  C   UNL     1      -3.788  16.001  24.939  0.00  0.00    +0.000 A 
ATOM      4  C   UNL     1      -4.707  16.499  24.045  0.00  0.00    +0.000 A 
ATOM      5  N   UNL     1      -5.136  15.781  22.983  0.00  0.00    +0.000 NA
ATOM      6  C   UNL     1      -4.613  14.516  22.828  0.00  0.00    +0.000 A 
ENDROOT
BRANCH   1   8
ATOM      7  O   UNL     1      -3.728  11.747  24.199  0.00  0.00    +0.000 OA
ATOM      8  C   UNL     1      -3.074  12.649  23.670  0.00  0.00    +0.000 C 
ATOM      9  N   UNL     1      -1.800  12.393  23.098  0.00  0.00    +0.000 N 
ATOM     10  C   UNL     1      -0.863  13.392  22.570  0.00  0.00    +0.000 C 
ATOM     11  C   UNL     1      -0.990  13.556  21.061  0.00  0.00    +0.000 C 
ATOM     12  C   UNL     1      -0.336  12.432  20.259  0.00  0.00    +0.000 C 
ATOM     13  C   UNL     1      -0.788  11.019  20.630  0.00  0.00    +0.000 C 
ATOM     14  C   UNL     1      -0.350  10.598  22.034  0.00  0.00    +0.000 C 
ATOM     15  C   UNL     1      -1.331  11.008  23.137  0.00  0.00    +0.000 C 
ENDBRANCH   1   8
BRANCH   6  16
ATOM     16  C   UNL     1      -5.193  13.757  21.709  0.00  0.00    +0.000 A 
ATOM     17  N   UNL     1      -4.674  13.611  20.507  0.00  0.00    +0.000 NA
ATOM     18  C   UNL     1      -5.325  12.588  19.836  0.00  0.00    +0.000 A 
ATOM     19  C   UNL     1      -4.916  12.008  18.618  0.00  0.00    +0.000 A 
ATOM     20  C   UNL     1      -5.631  10.930  18.085  0.00  0.00    +0.000 A 
ATOM     21  C   UNL     1      -6.773  10.455  18.722  0.00  0.00    +0.000 A 
ATOM     22  C   UNL     1      -7.225  11.040  19.909  0.00  0.00    +0.000 A 
ATOM     23  C   UNL     1      -6.465  12.084  20.462  0.00  0.00    +0.000 A 
ATOM     24  S   UNL     1      -6.690  12.918  21.945  0.00  0.00    +0.000 S 
ENDBRANCH   6  16
TORSDOF 2
ENDMDL
MODEL 9
REMARK VINA RESULT:      -6.7      7.732      9.945
REMARK  Name = 
REMARK  2 active torsions:
REMARK  status: ('A' for Active; 'I' for Inactive)
REMARK    1  A    between atoms: C_2  and  C_3
REMARK    2  A    between atoms: C_8  and  C_9
REMARK                            x       y       z     vdW  Elec       q    Type
REMARK                         _______ _______ _______ _____ _____    ______ ____
ROOT
ATOM      1  C   UNL     1       0.181  13.119  21.569  0.00  0.00    +0.000 A 
ATOM      2  N   UNL     1       1.009  14.021  22.186  0.00  0.00    +0.000 NA
ATOM      3  C   UNL     1       1.856  14.720  21.407  0.00  0.00    +0.000 A 
ATOM      4  C   UNL     1       1.887  14.562  20.042  0.00  0.00    +0.000 A 
ATOM      5  N   UNL     1       1.062  13.705  19.400  0.00  0.00    +0.000 NA
ATOM      6  C   UNL     1       0.174  12.989  20.174  0.00  0.00    +0.000 A 
ENDROOT
BRANCH   1   8
ATOM      7  O   UNL     1      -0.461  11.354  22.964  0.00  0.00    +0.000 OA
ATOM      8  C   UNL     1      -0.792  12.441  22.482  0.00  0.00    +0.000 C 
ATOM      9  N   UNL     1      -2.075  12.994  22.734  0.00  0.00    +0.000 N 
ATOM     10  C   UNL     1      -2.643  14.197  22.114  0.00  0.00    +0.000 C 
ATOM     11  C   UNL     1      -2.453  15.435  22.983  0.00  0.00    +0.000 C 
ATOM     12  C   UNL     1      -3.417  15.516  24.164  0.00  0.00    +0.000 C 
ATOM     13  C   UNL     1      -3.437  14.287  25.075  0.00  0.00    +0.000 C 
ATOM     14  C   UNL     1      -4.002  13.041  24.389  0.00  0.00    +0.000 C 
ATOM     15  C   UNL     1      -2.955  12.231  23.617  0.00  0.00    +0.000 C 
ENDBRANCH   1   8
BRANCH   6  16
ATOM     16  C   UNL     1      -0.756  12.149  19.404  0.00  0.00    +0.000 A 
ATOM     17  N   UNL     1      -2.033  12.390  19.185  0.00  0.00    +0.000 NA
ATOM     18  C   UNL     1      -2.498  11.566  18.173  0.00  0.00    +0.000 A 
ATOM     19  C   UNL     1      -3.746  11.677  17.526  0.00  0.00    +0.000 A 
ATOM     20  C   UNL     1      -4.060  10.817  16.467  0.00  0.00    +0.000 A 
ATOM     21  C   UNL     1      -3.171   9.820  16.078  0.00  0.00    +0.000 A 
ATOM     22  C   UNL     1      -1.946   9.662  16.730  0.00  0.00    +0.000 A 
ATOM     23  C   UNL     1      -1.619  10.567  17.754  0.00  0.00    +0.000 A 
ATOM     24  S   UNL     1      -0.165  10.704  18.655  0.00  0.00    +0.000 S 
ENDBRANCH   6  16
TORSDOF 2
ENDMDL
