MODEL 1
REMARK VINA RESULT:      -6.9      0.000      0.000
REMARK  Name = 
REMARK  15 active torsions:
REMARK  status: ('A' for Active; 'I' for Inactive)
REMARK    1  A    between atoms: C_1  and  C_2
REMARK    2  A    between atoms: C_2  and  O_3
REMARK    3  A    between atoms: O_3  and  C_4
REMARK    4  A    between atoms: C_4  and  C_5
REMARK    5  A    between atoms: C_5  and  O_6
REMARK    6  A    between atoms: O_6  and  C_7
REMARK    7  A    between atoms: C_7  and  C_9
REMARK    8  A    between atoms: C_9  and  C_10
REMARK    9  A    between atoms: C_12  and  N_13
REMARK   10  A    between atoms: C_12  and  C_27
REMARK   11  A    between atoms: N_13  and  C_14
REMARK   12  A    between atoms: C_14  and  C_15
REMARK   13  A    between atoms: C_18  and  C_19
REMARK   14  A    between atoms: C_27  and  C_28
REMARK   15  A    between atoms: C_27  and  C_29
REMARK                            x       y       z     vdW  Elec       q    Type
REMARK                         _______ _______ _______ _____ _____    ______ ____
ROOT
ATOM      1  C   UNL     1       4.391   3.539  19.347  0.00  0.00    +0.000 C 
ATOM      2  C   UNL     1       3.089   3.941  19.405  0.00  0.00    +0.000 C 
ENDROOT
BRANCH   2   3
ATOM      3  C   UNL     1       2.009   3.082  20.120  0.00  0.00    +0.000 C 
ATOM      4  C   UNL     1       1.739   3.575  21.546  0.00  0.00    +0.000 C 
ATOM      5  C   UNL     1       0.698   3.010  19.328  0.00  0.00    +0.000 C 
ENDBRANCH   2   3
BRANCH   1   6
ATOM      6  C   UNL     1       5.442   4.239  18.551  0.00  0.00    +0.000 C 
ATOM      7  O   UNL     1       6.456   4.745  19.004  0.00  0.00    +0.000 OA
BRANCH   6   8
ATOM      8  O   UNL     1       5.030   4.368  17.260  0.00  0.00    +0.000 OA
BRANCH   8   9
ATOM      9  C   UNL     1       6.082   4.294  16.290  0.00  0.00    +0.000 C 
BRANCH   9  10
ATOM     10  C   UNL     1       5.604   4.412  14.849  0.00  0.00    +0.000 C 
BRANCH  10  11
ATOM     11  O   UNL     1       6.364   3.474  14.081  0.00  0.00    +0.000 OA
BRANCH  11  13
ATOM     12  C   UNL     1       5.120   3.293  12.061  0.00  0.00    +0.000 C 
ATOM     13  C   UNL     1       6.407   3.791  12.694  0.00  0.00    +0.000 C 
ENDBRANCH  11  13
ENDBRANCH  10  11
ENDBRANCH   9  10
ENDBRANCH   8   9
ENDBRANCH   6   8
ENDBRANCH   1   6
BRANCH   1  14
ATOM     14  C   UNL     1       4.804   2.224  19.988  0.00  0.00    +0.000 C 
ATOM     15  N   UNL     1       5.146   1.133  20.519  0.00  0.00    +0.000 NA
ENDBRANCH   1  14
BRANCH   2  16
ATOM     16  N   UNL     1       2.580   5.152  18.912  0.00  0.00    +0.000 N 
ATOM     17  H   UNL     1       1.563   5.197  19.009  0.00  0.00    +0.000 HD
BRANCH  16  18
ATOM     18  C   UNL     1       3.097   6.467  19.346  0.00  0.00    +0.000 C 
BRANCH  18  19
ATOM     19  C   UNL     1       2.292   7.673  18.972  0.00  0.00    +0.000 A 
ATOM     20  C   UNL     1       2.250   8.330  17.762  0.00  0.00    +0.000 A 
ATOM     21  O   UNL     1       1.395   9.383  17.872  0.00  0.00    +0.000 OA
ATOM     22  C   UNL     1       0.953   9.328  19.169  0.00  0.00    +0.000 A 
ATOM     23  N   UNL     1       1.467   8.332  19.867  0.00  0.00    +0.000 NA
BRANCH  22  24
ATOM     24  C   UNL     1       0.016  10.367  19.592  0.00  0.00    +0.000 A 
ATOM     25  C   UNL     1      -0.687  11.160  18.668  0.00  0.00    +0.000 A 
ATOM     26  C   UNL     1      -1.563  12.163  19.098  0.00  0.00    +0.000 A 
ATOM     27  C   UNL     1      -1.745  12.383  20.463  0.00  0.00    +0.000 A 
ATOM     28  C   UNL     1      -1.063  11.598  21.387  0.00  0.00    +0.000 A 
ATOM     29 CL   UNL     1      -1.290  11.869  23.071  0.00  0.00    +0.000 Cl
ATOM     30  C   UNL     1      -0.189  10.596  20.961  0.00  0.00    +0.000 A 
ENDBRANCH  22  24
ENDBRANCH  18  19
ENDBRANCH  16  18
ENDBRANCH   2  16
TORSDOF 12
ENDMDL
MODEL 2
REMARK VINA RESULT:      -6.9      1.728      1.980
REMARK  Name = 
REMARK  15 active torsions:
REMARK  status: ('A' for Active; 'I' for Inactive)
REMARK    1  A    between atoms: C_1  and  C_2
REMARK    2  A    between atoms: C_2  and  O_3
REMARK    3  A    between atoms: O_3  and  C_4
REMARK    4  A    between atoms: C_4  and  C_5
REMARK    5  A    between atoms: C_5  and  O_6
REMARK    6  A    between atoms: O_6  and  C_7
REMARK    7  A    between atoms: C_7  and  C_9
REMARK    8  A    between atoms: C_9  and  C_10
REMARK    9  A    between atoms: C_12  and  N_13
REMARK   10  A    between atoms: C_12  and  C_27
REMARK   11  A    between atoms: N_13  and  C_14
REMARK   12  A    between atoms: C_14  and  C_15
REMARK   13  A    between atoms: C_18  and  C_19
REMARK   14  A    between atoms: C_27  and  C_28
REMARK   15  A    between atoms: C_27  and  C_29
REMARK                            x       y       z     vdW  Elec       q    Type
REMARK                         _______ _______ _______ _____ _____    ______ ____
ROOT
ATOM      1  C   UNL     1       4.315   4.060  19.542  0.00  0.00    +0.000 C 
ATOM      2  C   UNL     1       2.991   4.270  19.287  0.00  0.00    +0.000 C 
ENDROOT
BRANCH   2   3
ATOM      3  C   UNL     1       1.930   3.168  19.562  0.00  0.00    +0.000 C 
ATOM      4  C   UNL     1       1.202   3.396  20.891  0.00  0.00    +0.000 C 
ATOM      5  C   UNL     1       0.916   3.032  18.419  0.00  0.00    +0.000 C 
ENDBRANCH   2   3
BRANCH   1   6
ATOM      6  C   UNL     1       5.396   5.015  19.161  0.00  0.00    +0.000 C 
ATOM      7  O   UNL     1       6.436   5.192  19.776  0.00  0.00    +0.000 OA
BRANCH   6   8
ATOM      8  O   UNL     1       4.987   5.777  18.110  0.00  0.00    +0.000 OA
BRANCH   8   9
ATOM      9  C   UNL     1       5.534   5.387  16.844  0.00  0.00    +0.000 C 
BRANCH   9  10
ATOM     10  C   UNL     1       6.993   4.954  16.908  0.00  0.00    +0.000 C 
BRANCH  10  11
ATOM     11  O   UNL     1       7.365   4.555  15.585  0.00  0.00    +0.000 OA
BRANCH  11  13
ATOM     12  C   UNL     1       6.465   4.067  13.437  0.00  0.00    +0.000 C 
ATOM     13  C   UNL     1       6.359   3.793  14.927  0.00  0.00    +0.000 C 
ENDBRANCH  11  13
ENDBRANCH  10  11
ENDBRANCH   9  10
ENDBRANCH   8   9
ENDBRANCH   6   8
ENDBRANCH   1   6
BRANCH   1  14
ATOM     14  C   UNL     1       4.772   2.723  20.102  0.00  0.00    +0.000 C 
ATOM     15  N   UNL     1       5.152   1.614  20.565  0.00  0.00    +0.000 NA
ENDBRANCH   1  14
BRANCH   2  16
ATOM     16  N   UNL     1       2.423   5.468  18.828  0.00  0.00    +0.000 N 
ATOM     17  H   UNL     1       1.502   5.310  18.412  0.00  0.00    +0.000 HD
BRANCH  16  18
ATOM     18  C   UNL     1       2.293   6.665  19.683  0.00  0.00    +0.000 C 
BRANCH  18  19
ATOM     19  C   UNL     1       2.069   7.975  18.994  0.00  0.00    +0.000 A 
ATOM     20  C   UNL     1       2.544   8.388  17.769  0.00  0.00    +0.000 A 
ATOM     21  O   UNL     1       2.107   9.657  17.542  0.00  0.00    +0.000 OA
ATOM     22  C   UNL     1       1.378   9.971  18.660  0.00  0.00    +0.000 A 
ATOM     23  N   UNL     1       1.335   9.005  19.559  0.00  0.00    +0.000 NA
BRANCH  22  24
ATOM     24  C   UNL     1       0.787  11.307  18.709  0.00  0.00    +0.000 A 
ATOM     25  C   UNL     1      -0.601  11.506  18.811  0.00  0.00    +0.000 A 
ATOM     26  C   UNL     1      -1.145  12.795  18.834  0.00  0.00    +0.000 A 
ATOM     27  C   UNL     1      -0.301  13.903  18.754  0.00  0.00    +0.000 A 
ATOM     28  C   UNL     1       1.075  13.718  18.663  0.00  0.00    +0.000 A 
ATOM     29 CL   UNL     1       2.115  15.086  18.567  0.00  0.00    +0.000 Cl
ATOM     30  C   UNL     1       1.620  12.433  18.641  0.00  0.00    +0.000 A 
ENDBRANCH  22  24
ENDBRANCH  18  19
ENDBRANCH  16  18
ENDBRANCH   2  16
TORSDOF 12
ENDMDL
MODEL 3
REMARK VINA RESULT:      -6.7      1.373      1.585
REMARK  Name = 
REMARK  15 active torsions:
REMARK  status: ('A' for Active; 'I' for Inactive)
REMARK    1  A    between atoms: C_1  and  C_2
REMARK    2  A    between atoms: C_2  and  O_3
REMARK    3  A    between atoms: O_3  and  C_4
REMARK    4  A    between atoms: C_4  and  C_5
REMARK    5  A    between atoms: C_5  and  O_6
REMARK    6  A    between atoms: O_6  and  C_7
REMARK    7  A    between atoms: C_7  and  C_9
REMARK    8  A    between atoms: C_9  and  C_10
REMARK    9  A    between atoms: C_12  and  N_13
REMARK   10  A    between atoms: C_12  and  C_27
REMARK   11  A    between atoms: N_13  and  C_14
REMARK   12  A    between atoms: C_14  and  C_15
REMARK   13  A    between atoms: C_18  and  C_19
REMARK   14  A    between atoms: C_27  and  C_28
REMARK   15  A    between atoms: C_27  and  C_29
REMARK                            x       y       z     vdW  Elec       q    Type
REMARK                         _______ _______ _______ _____ _____    ______ ____
ROOT
ATOM      1  C   UNL     1       4.494   4.397  19.290  0.00  0.00    +0.000 C 
ATOM      2  C   UNL     1       3.264   4.849  18.914  0.00  0.00    +0.000 C 
ENDROOT
BRANCH   2   3
ATOM      3  C   UNL     1       2.027   3.908  18.894  0.00  0.00    +0.000 C 
ATOM      4  C   UNL     1       1.127   4.121  20.116  0.00  0.00    +0.000 C 
ATOM      5  C   UNL     1       1.209   4.042  17.603  0.00  0.00    +0.000 C 
ENDBRANCH   2   3
BRANCH   1   6
ATOM      6  C   UNL     1       5.744   5.206  19.187  0.00  0.00    +0.000 C 
ATOM      7  O   UNL     1       6.643   5.231  20.013  0.00  0.00    +0.000 OA
BRANCH   6   8
ATOM      8  O   UNL     1       5.668   6.035  18.110  0.00  0.00    +0.000 OA
BRANCH   8   9
ATOM      9  C   UNL     1       6.924   6.578  17.687  0.00  0.00    +0.000 C 
BRANCH   9  10
ATOM     10  C   UNL     1       7.267   6.283  16.232  0.00  0.00    +0.000 C 
BRANCH  10  11
ATOM     11  O   UNL     1       7.420   4.865  16.122  0.00  0.00    +0.000 OA
BRANCH  11  13
ATOM     12  C   UNL     1       5.297   4.088  15.381  0.00  0.00    +0.000 C 
ATOM     13  C   UNL     1       6.747   4.316  14.994  0.00  0.00    +0.000 C 
ENDBRANCH  11  13
ENDBRANCH  10  11
ENDBRANCH   9  10
ENDBRANCH   8   9
ENDBRANCH   6   8
ENDBRANCH   1   6
BRANCH   1  14
ATOM     14  C   UNL     1       4.671   2.944  19.696  0.00  0.00    +0.000 C 
ATOM     15  N   UNL     1       4.818   1.737  20.033  0.00  0.00    +0.000 NA
ENDBRANCH   1  14
BRANCH   2  16
ATOM     16  N   UNL     1       2.944   6.173  18.573  0.00  0.00    +0.000 N 
ATOM     17  H   UNL     1       2.139   6.212  17.942  0.00  0.00    +0.000 HD
BRANCH  16  18
ATOM     18  C   UNL     1       2.728   7.225  19.587  0.00  0.00    +0.000 C 
BRANCH  18  19
ATOM     19  C   UNL     1       1.825   8.359  19.212  0.00  0.00    +0.000 A 
ATOM     20  C   UNL     1       1.689   8.974  17.987  0.00  0.00    +0.000 A 
ATOM     21  O   UNL     1       0.765   9.966  18.103  0.00  0.00    +0.000 OA
ATOM     22  C   UNL     1       0.377   9.918  19.417  0.00  0.00    +0.000 A 
ATOM     23  N   UNL     1       0.988   8.984  20.121  0.00  0.00    +0.000 NA
BRANCH  22  24
ATOM     24  C   UNL     1      -0.617  10.900  19.848  0.00  0.00    +0.000 A 
ATOM     25  C   UNL     1      -1.688  11.290  19.026  0.00  0.00    +0.000 A 
ATOM     26  C   UNL     1      -2.614  12.247  19.453  0.00  0.00    +0.000 A 
ATOM     27  C   UNL     1      -2.476  12.828  20.714  0.00  0.00    +0.000 A 
ATOM     28  C   UNL     1      -1.426  12.443  21.541  0.00  0.00    +0.000 A 
ATOM     29 CL   UNL     1      -1.258  13.159  23.097  0.00  0.00    +0.000 Cl
ATOM     30  C   UNL     1      -0.501  11.487  21.117  0.00  0.00    +0.000 A 
ENDBRANCH  22  24
ENDBRANCH  18  19
ENDBRANCH  16  18
ENDBRANCH   2  16
TORSDOF 12
ENDMDL
MODEL 4
REMARK VINA RESULT:      -6.7      2.196      4.544
REMARK  Name = 
REMARK  15 active torsions:
REMARK  status: ('A' for Active; 'I' for Inactive)
REMARK    1  A    between atoms: C_1  and  C_2
REMARK    2  A    between atoms: C_2  and  O_3
REMARK    3  A    between atoms: O_3  and  C_4
REMARK    4  A    between atoms: C_4  and  C_5
REMARK    5  A    between atoms: C_5  and  O_6
REMARK    6  A    between atoms: O_6  and  C_7
REMARK    7  A    between atoms: C_7  and  C_9
REMARK    8  A    between atoms: C_9  and  C_10
REMARK    9  A    between atoms: C_12  and  N_13
REMARK   10  A    between atoms: C_12  and  C_27
REMARK   11  A    between atoms: N_13  and  C_14
REMARK   12  A    between atoms: C_14  and  C_15
REMARK   13  A    between atoms: C_18  and  C_19
REMARK   14  A    between atoms: C_27  and  C_28
REMARK   15  A    between atoms: C_27  and  C_29
REMARK                            x       y       z     vdW  Elec       q    Type
REMARK                         _______ _______ _______ _____ _____    ______ ____
ROOT
ATOM      1  C   UNL     1       4.965   4.274  17.717  0.00  0.00    +0.000 C 
ATOM      2  C   UNL     1       4.993   5.557  18.180  0.00  0.00    +0.000 C 
ENDROOT
BRANCH   2   3
ATOM      3  C   UNL     1       5.648   6.700  17.355  0.00  0.00    +0.000 C 
ATOM      4  C   UNL     1       7.162   6.510  17.217  0.00  0.00    +0.000 C 
ATOM      5  C   UNL     1       5.006   6.866  15.972  0.00  0.00    +0.000 C 
ENDBRANCH   2   3
BRANCH   1   6
ATOM      6  C   UNL     1       4.490   3.111  18.522  0.00  0.00    +0.000 C 
ATOM      7  O   UNL     1       4.856   2.835  19.654  0.00  0.00    +0.000 OA
BRANCH   6   8
ATOM      8  O   UNL     1       3.703   2.310  17.753  0.00  0.00    +0.000 OA
BRANCH   8   9
ATOM      9  C   UNL     1       2.521   1.832  18.407  0.00  0.00    +0.000 C 
BRANCH   9  10
ATOM     10  C   UNL     1       1.353   2.808  18.364  0.00  0.00    +0.000 C 
BRANCH  10  11
ATOM     11  O   UNL     1       0.635   2.649  19.591  0.00  0.00    +0.000 OA
BRANCH  11  13
ATOM     12  C   UNL     1       1.491   2.624  21.811  0.00  0.00    +0.000 C 
ATOM     13  C   UNL     1       1.109   3.499  20.630  0.00  0.00    +0.000 C 
ENDBRANCH  11  13
ENDBRANCH  10  11
ENDBRANCH   9  10
ENDBRANCH   8   9
ENDBRANCH   6   8
ENDBRANCH   1   6
BRANCH   1  14
ATOM     14  C   UNL     1       5.588   3.944  16.371  0.00  0.00    +0.000 C 
ATOM     15  N   UNL     1       6.105   3.671  15.254  0.00  0.00    +0.000 NA
ENDBRANCH   1  14
BRANCH   2  16
ATOM     16  N   UNL     1       4.408   6.013  19.371  0.00  0.00    +0.000 N 
ATOM     17  H   UNL     1       4.704   6.968  19.592  0.00  0.00    +0.000 HD
BRANCH  16  18
ATOM     18  C   UNL     1       2.951   5.965  19.611  0.00  0.00    +0.000 C 
BRANCH  18  19
ATOM     19  C   UNL     1       2.223   7.273  19.648  0.00  0.00    +0.000 A 
ATOM     20  C   UNL     1       2.166   8.247  18.676  0.00  0.00    +0.000 A 
ATOM     21  O   UNL     1       1.402   9.274  19.139  0.00  0.00    +0.000 OA
ATOM     22  C   UNL     1       1.026   8.879  20.397  0.00  0.00    +0.000 A 
ATOM     23  N   UNL     1       1.500   7.698  20.750  0.00  0.00    +0.000 NA
BRANCH  22  24
ATOM     24  C   UNL     1       0.196   9.808  21.161  0.00  0.00    +0.000 A 
ATOM     25  C   UNL     1      -0.156   9.569  22.501  0.00  0.00    +0.000 A 
ATOM     26  C   UNL     1      -0.970  10.464  23.203  0.00  0.00    +0.000 A 
ATOM     27  C   UNL     1      -1.444  11.612  22.569  0.00  0.00    +0.000 A 
ATOM     28  C   UNL     1      -1.094  11.865  21.247  0.00  0.00    +0.000 A 
ATOM     29 CL   UNL     1      -1.677  13.284  20.465  0.00  0.00    +0.000 Cl
ATOM     30  C   UNL     1      -0.281  10.974  20.543  0.00  0.00    +0.000 A 
ENDBRANCH  22  24
ENDBRANCH  18  19
ENDBRANCH  16  18
ENDBRANCH   2  16
TORSDOF 12
ENDMDL
MODEL 5
REMARK VINA RESULT:      -6.7      1.506      1.704
REMARK  Name = 
REMARK  15 active torsions:
REMARK  status: ('A' for Active; 'I' for Inactive)
REMARK    1  A    between atoms: C_1  and  C_2
REMARK    2  A    between atoms: C_2  and  O_3
REMARK    3  A    between atoms: O_3  and  C_4
REMARK    4  A    between atoms: C_4  and  C_5
REMARK    5  A    between atoms: C_5  and  O_6
REMARK    6  A    between atoms: O_6  and  C_7
REMARK    7  A    between atoms: C_7  and  C_9
REMARK    8  A    between atoms: C_9  and  C_10
REMARK    9  A    between atoms: C_12  and  N_13
REMARK   10  A    between atoms: C_12  and  C_27
REMARK   11  A    between atoms: N_13  and  C_14
REMARK   12  A    between atoms: C_14  and  C_15
REMARK   13  A    between atoms: C_18  and  C_19
REMARK   14  A    between atoms: C_27  and  C_28
REMARK   15  A    between atoms: C_27  and  C_29
REMARK                            x       y       z     vdW  Elec       q    Type
REMARK                         _______ _______ _______ _____ _____    ______ ____
ROOT
ATOM      1  C   UNL     1       4.361   3.684  19.368  0.00  0.00    +0.000 C 
ATOM      2  C   UNL     1       3.052   4.054  19.268  0.00  0.00    +0.000 C 
ENDROOT
BRANCH   2   3
ATOM      3  C   UNL     1       1.911   3.133  19.783  0.00  0.00    +0.000 C 
ATOM      4  C   UNL     1       1.039   3.835  20.830  0.00  0.00    +0.000 C 
ATOM      5  C   UNL     1       1.038   2.590  18.646  0.00  0.00    +0.000 C 
ENDBRANCH   2   3
BRANCH   1   6
ATOM      6  C   UNL     1       5.489   4.450  18.760  0.00  0.00    +0.000 C 
ATOM      7  O   UNL     1       6.489   4.828  19.350  0.00  0.00    +0.000 OA
BRANCH   6   8
ATOM      8  O   UNL     1       5.171   4.803  17.485  0.00  0.00    +0.000 OA
BRANCH   8   9
ATOM      9  C   UNL     1       6.160   4.456  16.508  0.00  0.00    +0.000 C 
BRANCH   9  10
ATOM     10  C   UNL     1       6.167   5.364  15.285  0.00  0.00    +0.000 C 
BRANCH  10  11
ATOM     11  O   UNL     1       7.482   5.298  14.727  0.00  0.00    +0.000 OA
BRANCH  11  13
ATOM     12  C   UNL     1       8.192   5.809  12.514  0.00  0.00    +0.000 C 
ATOM     13  C   UNL     1       7.501   4.787  13.398  0.00  0.00    +0.000 C 
ENDBRANCH  11  13
ENDBRANCH  10  11
ENDBRANCH   9  10
ENDBRANCH   8   9
ENDBRANCH   6   8
ENDBRANCH   1   6
BRANCH   1  14
ATOM     14  C   UNL     1       4.722   2.346  19.990  0.00  0.00    +0.000 C 
ATOM     15  N   UNL     1       5.022   1.235  20.505  0.00  0.00    +0.000 NA
ENDBRANCH   1  14
BRANCH   2  16
ATOM     16  N   UNL     1       2.580   5.279  18.774  0.00  0.00    +0.000 N 
ATOM     17  H   UNL     1       1.560   5.280  18.690  0.00  0.00    +0.000 HD
BRANCH  16  18
ATOM     18  C   UNL     1       2.948   6.576  19.379  0.00  0.00    +0.000 C 
BRANCH  18  19
ATOM     19  C   UNL     1       2.305   7.802  18.809  0.00  0.00    +0.000 A 
ATOM     20  C   UNL     1       2.491   8.364  17.565  0.00  0.00    +0.000 A 
ATOM     21  O   UNL     1       1.716   9.479  17.475  0.00  0.00    +0.000 OA
ATOM     22  C   UNL     1       1.087   9.555  18.692  0.00  0.00    +0.000 A 
ATOM     23  N   UNL     1       1.414   8.584  19.524  0.00  0.00    +0.000 NA
BRANCH  22  24
ATOM     24  C   UNL     1       0.184  10.685  18.898  0.00  0.00    +0.000 A 
ATOM     25  C   UNL     1       0.573  11.832  19.613  0.00  0.00    +0.000 A 
ATOM     26  C   UNL     1      -0.317  12.892  19.816  0.00  0.00    +0.000 A 
ATOM     27  C   UNL     1      -1.612  12.815  19.303  0.00  0.00    +0.000 A 
ATOM     28  C   UNL     1      -2.005  11.691  18.585  0.00  0.00    +0.000 A 
ATOM     29 CL   UNL     1      -3.603  11.598  17.951  0.00  0.00    +0.000 Cl
ATOM     30  C   UNL     1      -1.119  10.632  18.381  0.00  0.00    +0.000 A 
ENDBRANCH  22  24
ENDBRANCH  18  19
ENDBRANCH  16  18
ENDBRANCH   2  16
TORSDOF 12
ENDMDL
MODEL 6
REMARK VINA RESULT:      -6.7      1.513      2.181
REMARK  Name = 
REMARK  15 active torsions:
REMARK  status: ('A' for Active; 'I' for Inactive)
REMARK    1  A    between atoms: C_1  and  C_2
REMARK    2  A    between atoms: C_2  and  O_3
REMARK    3  A    between atoms: O_3  and  C_4
REMARK    4  A    between atoms: C_4  and  C_5
REMARK    5  A    between atoms: C_5  and  O_6
REMARK    6  A    between atoms: O_6  and  C_7
REMARK    7  A    between atoms: C_7  and  C_9
REMARK    8  A    between atoms: C_9  and  C_10
REMARK    9  A    between atoms: C_12  and  N_13
REMARK   10  A    between atoms: C_12  and  C_27
REMARK   11  A    between atoms: N_13  and  C_14
REMARK   12  A    between atoms: C_14  and  C_15
REMARK   13  A    between atoms: C_18  and  C_19
REMARK   14  A    between atoms: C_27  and  C_28
REMARK   15  A    between atoms: C_27  and  C_29
REMARK                            x       y       z     vdW  Elec       q    Type
REMARK                         _______ _______ _______ _____ _____    ______ ____
ROOT
ATOM      1  C   UNL     1       4.230   3.431  19.136  0.00  0.00    +0.000 C 
ATOM      2  C   UNL     1       2.966   3.934  19.227  0.00  0.00    +0.000 C 
ENDROOT
BRANCH   2   3
ATOM      3  C   UNL     1       2.006   3.506  20.373  0.00  0.00    +0.000 C 
ATOM      4  C   UNL     1       2.051   4.486  21.551  0.00  0.00    +0.000 C 
ATOM      5  C   UNL     1       0.562   3.323  19.891  0.00  0.00    +0.000 C 
ENDBRANCH   2   3
BRANCH   1   6
ATOM      6  C   UNL     1       5.143   3.684  17.983  0.00  0.00    +0.000 C 
ATOM      7  O   UNL     1       4.900   3.421  16.815  0.00  0.00    +0.000 OA
BRANCH   6   8
ATOM      8  O   UNL     1       6.354   4.108  18.438  0.00  0.00    +0.000 OA
BRANCH   8   9
ATOM      9  C   UNL     1       6.551   5.525  18.373  0.00  0.00    +0.000 C 
BRANCH   9  10
ATOM     10  C   UNL     1       7.125   6.009  17.048  0.00  0.00    +0.000 C 
BRANCH  10  11
ATOM     11  O   UNL     1       6.022   6.466  16.260  0.00  0.00    +0.000 OA
BRANCH  11  13
ATOM     12  C   UNL     1       7.050   4.820  14.883  0.00  0.00    +0.000 C 
ATOM     13  C   UNL     1       6.017   5.931  14.941  0.00  0.00    +0.000 C 
ENDBRANCH  11  13
ENDBRANCH  10  11
ENDBRANCH   9  10
ENDBRANCH   8   9
ENDBRANCH   6   8
ENDBRANCH   1   6
BRANCH   1  14
ATOM     14  C   UNL     1       4.720   2.428  20.168  0.00  0.00    +0.000 C 
ATOM     15  N   UNL     1       5.126   1.596  21.023  0.00  0.00    +0.000 NA
ENDBRANCH   1  14
BRANCH   2  16
ATOM     16  N   UNL     1       2.405   4.906  18.384  0.00  0.00    +0.000 N 
ATOM     17  H   UNL     1       1.445   5.130  18.659  0.00  0.00    +0.000 HD
BRANCH  16  18
ATOM     18  C   UNL     1       3.070   6.195  18.105  0.00  0.00    +0.000 C 
BRANCH  18  19
ATOM     19  C   UNL     1       2.390   7.434  18.600  0.00  0.00    +0.000 A 
ATOM     20  C   UNL     1       2.274   8.654  17.972  0.00  0.00    +0.000 A 
ATOM     21  O   UNL     1       1.590   9.498  18.790  0.00  0.00    +0.000 OA
ATOM     22  C   UNL     1       1.320   8.746  19.905  0.00  0.00    +0.000 A 
ATOM     23  N   UNL     1       1.786   7.513  19.844  0.00  0.00    +0.000 NA
BRANCH  22  24
ATOM     24  C   UNL     1       0.594   9.408  20.988  0.00  0.00    +0.000 A 
ATOM     25  C   UNL     1       0.652   8.951  22.316  0.00  0.00    +0.000 A 
ATOM     26  C   UNL     1      -0.069   9.588  23.331  0.00  0.00    +0.000 A 
ATOM     27  C   UNL     1      -0.861  10.696  23.025  0.00  0.00    +0.000 A 
ATOM     28  C   UNL     1      -0.919  11.163  21.717  0.00  0.00    +0.000 A 
ATOM     29 CL   UNL     1      -1.894  12.531  21.341  0.00  0.00    +0.000 Cl
ATOM     30  C   UNL     1      -0.199  10.530  20.702  0.00  0.00    +0.000 A 
ENDBRANCH  22  24
ENDBRANCH  18  19
ENDBRANCH  16  18
ENDBRANCH   2  16
TORSDOF 12
ENDMDL
MODEL 7
REMARK VINA RESULT:      -6.7      1.922      2.195
REMARK  Name = 
REMARK  15 active torsions:
REMARK  status: ('A' for Active; 'I' for Inactive)
REMARK    1  A    between atoms: C_1  and  C_2
REMARK    2  A    between atoms: C_2  and  O_3
REMARK    3  A    between atoms: O_3  and  C_4
REMARK    4  A    between atoms: C_4  and  C_5
REMARK    5  A    between atoms: C_5  and  O_6
REMARK    6  A    between atoms: O_6  and  C_7
REMARK    7  A    between atoms: C_7  and  C_9
REMARK    8  A    between atoms: C_9  and  C_10
REMARK    9  A    between atoms: C_12  and  N_13
REMARK   10  A    between atoms: C_12  and  C_27
REMARK   11  A    between atoms: N_13  and  C_14
REMARK   12  A    between atoms: C_14  and  C_15
REMARK   13  A    between atoms: C_18  and  C_19
REMARK   14  A    between atoms: C_27  and  C_28
REMARK   15  A    between atoms: C_27  and  C_29
REMARK                            x       y       z     vdW  Elec       q    Type
REMARK                         _______ _______ _______ _____ _____    ______ ____
ROOT
ATOM      1  C   UNL     1       4.098   3.870  19.331  0.00  0.00    +0.000 C 
ATOM      2  C   UNL     1       3.055   4.580  19.849  0.00  0.00    +0.000 C 
ENDROOT
BRANCH   2   3
ATOM      3  C   UNL     1       1.663   3.926  20.073  0.00  0.00    +0.000 C 
ATOM      4  C   UNL     1       1.079   3.366  18.772  0.00  0.00    +0.000 C 
ATOM      5  C   UNL     1       1.695   2.836  21.152  0.00  0.00    +0.000 C 
ENDBRANCH   2   3
BRANCH   1   6
ATOM      6  C   UNL     1       5.408   4.476  18.952  0.00  0.00    +0.000 C 
ATOM      7  O   UNL     1       6.204   4.986  19.725  0.00  0.00    +0.000 OA
BRANCH   6   8
ATOM      8  O   UNL     1       5.521   4.516  17.596  0.00  0.00    +0.000 OA
BRANCH   8   9
ATOM      9  C   UNL     1       4.813   5.594  16.972  0.00  0.00    +0.000 C 
BRANCH   9  10
ATOM     10  C   UNL     1       5.304   5.927  15.570  0.00  0.00    +0.000 C 
BRANCH  10  11
ATOM     11  O   UNL     1       6.709   5.657  15.547  0.00  0.00    +0.000 OA
BRANCH  11  13
ATOM     12  C   UNL     1       5.874   4.076  13.977  0.00  0.00    +0.000 C 
ATOM     13  C   UNL     1       7.102   4.828  14.459  0.00  0.00    +0.000 C 
ENDBRANCH  11  13
ENDBRANCH  10  11
ENDBRANCH   9  10
ENDBRANCH   8   9
ENDBRANCH   6   8
ENDBRANCH   1   6
BRANCH   1  14
ATOM     14  C   UNL     1       3.904   2.410  18.957  0.00  0.00    +0.000 C 
ATOM     15  N   UNL     1       3.744   1.198  18.648  0.00  0.00    +0.000 NA
ENDBRANCH   1  14
BRANCH   2  16
ATOM     16  N   UNL     1       3.106   5.911  20.291  0.00  0.00    +0.000 N 
ATOM     17  H   UNL     1       3.770   6.463  19.741  0.00  0.00    +0.000 HD
BRANCH  16  18
ATOM     18  C   UNL     1       1.897   6.747  20.440  0.00  0.00    +0.000 C 
BRANCH  18  19
ATOM     19  C   UNL     1       1.799   7.966  19.577  0.00  0.00    +0.000 A 
ATOM     20  C   UNL     1       2.350   8.178  18.332  0.00  0.00    +0.000 A 
ATOM     21  O   UNL     1       2.020   9.432  17.922  0.00  0.00    +0.000 OA
ATOM     22  C   UNL     1       1.276   9.943  18.955  0.00  0.00    +0.000 A 
ATOM     23  N   UNL     1       1.126   9.111  19.968  0.00  0.00    +0.000 NA
BRANCH  22  24
ATOM     24  C   UNL     1       0.787  11.313  18.802  0.00  0.00    +0.000 A 
ATOM     25  C   UNL     1      -0.582  11.608  18.675  0.00  0.00    +0.000 A 
ATOM     26  C   UNL     1      -1.023  12.925  18.509  0.00  0.00    +0.000 A 
ATOM     27  C   UNL     1      -0.095  13.965  18.466  0.00  0.00    +0.000 A 
ATOM     28  C   UNL     1       1.262  13.686  18.600  0.00  0.00    +0.000 A 
ATOM     29 CL   UNL     1       2.406  14.970  18.550  0.00  0.00    +0.000 Cl
ATOM     30  C   UNL     1       1.705  12.373  18.768  0.00  0.00    +0.000 A 
ENDBRANCH  22  24
ENDBRANCH  18  19
ENDBRANCH  16  18
ENDBRANCH   2  16
TORSDOF 12
ENDMDL
MODEL 8
REMARK VINA RESULT:      -6.6      1.769      2.376
REMARK  Name = 
REMARK  15 active torsions:
REMARK  status: ('A' for Active; 'I' for Inactive)
REMARK    1  A    between atoms: C_1  and  C_2
REMARK    2  A    between atoms: C_2  and  O_3
REMARK    3  A    between atoms: O_3  and  C_4
REMARK    4  A    between atoms: C_4  and  C_5
REMARK    5  A    between atoms: C_5  and  O_6
REMARK    6  A    between atoms: O_6  and  C_7
REMARK    7  A    between atoms: C_7  and  C_9
REMARK    8  A    between atoms: C_9  and  C_10
REMARK    9  A    between atoms: C_12  and  N_13
REMARK   10  A    between atoms: C_12  and  C_27
REMARK   11  A    between atoms: N_13  and  C_14
REMARK   12  A    between atoms: C_14  and  C_15
REMARK   13  A    between atoms: C_18  and  C_19
REMARK   14  A    between atoms: C_27  and  C_28
REMARK   15  A    between atoms: C_27  and  C_29
REMARK                            x       y       z     vdW  Elec       q    Type
REMARK                         _______ _______ _______ _____ _____    ______ ____
ROOT
ATOM      1  C   UNL     1       4.346   3.806  19.133  0.00  0.00    +0.000 C 
ATOM      2  C   UNL     1       3.243   4.579  19.350  0.00  0.00    +0.000 C 
ENDROOT
BRANCH   2   3
ATOM      3  C   UNL     1       1.808   3.996  19.218  0.00  0.00    +0.000 C 
ATOM      4  C   UNL     1       0.871   4.537  20.304  0.00  0.00    +0.000 C 
ATOM      5  C   UNL     1       1.203   4.236  17.829  0.00  0.00    +0.000 C 
ENDBRANCH   2   3
BRANCH   1   6
ATOM      6  C   UNL     1       5.739   4.338  19.095  0.00  0.00    +0.000 C 
ATOM      7  O   UNL     1       6.214   5.140  19.884  0.00  0.00    +0.000 OA
BRANCH   6   8
ATOM      8  O   UNL     1       6.361   3.918  17.959  0.00  0.00    +0.000 OA
BRANCH   8   9
ATOM      9  C   UNL     1       7.099   4.937  17.273  0.00  0.00    +0.000 C 
BRANCH   9  10
ATOM     10  C   UNL     1       6.238   5.846  16.406  0.00  0.00    +0.000 C 
BRANCH  10  11
ATOM     11  O   UNL     1       6.496   7.188  16.828  0.00  0.00    +0.000 OA
BRANCH  11  13
ATOM     12  C   UNL     1       7.966   8.779  17.814  0.00  0.00    +0.000 C 
ATOM     13  C   UNL     1       7.648   7.302  17.657  0.00  0.00    +0.000 C 
ENDBRANCH  11  13
ENDBRANCH  10  11
ENDBRANCH   9  10
ENDBRANCH   8   9
ENDBRANCH   6   8
ENDBRANCH   1   6
BRANCH   1  14
ATOM     14  C   UNL     1       4.178   2.345  18.750  0.00  0.00    +0.000 C 
ATOM     15  N   UNL     1       4.039   1.133  18.431  0.00  0.00    +0.000 NA
ENDBRANCH   1  14
BRANCH   2  16
ATOM     16  N   UNL     1       3.249   5.920  19.765  0.00  0.00    +0.000 N 
ATOM     17  H   UNL     1       3.865   6.060  20.570  0.00  0.00    +0.000 HD
BRANCH  16  18
ATOM     18  C   UNL     1       3.518   7.038  18.837  0.00  0.00    +0.000 C 
BRANCH  18  19
ATOM     19  C   UNL     1       2.404   8.008  18.596  0.00  0.00    +0.000 A 
ATOM     20  C   UNL     1       1.888   8.436  17.393  0.00  0.00    +0.000 A 
ATOM     21  O   UNL     1       0.894   9.331  17.643  0.00  0.00    +0.000 OA
ATOM     22  C   UNL     1       0.850   9.417  19.011  0.00  0.00    +0.000 A 
ATOM     23  N   UNL     1       1.738   8.656  19.623  0.00  0.00    +0.000 NA
BRANCH  22  24
ATOM     24  C   UNL     1      -0.132  10.336  19.583  0.00  0.00    +0.000 A 
ATOM     25  C   UNL     1      -1.018  11.078  18.782  0.00  0.00    +0.000 A 
ATOM     26  C   UNL     1      -1.935  11.967  19.353  0.00  0.00    +0.000 A 
ATOM     27  C   UNL     1      -1.975  12.124  20.738  0.00  0.00    +0.000 A 
ATOM     28  C   UNL     1      -1.111  11.388  21.542  0.00  0.00    +0.000 A 
ATOM     29 CL   UNL     1      -1.163  11.581  23.252  0.00  0.00    +0.000 Cl
ATOM     30  C   UNL     1      -0.195  10.499  20.975  0.00  0.00    +0.000 A 
ENDBRANCH  22  24
ENDBRANCH  18  19
ENDBRANCH  16  18
ENDBRANCH   2  16
TORSDOF 12
ENDMDL
MODEL 9
REMARK VINA RESULT:      -6.6      1.910      2.163
REMARK  Name = 
REMARK  15 active torsions:
REMARK  status: ('A' for Active; 'I' for Inactive)
REMARK    1  A    between atoms: C_1  and  C_2
REMARK    2  A    between atoms: C_2  and  O_3
REMARK    3  A    between atoms: O_3  and  C_4
REMARK    4  A    between atoms: C_4  and  C_5
REMARK    5  A    between atoms: C_5  and  O_6
REMARK    6  A    between atoms: O_6  and  C_7
REMARK    7  A    between atoms: C_7  and  C_9
REMARK    8  A    between atoms: C_9  and  C_10
REMARK    9  A    between atoms: C_12  and  N_13
REMARK   10  A    between atoms: C_12  and  C_27
REMARK   11  A    between atoms: N_13  and  C_14
REMARK   12  A    between atoms: C_14  and  C_15
REMARK   13  A    between atoms: C_18  and  C_19
REMARK   14  A    between atoms: C_27  and  C_28
REMARK   15  A    between atoms: C_27  and  C_29
REMARK                            x       y       z     vdW  Elec       q    Type
REMARK                         _______ _______ _______ _____ _____    ______ ____
ROOT
ATOM      1  C   UNL     1       4.284   3.596  19.187  0.00  0.00    +0.000 C 
ATOM      2  C   UNL     1       3.169   4.305  19.524  0.00  0.00    +0.000 C 
ENDROOT
BRANCH   2   3
ATOM      3  C   UNL     1       1.774   3.625  19.612  0.00  0.00    +0.000 C 
ATOM      4  C   UNL     1       0.860   4.325  20.624  0.00  0.00    +0.000 C 
ATOM      5  C   UNL     1       1.081   3.532  18.247  0.00  0.00    +0.000 C 
ENDBRANCH   2   3
BRANCH   1   6
ATOM      6  C   UNL     1       5.619   4.216  18.939  0.00  0.00    +0.000 C 
ATOM      7  O   UNL     1       6.258   4.872  19.747  0.00  0.00    +0.000 OA
BRANCH   6   8
ATOM      8  O   UNL     1       5.955   4.076  17.627  0.00  0.00    +0.000 OA
BRANCH   8   9
ATOM      9  C   UNL     1       7.174   4.730  17.252  0.00  0.00    +0.000 C 
BRANCH   9  10
ATOM     10  C   UNL     1       6.973   6.115  16.653  0.00  0.00    +0.000 C 
BRANCH  10  11
ATOM     11  O   UNL     1       6.580   5.925  15.291  0.00  0.00    +0.000 OA
BRANCH  11  13
ATOM     12  C   UNL     1       5.942   4.050  13.971  0.00  0.00    +0.000 C 
ATOM     13  C   UNL     1       7.078   4.716  14.729  0.00  0.00    +0.000 C 
ENDBRANCH  11  13
ENDBRANCH  10  11
ENDBRANCH   9  10
ENDBRANCH   8   9
ENDBRANCH   6   8
ENDBRANCH   1   6
BRANCH   1  14
ATOM     14  C   UNL     1       4.171   2.112  18.884  0.00  0.00    +0.000 C 
ATOM     15  N   UNL     1       4.077   0.880  18.632  0.00  0.00    +0.000 NA
ENDBRANCH   1  14
BRANCH   2  16
ATOM     16  N   UNL     1       3.135   5.661  19.885  0.00  0.00    +0.000 N 
ATOM     17  H   UNL     1       3.981   5.934  20.393  0.00  0.00    +0.000 HD
BRANCH  16  18
ATOM     18  C   UNL     1       2.872   6.737  18.908  0.00  0.00    +0.000 C 
BRANCH  18  19
ATOM     19  C   UNL     1       2.087   7.918  19.388  0.00  0.00    +0.000 A 
ATOM     20  C   UNL     1       1.475   8.097  20.609  0.00  0.00    +0.000 A 
ATOM     21  O   UNL     1       0.861   9.312  20.610  0.00  0.00    +0.000 OA
ATOM     22  C   UNL     1       1.122   9.826  19.366  0.00  0.00    +0.000 A 
ATOM     23  N   UNL     1       1.840   9.028  18.598  0.00  0.00    +0.000 NA
BRANCH  22  24
ATOM     24  C   UNL     1       0.562  11.142  19.065  0.00  0.00    +0.000 A 
ATOM     25  C   UNL     1      -0.813  11.338  18.846  0.00  0.00    +0.000 A 
ATOM     26  C   UNL     1      -1.321  12.604  18.539  0.00  0.00    +0.000 A 
ATOM     27  C   UNL     1      -0.455  13.693  18.446  0.00  0.00    +0.000 A 
ATOM     28  C   UNL     1       0.906  13.514  18.670  0.00  0.00    +0.000 A 
ATOM     29 CL   UNL     1       1.975  14.859  18.557  0.00  0.00    +0.000 Cl
ATOM     30  C   UNL     1       1.416  12.252  18.978  0.00  0.00    +0.000 A 
ENDBRANCH  22  24
ENDBRANCH  18  19
ENDBRANCH  16  18
ENDBRANCH   2  16
TORSDOF 12
ENDMDL
