MODEL 1
REMARK VINA RESULT:      -7.9      0.000      0.000
REMARK  Name = 
REMARK  12 active torsions:
REMARK  status: ('A' for Active; 'I' for Inactive)
REMARK    1  A    between atoms: C_2  and  O_3
REMARK    2  A    between atoms: C_2  and  C_4
REMARK    3  A    between atoms: C_4  and  C_5
REMARK    4  A    between atoms: C_5  and  C_6
REMARK    5  A    between atoms: C_6  and  C_7
REMARK    6  A    between atoms: C_7  and  C_8
REMARK    7  A    between atoms: C_8  and  C_9
REMARK    8  A    between atoms: C_9  and  C_10
REMARK    9  A    between atoms: C_10  and  C_11
REMARK   10  A    between atoms: C_11  and  N_12
REMARK   11  A    between atoms: C_14  and  C_15
REMARK   12  A    between atoms: N_21  and  C_22
REMARK                            x       y       z     vdW  Elec       q    Type
REMARK                         _______ _______ _______ _____ _____    ______ ____
ROOT
ATOM      1  N   UNL     1       5.393   6.445  17.507  0.00  0.00    +0.000 N 
ATOM      2  N   UNL     1       4.542   7.530  17.594  0.00  0.00    +0.000 NA
ATOM      3  C   UNL     1       3.507   7.078  18.256  0.00  0.00    +0.000 A 
ATOM      4  N   UNL     1       3.610   5.751  18.603  0.00  0.00    +0.000 N 
ATOM      5  C   UNL     1       4.850   5.335  18.166  0.00  0.00    +0.000 A 
ATOM      6  O   UNL     1       5.376   4.239  18.292  0.00  0.00    +0.000 OA
ENDROOT
BRANCH   3   7
ATOM      7  C   UNL     1       2.364   7.935  18.678  0.00  0.00    +0.000 A 
ATOM      8  C   UNL     1       1.724   8.749  17.737  0.00  0.00    +0.000 A 
ATOM      9  C   UNL     1       0.650   9.563  18.125  0.00  0.00    +0.000 A 
ATOM     10  C   UNL     1       0.207   9.570  19.447  0.00  0.00    +0.000 A 
ATOM     11  C   UNL     1       0.859   8.791  20.396  0.00  0.00    +0.000 A 
ATOM     12  C   UNL     1       1.948   8.005  20.016  0.00  0.00    +0.000 A 
ENDBRANCH   3   7
BRANCH   4  13
ATOM     13  C   UNL     1       2.661   4.877  19.143  0.00  0.00    +0.000 A 
ATOM     14  C   UNL     1       2.627   4.682  20.528  0.00  0.00    +0.000 A 
ATOM     15  C   UNL     1       1.643   3.876  21.096  0.00  0.00    +0.000 A 
ATOM     16  C   UNL     1       0.724   3.220  20.279  0.00  0.00    +0.000 A 
ATOM     17  C   UNL     1       0.771   3.388  18.895  0.00  0.00    +0.000 A 
ATOM     18  C   UNL     1       1.726   4.234  18.326  0.00  0.00    +0.000 A 
ENDBRANCH   4  13
BRANCH   1  19
ATOM     19  C   UNL     1       6.713   6.494  16.918  0.00  0.00    +0.000 C 
BRANCH  19  20
ATOM     20  C   UNL     1       7.728   7.134  17.866  0.00  0.00    +0.000 C 
BRANCH  20  21
ATOM     21  C   UNL     1       7.749   8.662  17.764  0.00  0.00    +0.000 C 
BRANCH  21  22
ATOM     22  C   UNL     1       8.808   9.257  18.700  0.00  0.00    +0.000 C 
BRANCH  22  23
ATOM     23  C   UNL     1       9.344  10.601  18.199  0.00  0.00    +0.000 C 
BRANCH  23  24
ATOM     24  C   UNL     1      10.311  11.225  19.213  0.00  0.00    +0.000 C 
BRANCH  24  25
ATOM     25  C   UNL     1      11.522  11.864  18.529  0.00  0.00    +0.000 C 
BRANCH  25  26
ATOM     26  C   UNL     1      11.105  12.715  17.329  0.00  0.00    +0.000 C 
BRANCH  26  28
ATOM     27  O   UNL     1      11.655  14.852  18.354  0.00  0.00    +0.000 OA
ATOM     28  C   UNL     1      10.883  14.162  17.710  0.00  0.00    +0.000 C 
BRANCH  28  29
ATOM     29  O   UNL     1       9.702  14.639  17.250  0.00  0.00    +0.000 OA
ATOM     30  H   UNL     1       9.471  14.324  16.355  0.00  0.00    +0.000 HD
ENDBRANCH  28  29
ENDBRANCH  26  28
ENDBRANCH  25  26
ENDBRANCH  24  25
ENDBRANCH  23  24
ENDBRANCH  22  23
ENDBRANCH  21  22
ENDBRANCH  20  21
ENDBRANCH  19  20
ENDBRANCH   1  19
TORSDOF 12
ENDMDL
MODEL 2
REMARK VINA RESULT:      -7.7      4.755      6.840
REMARK  Name = 
REMARK  12 active torsions:
REMARK  status: ('A' for Active; 'I' for Inactive)
REMARK    1  A    between atoms: C_2  and  O_3
REMARK    2  A    between atoms: C_2  and  C_4
REMARK    3  A    between atoms: C_4  and  C_5
REMARK    4  A    between atoms: C_5  and  C_6
REMARK    5  A    between atoms: C_6  and  C_7
REMARK    6  A    between atoms: C_7  and  C_8
REMARK    7  A    between atoms: C_8  and  C_9
REMARK    8  A    between atoms: C_9  and  C_10
REMARK    9  A    between atoms: C_10  and  C_11
REMARK   10  A    between atoms: C_11  and  N_12
REMARK   11  A    between atoms: C_14  and  C_15
REMARK   12  A    between atoms: N_21  and  C_22
REMARK                            x       y       z     vdW  Elec       q    Type
REMARK                         _______ _______ _______ _____ _____    ______ ____
ROOT
ATOM      1  N   UNL     1       5.852   5.553  18.251  0.00  0.00    +0.000 N 
ATOM      2  N   UNL     1       5.134   6.725  18.116  0.00  0.00    +0.000 NA
ATOM      3  C   UNL     1       3.951   6.439  18.597  0.00  0.00    +0.000 A 
ATOM      4  N   UNL     1       3.833   5.139  19.032  0.00  0.00    +0.000 N 
ATOM      5  C   UNL     1       5.072   4.561  18.859  0.00  0.00    +0.000 A 
ATOM      6  O   UNL     1       5.434   3.429  19.143  0.00  0.00    +0.000 OA
ENDROOT
BRANCH   3   7
ATOM      7  C   UNL     1       2.862   7.443  18.749  0.00  0.00    +0.000 A 
ATOM      8  C   UNL     1       2.533   8.277  17.675  0.00  0.00    +0.000 A 
ATOM      9  C   UNL     1       1.512   9.228  17.808  0.00  0.00    +0.000 A 
ATOM     10  C   UNL     1       0.812   9.353  19.008  0.00  0.00    +0.000 A 
ATOM     11  C   UNL     1       1.155   8.553  20.092  0.00  0.00    +0.000 A 
ATOM     12  C   UNL     1       2.192   7.627  19.969  0.00  0.00    +0.000 A 
ENDBRANCH   3   7
BRANCH   4  13
ATOM     13  C   UNL     1       2.705   4.416  19.435  0.00  0.00    +0.000 A 
ATOM     14  C   UNL     1       1.863   3.872  18.460  0.00  0.00    +0.000 A 
ATOM     15  C   UNL     1       0.776   3.084  18.835  0.00  0.00    +0.000 A 
ATOM     16  C   UNL     1       0.498   2.882  20.186  0.00  0.00    +0.000 A 
ATOM     17  C   UNL     1       1.319   3.446  21.163  0.00  0.00    +0.000 A 
ATOM     18  C   UNL     1       2.436   4.195  20.790  0.00  0.00    +0.000 A 
ENDBRANCH   4  13
BRANCH   1  19
ATOM     19  C   UNL     1       7.253   5.415  17.918  0.00  0.00    +0.000 C 
BRANCH  19  20
ATOM     20  C   UNL     1       7.456   4.503  16.708  0.00  0.00    +0.000 C 
BRANCH  20  21
ATOM     21  C   UNL     1       7.276   5.239  15.377  0.00  0.00    +0.000 C 
BRANCH  21  22
ATOM     22  C   UNL     1       5.790   5.371  15.023  0.00  0.00    +0.000 C 
BRANCH  22  23
ATOM     23  C   UNL     1       5.225   4.098  14.385  0.00  0.00    +0.000 C 
BRANCH  23  24
ATOM     24  C   UNL     1       6.273   3.406  13.504  0.00  0.00    +0.000 C 
BRANCH  24  25
ATOM     25  C   UNL     1       5.931   3.514  12.017  0.00  0.00    +0.000 C 
BRANCH  25  26
ATOM     26  C   UNL     1       5.261   2.240  11.501  0.00  0.00    +0.000 C 
BRANCH  26  28
ATOM     27  O   UNL     1       6.012  -0.055  11.197  0.00  0.00    +0.000 OA
ATOM     28  C   UNL     1       6.263   1.139  11.235  0.00  0.00    +0.000 C 
BRANCH  28  29
ATOM     29  O   UNL     1       7.513   1.619  11.036  0.00  0.00    +0.000 OA
ATOM     30  H   UNL     1       7.585   2.588  11.139  0.00  0.00    +0.000 HD
ENDBRANCH  28  29
ENDBRANCH  26  28
ENDBRANCH  25  26
ENDBRANCH  24  25
ENDBRANCH  23  24
ENDBRANCH  22  23
ENDBRANCH  21  22
ENDBRANCH  20  21
ENDBRANCH  19  20
ENDBRANCH   1  19
TORSDOF 12
ENDMDL
MODEL 3
REMARK VINA RESULT:      -7.6      1.153      1.777
REMARK  Name = 
REMARK  12 active torsions:
REMARK  status: ('A' for Active; 'I' for Inactive)
REMARK    1  A    between atoms: C_2  and  O_3
REMARK    2  A    between atoms: C_2  and  C_4
REMARK    3  A    between atoms: C_4  and  C_5
REMARK    4  A    between atoms: C_5  and  C_6
REMARK    5  A    between atoms: C_6  and  C_7
REMARK    6  A    between atoms: C_7  and  C_8
REMARK    7  A    between atoms: C_8  and  C_9
REMARK    8  A    between atoms: C_9  and  C_10
REMARK    9  A    between atoms: C_10  and  C_11
REMARK   10  A    between atoms: C_11  and  N_12
REMARK   11  A    between atoms: C_14  and  C_15
REMARK   12  A    between atoms: N_21  and  C_22
REMARK                            x       y       z     vdW  Elec       q    Type
REMARK                         _______ _______ _______ _____ _____    ______ ____
ROOT
ATOM      1  N   UNL     1       4.791   5.933  16.899  0.00  0.00    +0.000 N 
ATOM      2  N   UNL     1       4.086   7.084  17.193  0.00  0.00    +0.000 NA
ATOM      3  C   UNL     1       3.232   6.715  18.114  0.00  0.00    +0.000 A 
ATOM      4  N   UNL     1       3.317   5.381  18.442  0.00  0.00    +0.000 N 
ATOM      5  C   UNL     1       4.357   4.867  17.696  0.00  0.00    +0.000 A 
ATOM      6  O   UNL     1       4.807   3.731  17.695  0.00  0.00    +0.000 OA
ENDROOT
BRANCH   3   7
ATOM      7  C   UNL     1       2.318   7.660  18.813  0.00  0.00    +0.000 A 
ATOM      8  C   UNL     1       1.807   8.766  18.125  0.00  0.00    +0.000 A 
ATOM      9  C   UNL     1       0.949   9.664  18.774  0.00  0.00    +0.000 A 
ATOM     10  C   UNL     1       0.593   9.467  20.108  0.00  0.00    +0.000 A 
ATOM     11  C   UNL     1       1.123   8.390  20.810  0.00  0.00    +0.000 A 
ATOM     12  C   UNL     1       2.002   7.513  20.172  0.00  0.00    +0.000 A 
ENDBRANCH   3   7
BRANCH   4  13
ATOM     13  C   UNL     1       2.480   4.585  19.230  0.00  0.00    +0.000 A 
ATOM     14  C   UNL     1       1.438   3.879  18.618  0.00  0.00    +0.000 A 
ATOM     15  C   UNL     1       0.639   3.021  19.371  0.00  0.00    +0.000 A 
ATOM     16  C   UNL     1       0.843   2.906  20.745  0.00  0.00    +0.000 A 
ATOM     17  C   UNL     1       1.863   3.629  21.365  0.00  0.00    +0.000 A 
ATOM     18  C   UNL     1       2.697   4.453  20.606  0.00  0.00    +0.000 A 
ENDBRANCH   4  13
BRANCH   1  19
ATOM     19  C   UNL     1       5.905   5.877  15.978  0.00  0.00    +0.000 C 
BRANCH  19  20
ATOM     20  C   UNL     1       7.245   5.939  16.711  0.00  0.00    +0.000 C 
BRANCH  20  21
ATOM     21  C   UNL     1       7.105   6.424  18.157  0.00  0.00    +0.000 C 
BRANCH  21  22
ATOM     22  C   UNL     1       8.221   7.414  18.512  0.00  0.00    +0.000 C 
BRANCH  22  23
ATOM     23  C   UNL     1       8.003   8.793  17.882  0.00  0.00    +0.000 C 
BRANCH  23  24
ATOM     24  C   UNL     1       9.185   9.727  18.170  0.00  0.00    +0.000 C 
BRANCH  24  25
ATOM     25  C   UNL     1       8.738  11.181  18.333  0.00  0.00    +0.000 C 
BRANCH  25  26
ATOM     26  C   UNL     1       9.740  12.151  17.704  0.00  0.00    +0.000 C 
BRANCH  26  28
ATOM     27  O   UNL     1      11.297  12.434  19.552  0.00  0.00    +0.000 OA
ATOM     28  C   UNL     1      11.084  12.106  18.396  0.00  0.00    +0.000 C 
BRANCH  28  29
ATOM     29  O   UNL     1      12.066  11.649  17.583  0.00  0.00    +0.000 OA
ATOM     30  H   UNL     1      11.738  11.154  16.808  0.00  0.00    +0.000 HD
ENDBRANCH  28  29
ENDBRANCH  26  28
ENDBRANCH  25  26
ENDBRANCH  24  25
ENDBRANCH  23  24
ENDBRANCH  22  23
ENDBRANCH  21  22
ENDBRANCH  20  21
ENDBRANCH  19  20
ENDBRANCH   1  19
TORSDOF 12
ENDMDL
MODEL 4
REMARK VINA RESULT:      -7.5      0.995      1.563
REMARK  Name = 
REMARK  12 active torsions:
REMARK  status: ('A' for Active; 'I' for Inactive)
REMARK    1  A    between atoms: C_2  and  O_3
REMARK    2  A    between atoms: C_2  and  C_4
REMARK    3  A    between atoms: C_4  and  C_5
REMARK    4  A    between atoms: C_5  and  C_6
REMARK    5  A    between atoms: C_6  and  C_7
REMARK    6  A    between atoms: C_7  and  C_8
REMARK    7  A    between atoms: C_8  and  C_9
REMARK    8  A    between atoms: C_9  and  C_10
REMARK    9  A    between atoms: C_10  and  C_11
REMARK   10  A    between atoms: C_11  and  N_12
REMARK   11  A    between atoms: C_14  and  C_15
REMARK   12  A    between atoms: N_21  and  C_22
REMARK                            x       y       z     vdW  Elec       q    Type
REMARK                         _______ _______ _______ _____ _____    ______ ____
ROOT
ATOM      1  N   UNL     1       4.783   5.439  16.618  0.00  0.00    +0.000 N 
ATOM      2  N   UNL     1       4.141   6.636  16.868  0.00  0.00    +0.000 NA
ATOM      3  C   UNL     1       3.322   6.367  17.853  0.00  0.00    +0.000 A 
ATOM      4  N   UNL     1       3.370   5.055  18.266  0.00  0.00    +0.000 N 
ATOM      5  C   UNL     1       4.347   4.448  17.507  0.00  0.00    +0.000 A 
ATOM      6  O   UNL     1       4.750   3.296  17.561  0.00  0.00    +0.000 OA
ENDROOT
BRANCH   3   7
ATOM      7  C   UNL     1       2.485   7.396  18.529  0.00  0.00    +0.000 A 
ATOM      8  C   UNL     1       1.969   8.465  17.789  0.00  0.00    +0.000 A 
ATOM      9  C   UNL     1       1.183   9.442  18.417  0.00  0.00    +0.000 A 
ATOM     10  C   UNL     1       0.904   9.359  19.781  0.00  0.00    +0.000 A 
ATOM     11  C   UNL     1       1.441   8.319  20.531  0.00  0.00    +0.000 A 
ATOM     12  C   UNL     1       2.249   7.364  19.912  0.00  0.00    +0.000 A 
ENDBRANCH   3   7
BRANCH   4  13
ATOM     13  C   UNL     1       2.543   4.351  19.148  0.00  0.00    +0.000 A 
ATOM     14  C   UNL     1       2.954   4.177  20.473  0.00  0.00    +0.000 A 
ATOM     15  C   UNL     1       2.114   3.545  21.388  0.00  0.00    +0.000 A 
ATOM     16  C   UNL     1       0.885   3.038  20.969  0.00  0.00    +0.000 A 
ATOM     17  C   UNL     1       0.483   3.184  19.641  0.00  0.00    +0.000 A 
ATOM     18  C   UNL     1       1.300   3.859  18.733  0.00  0.00    +0.000 A 
ENDBRANCH   4  13
BRANCH   1  19
ATOM     19  C   UNL     1       5.844   5.272  15.650  0.00  0.00    +0.000 C 
BRANCH  19  20
ATOM     20  C   UNL     1       7.209   5.149  16.326  0.00  0.00    +0.000 C 
BRANCH  20  21
ATOM     21  C   UNL     1       7.391   6.146  17.475  0.00  0.00    +0.000 C 
BRANCH  21  22
ATOM     22  C   UNL     1       7.817   7.520  16.944  0.00  0.00    +0.000 C 
BRANCH  22  23
ATOM     23  C   UNL     1       7.516   8.650  17.932  0.00  0.00    +0.000 C 
BRANCH  23  24
ATOM     24  C   UNL     1       8.809   9.290  18.454  0.00  0.00    +0.000 C 
BRANCH  24  25
ATOM     25  C   UNL     1       8.897  10.775  18.095  0.00  0.00    +0.000 C 
BRANCH  25  26
ATOM     26  C   UNL     1      10.325  11.304  18.240  0.00  0.00    +0.000 C 
BRANCH  26  28
ATOM     27  O   UNL     1      11.527  13.307  17.560  0.00  0.00    +0.000 OA
ATOM     28  C   UNL     1      10.480  12.688  17.650  0.00  0.00    +0.000 C 
BRANCH  28  29
ATOM     29  O   UNL     1       9.302  13.195  17.213  0.00  0.00    +0.000 OA
ATOM     30  H   UNL     1       8.719  13.511  17.929  0.00  0.00    +0.000 HD
ENDBRANCH  28  29
ENDBRANCH  26  28
ENDBRANCH  25  26
ENDBRANCH  24  25
ENDBRANCH  23  24
ENDBRANCH  22  23
ENDBRANCH  21  22
ENDBRANCH  20  21
ENDBRANCH  19  20
ENDBRANCH   1  19
TORSDOF 12
ENDMDL
MODEL 5
REMARK VINA RESULT:      -7.5      1.326      2.064
REMARK  Name = 
REMARK  12 active torsions:
REMARK  status: ('A' for Active; 'I' for Inactive)
REMARK    1  A    between atoms: C_2  and  O_3
REMARK    2  A    between atoms: C_2  and  C_4
REMARK    3  A    between atoms: C_4  and  C_5
REMARK    4  A    between atoms: C_5  and  C_6
REMARK    5  A    between atoms: C_6  and  C_7
REMARK    6  A    between atoms: C_7  and  C_8
REMARK    7  A    between atoms: C_8  and  C_9
REMARK    8  A    between atoms: C_9  and  C_10
REMARK    9  A    between atoms: C_10  and  C_11
REMARK   10  A    between atoms: C_11  and  N_12
REMARK   11  A    between atoms: C_14  and  C_15
REMARK   12  A    between atoms: N_21  and  C_22
REMARK                            x       y       z     vdW  Elec       q    Type
REMARK                         _______ _______ _______ _____ _____    ______ ____
ROOT
ATOM      1  N   UNL     1       5.369   6.206  17.380  0.00  0.00    +0.000 N 
ATOM      2  N   UNL     1       4.575   7.333  17.470  0.00  0.00    +0.000 NA
ATOM      3  C   UNL     1       3.531   6.941  18.156  0.00  0.00    +0.000 A 
ATOM      4  N   UNL     1       3.575   5.613  18.516  0.00  0.00    +0.000 N 
ATOM      5  C   UNL     1       4.784   5.132  18.061  0.00  0.00    +0.000 A 
ATOM      6  O   UNL     1       5.258   4.012  18.190  0.00  0.00    +0.000 OA
ENDROOT
BRANCH   3   7
ATOM      7  C   UNL     1       2.441   7.858  18.588  0.00  0.00    +0.000 A 
ATOM      8  C   UNL     1       2.041   7.876  19.929  0.00  0.00    +0.000 A 
ATOM      9  C   UNL     1       1.013   8.732  20.346  0.00  0.00    +0.000 A 
ATOM     10  C   UNL     1       0.378   9.575  19.434  0.00  0.00    +0.000 A 
ATOM     11  C   UNL     1       0.744   9.539  18.094  0.00  0.00    +0.000 A 
ATOM     12  C   UNL     1       1.747   8.664  17.673  0.00  0.00    +0.000 A 
ENDBRANCH   3   7
BRANCH   4  13
ATOM     13  C   UNL     1       2.594   4.794  19.083  0.00  0.00    +0.000 A 
ATOM     14  C   UNL     1       1.713   4.106  18.242  0.00  0.00    +0.000 A 
ATOM     15  C   UNL     1       0.777   3.225  18.780  0.00  0.00    +0.000 A 
ATOM     16  C   UNL     1       0.683   3.069  20.162  0.00  0.00    +0.000 A 
ATOM     17  C   UNL     1       1.540   3.775  21.007  0.00  0.00    +0.000 A 
ATOM     18  C   UNL     1       2.512   4.621  20.469  0.00  0.00    +0.000 A 
ENDBRANCH   4  13
BRANCH   1  19
ATOM     19  C   UNL     1       6.678   6.183  16.767  0.00  0.00    +0.000 C 
BRANCH  19  20
ATOM     20  C   UNL     1       7.491   7.427  17.128  0.00  0.00    +0.000 C 
BRANCH  20  21
ATOM     21  C   UNL     1       8.162   7.315  18.500  0.00  0.00    +0.000 C 
BRANCH  21  22
ATOM     22  C   UNL     1       8.808   8.647  18.901  0.00  0.00    +0.000 C 
BRANCH  22  23
ATOM     23  C   UNL     1       8.372   9.805  17.999  0.00  0.00    +0.000 C 
BRANCH  23  24
ATOM     24  C   UNL     1       9.171  11.079  18.306  0.00  0.00    +0.000 C 
BRANCH  24  25
ATOM     25  C   UNL     1      10.125  10.884  19.487  0.00  0.00    +0.000 C 
BRANCH  25  26
ATOM     26  C   UNL     1      10.699  12.217  19.970  0.00  0.00    +0.000 C 
BRANCH  26  28
ATOM     27  O   UNL     1       9.322  13.949  20.982  0.00  0.00    +0.000 OA
ATOM     28  C   UNL     1       9.843  12.847  21.045  0.00  0.00    +0.000 C 
BRANCH  28  29
ATOM     29  O   UNL     1       9.702  12.044  22.126  0.00  0.00    +0.000 OA
ATOM     30  H   UNL     1       8.921  11.460  22.084  0.00  0.00    +0.000 HD
ENDBRANCH  28  29
ENDBRANCH  26  28
ENDBRANCH  25  26
ENDBRANCH  24  25
ENDBRANCH  23  24
ENDBRANCH  22  23
ENDBRANCH  21  22
ENDBRANCH  20  21
ENDBRANCH  19  20
ENDBRANCH   1  19
TORSDOF 12
ENDMDL
MODEL 6
REMARK VINA RESULT:      -7.5      0.956      1.538
REMARK  Name = 
REMARK  12 active torsions:
REMARK  status: ('A' for Active; 'I' for Inactive)
REMARK    1  A    between atoms: C_2  and  O_3
REMARK    2  A    between atoms: C_2  and  C_4
REMARK    3  A    between atoms: C_4  and  C_5
REMARK    4  A    between atoms: C_5  and  C_6
REMARK    5  A    between atoms: C_6  and  C_7
REMARK    6  A    between atoms: C_7  and  C_8
REMARK    7  A    between atoms: C_8  and  C_9
REMARK    8  A    between atoms: C_9  and  C_10
REMARK    9  A    between atoms: C_10  and  C_11
REMARK   10  A    between atoms: C_11  and  N_12
REMARK   11  A    between atoms: C_14  and  C_15
REMARK   12  A    between atoms: N_21  and  C_22
REMARK                            x       y       z     vdW  Elec       q    Type
REMARK                         _______ _______ _______ _____ _____    ______ ____
ROOT
ATOM      1  N   UNL     1       5.430   6.288  17.540  0.00  0.00    +0.000 N 
ATOM      2  N   UNL     1       4.603   7.393  17.603  0.00  0.00    +0.000 NA
ATOM      3  C   UNL     1       3.547   6.972  18.251  0.00  0.00    +0.000 A 
ATOM      4  N   UNL     1       3.615   5.646  18.613  0.00  0.00    +0.000 N 
ATOM      5  C   UNL     1       4.851   5.198  18.201  0.00  0.00    +0.000 A 
ATOM      6  O   UNL     1       5.350   4.092  18.347  0.00  0.00    +0.000 OA
ENDROOT
BRANCH   3   7
ATOM      7  C   UNL     1       2.418   7.859  18.646  0.00  0.00    +0.000 A 
ATOM      8  C   UNL     1       1.815   8.681  17.688  0.00  0.00    +0.000 A 
ATOM      9  C   UNL     1       0.754   9.523  18.049  0.00  0.00    +0.000 A 
ATOM     10  C   UNL     1       0.287   9.551  19.363  0.00  0.00    +0.000 A 
ATOM     11  C   UNL     1       0.902   8.764  20.329  0.00  0.00    +0.000 A 
ATOM     12  C   UNL     1       1.979   7.949  19.976  0.00  0.00    +0.000 A 
ENDBRANCH   3   7
BRANCH   4  13
ATOM     13  C   UNL     1       2.637   4.800  19.146  0.00  0.00    +0.000 A 
ATOM     14  C   UNL     1       1.780   4.118  18.276  0.00  0.00    +0.000 A 
ATOM     15  C   UNL     1       0.849   3.212  18.780  0.00  0.00    +0.000 A 
ATOM     16  C   UNL     1       0.734   3.025  20.157  0.00  0.00    +0.000 A 
ATOM     17  C   UNL     1       1.567   3.725  21.031  0.00  0.00    +0.000 A 
ATOM     18  C   UNL     1       2.535   4.597  20.527  0.00  0.00    +0.000 A 
ENDBRANCH   4  13
BRANCH   1  19
ATOM     19  C   UNL     1       6.760   6.301  16.973  0.00  0.00    +0.000 C 
BRANCH  19  20
ATOM     20  C   UNL     1       7.750   7.039  17.875  0.00  0.00    +0.000 C 
BRANCH  20  21
ATOM     21  C   UNL     1       7.858   8.529  17.538  0.00  0.00    +0.000 C 
BRANCH  21  22
ATOM     22  C   UNL     1       8.611   9.285  18.639  0.00  0.00    +0.000 C 
BRANCH  22  23
ATOM     23  C   UNL     1       9.478  10.419  18.084  0.00  0.00    +0.000 C 
BRANCH  23  24
ATOM     24  C   UNL     1       9.285  11.710  18.889  0.00  0.00    +0.000 C 
BRANCH  24  25
ATOM     25  C   UNL     1       8.839  12.875  18.003  0.00  0.00    +0.000 C 
BRANCH  25  26
ATOM     26  C   UNL     1       9.258  14.222  18.593  0.00  0.00    +0.000 C 
BRANCH  26  28
ATOM     27  O   UNL     1       7.436  15.717  17.989  0.00  0.00    +0.000 OA
ATOM     28  C   UNL     1       8.605  15.383  17.877  0.00  0.00    +0.000 C 
BRANCH  28  29
ATOM     29  O   UNL     1       9.470  16.044  17.072  0.00  0.00    +0.000 OA
ATOM     30  H   UNL     1       9.044  16.475  16.306  0.00  0.00    +0.000 HD
ENDBRANCH  28  29
ENDBRANCH  26  28
ENDBRANCH  25  26
ENDBRANCH  24  25
ENDBRANCH  23  24
ENDBRANCH  22  23
ENDBRANCH  21  22
ENDBRANCH  20  21
ENDBRANCH  19  20
ENDBRANCH   1  19
TORSDOF 12
ENDMDL
MODEL 7
REMARK VINA RESULT:      -7.5      1.631      2.157
REMARK  Name = 
REMARK  12 active torsions:
REMARK  status: ('A' for Active; 'I' for Inactive)
REMARK    1  A    between atoms: C_2  and  O_3
REMARK    2  A    between atoms: C_2  and  C_4
REMARK    3  A    between atoms: C_4  and  C_5
REMARK    4  A    between atoms: C_5  and  C_6
REMARK    5  A    between atoms: C_6  and  C_7
REMARK    6  A    between atoms: C_7  and  C_8
REMARK    7  A    between atoms: C_8  and  C_9
REMARK    8  A    between atoms: C_9  and  C_10
REMARK    9  A    between atoms: C_10  and  C_11
REMARK   10  A    between atoms: C_11  and  N_12
REMARK   11  A    between atoms: C_14  and  C_15
REMARK   12  A    between atoms: N_21  and  C_22
REMARK                            x       y       z     vdW  Elec       q    Type
REMARK                         _______ _______ _______ _____ _____    ______ ____
ROOT
ATOM      1  N   UNL     1       5.413   6.306  17.498  0.00  0.00    +0.000 N 
ATOM      2  N   UNL     1       4.593   7.415  17.581  0.00  0.00    +0.000 NA
ATOM      3  C   UNL     1       3.536   6.990  18.225  0.00  0.00    +0.000 A 
ATOM      4  N   UNL     1       3.596   5.658  18.565  0.00  0.00    +0.000 N 
ATOM      5  C   UNL     1       4.829   5.209  18.143  0.00  0.00    +0.000 A 
ATOM      6  O   UNL     1       5.322   4.097  18.269  0.00  0.00    +0.000 OA
ENDROOT
BRANCH   3   7
ATOM      7  C   UNL     1       2.413   7.877  18.637  0.00  0.00    +0.000 A 
ATOM      8  C   UNL     1       1.815   8.720  17.695  0.00  0.00    +0.000 A 
ATOM      9  C   UNL     1       0.760   9.563  18.072  0.00  0.00    +0.000 A 
ATOM     10  C   UNL     1       0.294   9.569  19.387  0.00  0.00    +0.000 A 
ATOM     11  C   UNL     1       0.905   8.761  20.338  0.00  0.00    +0.000 A 
ATOM     12  C   UNL     1       1.975   7.945  19.969  0.00  0.00    +0.000 A 
ENDBRANCH   3   7
BRANCH   4  13
ATOM     13  C   UNL     1       2.615   4.809  19.087  0.00  0.00    +0.000 A 
ATOM     14  C   UNL     1       1.778   4.115  18.207  0.00  0.00    +0.000 A 
ATOM     15  C   UNL     1       0.844   3.206  18.701  0.00  0.00    +0.000 A 
ATOM     16  C   UNL     1       0.706   3.028  20.076  0.00  0.00    +0.000 A 
ATOM     17  C   UNL     1       1.519   3.739  20.960  0.00  0.00    +0.000 A 
ATOM     18  C   UNL     1       2.490   4.614  20.467  0.00  0.00    +0.000 A 
ENDBRANCH   4  13
BRANCH   1  19
ATOM     19  C   UNL     1       6.742   6.320  16.928  0.00  0.00    +0.000 C 
BRANCH  19  20
ATOM     20  C   UNL     1       7.735   7.049  17.833  0.00  0.00    +0.000 C 
BRANCH  20  21
ATOM     21  C   UNL     1       7.843   8.542  17.509  0.00  0.00    +0.000 C 
BRANCH  21  22
ATOM     22  C   UNL     1       8.589   9.290  18.621  0.00  0.00    +0.000 C 
BRANCH  22  23
ATOM     23  C   UNL     1       9.484  10.407  18.078  0.00  0.00    +0.000 C 
BRANCH  23  24
ATOM     24  C   UNL     1       9.007  11.783  18.558  0.00  0.00    +0.000 C 
BRANCH  24  25
ATOM     25  C   UNL     1      10.008  12.434  19.516  0.00  0.00    +0.000 C 
BRANCH  25  26
ATOM     26  C   UNL     1      10.001  11.750  20.885  0.00  0.00    +0.000 C 
BRANCH  26  28
ATOM     27  O   UNL     1       8.221  13.271  21.546  0.00  0.00    +0.000 OA
ATOM     28  C   UNL     1       9.025  12.401  21.839  0.00  0.00    +0.000 C 
BRANCH  28  29
ATOM     29  O   UNL     1       9.130  11.910  23.096  0.00  0.00    +0.000 OA
ATOM     30  H   UNL     1       9.633  12.485  23.704  0.00  0.00    +0.000 HD
ENDBRANCH  28  29
ENDBRANCH  26  28
ENDBRANCH  25  26
ENDBRANCH  24  25
ENDBRANCH  23  24
ENDBRANCH  22  23
ENDBRANCH  21  22
ENDBRANCH  20  21
ENDBRANCH  19  20
ENDBRANCH   1  19
TORSDOF 12
ENDMDL
MODEL 8
REMARK VINA RESULT:      -7.5      1.108      1.387
REMARK  Name = 
REMARK  12 active torsions:
REMARK  status: ('A' for Active; 'I' for Inactive)
REMARK    1  A    between atoms: C_2  and  O_3
REMARK    2  A    between atoms: C_2  and  C_4
REMARK    3  A    between atoms: C_4  and  C_5
REMARK    4  A    between atoms: C_5  and  C_6
REMARK    5  A    between atoms: C_6  and  C_7
REMARK    6  A    between atoms: C_7  and  C_8
REMARK    7  A    between atoms: C_8  and  C_9
REMARK    8  A    between atoms: C_9  and  C_10
REMARK    9  A    between atoms: C_10  and  C_11
REMARK   10  A    between atoms: C_11  and  N_12
REMARK   11  A    between atoms: C_14  and  C_15
REMARK   12  A    between atoms: N_21  and  C_22
REMARK                            x       y       z     vdW  Elec       q    Type
REMARK                         _______ _______ _______ _____ _____    ______ ____
ROOT
ATOM      1  N   UNL     1       5.906   5.539  18.542  0.00  0.00    +0.000 N 
ATOM      2  N   UNL     1       5.171   6.700  18.400  0.00  0.00    +0.000 NA
ATOM      3  C   UNL     1       3.958   6.363  18.758  0.00  0.00    +0.000 A 
ATOM      4  N   UNL     1       3.837   5.040  19.117  0.00  0.00    +0.000 N 
ATOM      5  C   UNL     1       5.102   4.500  19.028  0.00  0.00    +0.000 A 
ATOM      6  O   UNL     1       5.468   3.364  19.290  0.00  0.00    +0.000 OA
ENDROOT
BRANCH   3   7
ATOM      7  C   UNL     1       2.832   7.332  18.858  0.00  0.00    +0.000 A 
ATOM      8  C   UNL     1       2.491   8.116  17.751  0.00  0.00    +0.000 A 
ATOM      9  C   UNL     1       1.436   9.035  17.836  0.00  0.00    +0.000 A 
ATOM     10  C   UNL     1       0.714   9.177  19.021  0.00  0.00    +0.000 A 
ATOM     11  C   UNL     1       1.068   8.428  20.137  0.00  0.00    +0.000 A 
ATOM     12  C   UNL     1       2.138   7.536  20.061  0.00  0.00    +0.000 A 
ENDBRANCH   3   7
BRANCH   4  13
ATOM     13  C   UNL     1       2.698   4.272  19.380  0.00  0.00    +0.000 A 
ATOM     14  C   UNL     1       2.321   4.048  20.709  0.00  0.00    +0.000 A 
ATOM     15  C   UNL     1       1.150   3.350  20.995  0.00  0.00    +0.000 A 
ATOM     16  C   UNL     1       0.380   2.828  19.957  0.00  0.00    +0.000 A 
ATOM     17  C   UNL     1       0.767   3.023  18.630  0.00  0.00    +0.000 A 
ATOM     18  C   UNL     1       1.914   3.764  18.339  0.00  0.00    +0.000 A 
ENDBRANCH   4  13
BRANCH   1  19
ATOM     19  C   UNL     1       7.333   5.451  18.330  0.00  0.00    +0.000 C 
BRANCH  19  20
ATOM     20  C   UNL     1       8.026   6.788  18.593  0.00  0.00    +0.000 C 
BRANCH  20  21
ATOM     21  C   UNL     1       7.966   7.730  17.387  0.00  0.00    +0.000 C 
BRANCH  21  22
ATOM     22  C   UNL     1       7.941   9.195  17.839  0.00  0.00    +0.000 C 
BRANCH  22  23
ATOM     23  C   UNL     1       9.014   9.503  18.888  0.00  0.00    +0.000 C 
BRANCH  23  24
ATOM     24  C   UNL     1       9.428  10.979  18.841  0.00  0.00    +0.000 C 
BRANCH  24  25
ATOM     25  C   UNL     1      10.299  11.367  20.038  0.00  0.00    +0.000 C 
BRANCH  25  26
ATOM     26  C   UNL     1      11.404  12.346  19.635  0.00  0.00    +0.000 C 
BRANCH  26  28
ATOM     27  O   UNL     1      10.837  13.434  17.534  0.00  0.00    +0.000 OA
ATOM     28  C   UNL     1      11.447  12.568  18.140  0.00  0.00    +0.000 C 
BRANCH  28  29
ATOM     29  O   UNL     1      12.258  11.684  17.512  0.00  0.00    +0.000 OA
ATOM     30  H   UNL     1      12.733  12.060  16.747  0.00  0.00    +0.000 HD
ENDBRANCH  28  29
ENDBRANCH  26  28
ENDBRANCH  25  26
ENDBRANCH  24  25
ENDBRANCH  23  24
ENDBRANCH  22  23
ENDBRANCH  21  22
ENDBRANCH  20  21
ENDBRANCH  19  20
ENDBRANCH   1  19
TORSDOF 12
ENDMDL
MODEL 9
REMARK VINA RESULT:      -7.4      4.647      6.985
REMARK  Name = 
REMARK  12 active torsions:
REMARK  status: ('A' for Active; 'I' for Inactive)
REMARK    1  A    between atoms: C_2  and  O_3
REMARK    2  A    between atoms: C_2  and  C_4
REMARK    3  A    between atoms: C_4  and  C_5
REMARK    4  A    between atoms: C_5  and  C_6
REMARK    5  A    between atoms: C_6  and  C_7
REMARK    6  A    between atoms: C_7  and  C_8
REMARK    7  A    between atoms: C_8  and  C_9
REMARK    8  A    between atoms: C_9  and  C_10
REMARK    9  A    between atoms: C_10  and  C_11
REMARK   10  A    between atoms: C_11  and  N_12
REMARK   11  A    between atoms: C_14  and  C_15
REMARK   12  A    between atoms: N_21  and  C_22
REMARK                            x       y       z     vdW  Elec       q    Type
REMARK                         _______ _______ _______ _____ _____    ______ ____
ROOT
ATOM      1  N   UNL     1       5.571   5.852  17.632  0.00  0.00    +0.000 N 
ATOM      2  N   UNL     1       4.757   6.968  17.621  0.00  0.00    +0.000 NA
ATOM      3  C   UNL     1       3.722   6.623  18.344  0.00  0.00    +0.000 A 
ATOM      4  N   UNL     1       3.791   5.335  18.825  0.00  0.00    +0.000 N 
ATOM      5  C   UNL     1       5.007   4.835  18.412  0.00  0.00    +0.000 A 
ATOM      6  O   UNL     1       5.501   3.741  18.642  0.00  0.00    +0.000 OA
ENDROOT
BRANCH   3   7
ATOM      7  C   UNL     1       2.617   7.557  18.695  0.00  0.00    +0.000 A 
ATOM      8  C   UNL     1       2.103   8.419  17.721  0.00  0.00    +0.000 A 
ATOM      9  C   UNL     1       1.065   9.306  18.041  0.00  0.00    +0.000 A 
ATOM     10  C   UNL     1       0.532   9.337  19.330  0.00  0.00    +0.000 A 
ATOM     11  C   UNL     1       1.060   8.509  20.313  0.00  0.00    +0.000 A 
ATOM     12  C   UNL     1       2.114   7.648  20.002  0.00  0.00    +0.000 A 
ENDBRANCH   3   7
BRANCH   4  13
ATOM     13  C   UNL     1       2.826   4.555  19.470  0.00  0.00    +0.000 A 
ATOM     14  C   UNL     1       2.939   4.334  20.847  0.00  0.00    +0.000 A 
ATOM     15  C   UNL     1       1.950   3.624  21.525  0.00  0.00    +0.000 A 
ATOM     16  C   UNL     1       0.874   3.086  20.821  0.00  0.00    +0.000 A 
ATOM     17  C   UNL     1       0.771   3.279  19.443  0.00  0.00    +0.000 A 
ATOM     18  C   UNL     1       1.735   4.032  18.768  0.00  0.00    +0.000 A 
ENDBRANCH   4  13
BRANCH   1  19
ATOM     19  C   UNL     1       6.879   5.795  17.018  0.00  0.00    +0.000 C 
BRANCH  19  20
ATOM     20  C   UNL     1       6.783   5.575  15.508  0.00  0.00    +0.000 C 
BRANCH  20  21
ATOM     21  C   UNL     1       5.567   4.733  15.110  0.00  0.00    +0.000 C 
BRANCH  21  22
ATOM     22  C   UNL     1       5.978   3.590  14.173  0.00  0.00    +0.000 C 
BRANCH  22  23
ATOM     23  C   UNL     1       6.611   4.097  12.874  0.00  0.00    +0.000 C 
BRANCH  23  24
ATOM     24  C   UNL     1       6.320   3.144  11.707  0.00  0.00    +0.000 C 
BRANCH  24  25
ATOM     25  C   UNL     1       4.824   2.855  11.565  0.00  0.00    +0.000 C 
BRANCH  25  26
ATOM     26  C   UNL     1       4.069   4.064  11.009  0.00  0.00    +0.000 C 
BRANCH  26  28
ATOM     27  O   UNL     1       2.891   4.319   8.895  0.00  0.00    +0.000 OA
ATOM     28  C   UNL     1       3.107   3.675   9.909  0.00  0.00    +0.000 C 
BRANCH  28  29
ATOM     29  O   UNL     1       2.485   2.499  10.162  0.00  0.00    +0.000 OA
ATOM     30  H   UNL     1       2.249   2.372  11.101  0.00  0.00    +0.000 HD
ENDBRANCH  28  29
ENDBRANCH  26  28
ENDBRANCH  25  26
ENDBRANCH  24  25
ENDBRANCH  23  24
ENDBRANCH  22  23
ENDBRANCH  21  22
ENDBRANCH  20  21
ENDBRANCH  19  20
ENDBRANCH   1  19
TORSDOF 12
ENDMDL
