MODEL 1
REMARK VINA RESULT:      -7.9      0.000      0.000
REMARK  Name = 
REMARK  8 active torsions:
REMARK  status: ('A' for Active; 'I' for Inactive)
REMARK    1  A    between atoms: N_2  and  C_4
REMARK    2  A    between atoms: C_7  and  C_8
REMARK    3  A    between atoms: C_9  and  C_10
REMARK    4  A    between atoms: N_17  and  C_18
REMARK    5  A    between atoms: C_18  and  C_19
REMARK    6  A    between atoms: C_19  and  N_20
REMARK    7  A    between atoms: C_22  and  C_23
REMARK    8  A    between atoms: C_23  and  O_24
REMARK                            x       y       z     vdW  Elec       q    Type
REMARK                         _______ _______ _______ _____ _____    ______ ____
ROOT
ATOM      1  C   UNL     1       3.087   3.334  20.006  0.00  0.00    +0.000 A 
ATOM      2  C   UNL     1       1.998   3.090  20.801  0.00  0.00    +0.000 A 
ATOM      3  N   UNL     1       1.408   4.263  21.163  0.00  0.00    +0.000 NA
ATOM      4  C   UNL     1       2.113   5.228  20.609  0.00  0.00    +0.000 A 
ATOM      5  N   UNL     1       3.181   4.712  19.871  0.00  0.00    +0.000 N 
ENDROOT
BRANCH   1   7
ATOM      6  O   UNL     1       4.825   1.889  20.166  0.00  0.00    +0.000 OA
ATOM      7  N   UNL     1       3.939   2.340  19.433  0.00  0.00    +0.000 N 
ATOM      8  O   UNL     1       3.743   2.003  18.262  0.00  0.00    +0.000 OA
ENDBRANCH   1   7
BRANCH   4   9
ATOM      9  C   UNL     1       1.912   6.613  20.803  0.00  0.00    +0.000 C 
ATOM     10  C   UNL     1       0.703   7.119  21.090  0.00  0.00    +0.000 C 
BRANCH  10  11
ATOM     11  C   UNL     1       0.449   8.555  21.322  0.00  0.00    +0.000 A 
ATOM     12  C   UNL     1       0.822   9.549  20.402  0.00  0.00    +0.000 A 
ATOM     13  C   UNL     1       0.533  10.895  20.640  0.00  0.00    +0.000 A 
ATOM     14  C   UNL     1      -0.141  11.255  21.799  0.00  0.00    +0.000 A 
ATOM     15  F   UNL     1      -0.422  12.545  22.025  0.00  0.00    +0.000 F 
ATOM     16  C   UNL     1      -0.534  10.293  22.720  0.00  0.00    +0.000 A 
ATOM     17  C   UNL     1      -0.244   8.946  22.480  0.00  0.00    +0.000 A 
ENDBRANCH  10  11
ENDBRANCH   4   9
BRANCH   5  18
ATOM     18  C   UNL     1       4.131   5.433  19.030  0.00  0.00    +0.000 C 
BRANCH  18  19
ATOM     19  C   UNL     1       5.629   5.229  19.238  0.00  0.00    +0.000 C 
BRANCH  19  20
ATOM     20  N   UNL     1       6.273   4.887  17.984  0.00  0.00    +0.000 N 
ATOM     21  C   UNL     1       5.779   4.991  16.722  0.00  0.00    +0.000 A 
ATOM     22  C   UNL     1       6.850   4.651  15.924  0.00  0.00    +0.000 A 
ATOM     23  N   UNL     1       7.914   4.315  16.721  0.00  0.00    +0.000 NA
ATOM     24  N   UNL     1       7.548   4.471  17.985  0.00  0.00    +0.000 NA
BRANCH  22  25
ATOM     25  C   UNL     1       6.965   4.612  14.448  0.00  0.00    +0.000 C 
BRANCH  25  26
ATOM     26  O   UNL     1       6.410   3.418  13.904  0.00  0.00    +0.000 OA
ATOM     27  H   UNL     1       6.539   2.733  14.584  0.00  0.00    +0.000 HD
ENDBRANCH  25  26
ENDBRANCH  22  25
ENDBRANCH  19  20
ENDBRANCH  18  19
ENDBRANCH   5  18
TORSDOF 8
ENDMDL
MODEL 2
REMARK VINA RESULT:      -7.7      0.645      1.286
REMARK  Name = 
REMARK  8 active torsions:
REMARK  status: ('A' for Active; 'I' for Inactive)
REMARK    1  A    between atoms: N_2  and  C_4
REMARK    2  A    between atoms: C_7  and  C_8
REMARK    3  A    between atoms: C_9  and  C_10
REMARK    4  A    between atoms: N_17  and  C_18
REMARK    5  A    between atoms: C_18  and  C_19
REMARK    6  A    between atoms: C_19  and  N_20
REMARK    7  A    between atoms: C_22  and  C_23
REMARK    8  A    between atoms: C_23  and  O_24
REMARK                            x       y       z     vdW  Elec       q    Type
REMARK                         _______ _______ _______ _____ _____    ______ ____
ROOT
ATOM      1  C   UNL     1       3.234   3.009  20.239  0.00  0.00    +0.000 A 
ATOM      2  C   UNL     1       2.280   2.878  21.214  0.00  0.00    +0.000 A 
ATOM      3  N   UNL     1       1.550   4.023  21.314  0.00  0.00    +0.000 NA
ATOM      4  C   UNL     1       2.035   4.861  20.420  0.00  0.00    +0.000 A 
ATOM      5  N   UNL     1       3.095   4.285  19.714  0.00  0.00    +0.000 N 
ENDROOT
BRANCH   1   7
ATOM      6  O   UNL     1       3.890   1.351  18.842  0.00  0.00    +0.000 OA
ATOM      7  N   UNL     1       4.172   2.003  19.853  0.00  0.00    +0.000 N 
ATOM      8  O   UNL     1       5.185   1.848  20.542  0.00  0.00    +0.000 OA
ENDBRANCH   1   7
BRANCH   4   9
ATOM      9  C   UNL     1       1.637   6.206  20.247  0.00  0.00    +0.000 C 
ATOM     10  C   UNL     1       1.312   6.987  21.288  0.00  0.00    +0.000 C 
BRANCH  10  11
ATOM     11  C   UNL     1       0.911   8.402  21.158  0.00  0.00    +0.000 A 
ATOM     12  C   UNL     1       0.376   9.140  22.228  0.00  0.00    +0.000 A 
ATOM     13  C   UNL     1       0.042  10.488  22.075  0.00  0.00    +0.000 A 
ATOM     14  C   UNL     1       0.249  11.110  20.853  0.00  0.00    +0.000 A 
ATOM     15  F   UNL     1      -0.067  12.403  20.708  0.00  0.00    +0.000 F 
ATOM     16  C   UNL     1       0.789  10.410  19.782  0.00  0.00    +0.000 A 
ATOM     17  C   UNL     1       1.123   9.060  19.936  0.00  0.00    +0.000 A 
ENDBRANCH  10  11
ENDBRANCH   4   9
BRANCH   5  18
ATOM     18  C   UNL     1       3.831   4.837  18.581  0.00  0.00    +0.000 C 
BRANCH  18  19
ATOM     19  C   UNL     1       5.300   5.215  18.749  0.00  0.00    +0.000 C 
BRANCH  19  20
ATOM     20  N   UNL     1       6.042   4.913  17.541  0.00  0.00    +0.000 N 
ATOM     21  C   UNL     1       5.602   4.906  16.255  0.00  0.00    +0.000 A 
ATOM     22  C   UNL     1       6.745   4.677  15.519  0.00  0.00    +0.000 A 
ATOM     23  N   UNL     1       7.803   4.511  16.375  0.00  0.00    +0.000 NA
ATOM     24  N   UNL     1       7.359   4.665  17.615  0.00  0.00    +0.000 NA
BRANCH  22  25
ATOM     25  C   UNL     1       6.935   4.598  14.053  0.00  0.00    +0.000 C 
BRANCH  25  26
ATOM     26  O   UNL     1       6.386   3.402  13.510  0.00  0.00    +0.000 OA
ATOM     27  H   UNL     1       5.435   3.577  13.390  0.00  0.00    +0.000 HD
ENDBRANCH  25  26
ENDBRANCH  22  25
ENDBRANCH  19  20
ENDBRANCH  18  19
ENDBRANCH   5  18
TORSDOF 8
ENDMDL
MODEL 3
REMARK VINA RESULT:      -7.7      1.130      1.365
REMARK  Name = 
REMARK  8 active torsions:
REMARK  status: ('A' for Active; 'I' for Inactive)
REMARK    1  A    between atoms: N_2  and  C_4
REMARK    2  A    between atoms: C_7  and  C_8
REMARK    3  A    between atoms: C_9  and  C_10
REMARK    4  A    between atoms: N_17  and  C_18
REMARK    5  A    between atoms: C_18  and  C_19
REMARK    6  A    between atoms: C_19  and  N_20
REMARK    7  A    between atoms: C_22  and  C_23
REMARK    8  A    between atoms: C_23  and  O_24
REMARK                            x       y       z     vdW  Elec       q    Type
REMARK                         _______ _______ _______ _____ _____    ______ ____
ROOT
ATOM      1  C   UNL     1       3.454   2.892  20.436  0.00  0.00    +0.000 A 
ATOM      2  C   UNL     1       2.453   2.817  21.368  0.00  0.00    +0.000 A 
ATOM      3  N   UNL     1       1.695   3.947  21.336  0.00  0.00    +0.000 NA
ATOM      4  C   UNL     1       2.208   4.721  20.401  0.00  0.00    +0.000 A 
ATOM      5  N   UNL     1       3.316   4.118  19.800  0.00  0.00    +0.000 N 
ENDROOT
BRANCH   1   7
ATOM      6  O   UNL     1       4.319   1.265  19.118  0.00  0.00    +0.000 OA
ATOM      7  N   UNL     1       4.433   1.883  20.182  0.00  0.00    +0.000 N 
ATOM      8  O   UNL     1       5.313   1.692  21.026  0.00  0.00    +0.000 OA
ENDBRANCH   1   7
BRANCH   4   9
ATOM      9  C   UNL     1       1.791   6.037  20.097  0.00  0.00    +0.000 C 
ATOM     10  C   UNL     1       1.667   6.977  21.047  0.00  0.00    +0.000 C 
BRANCH  10  11
ATOM     11  C   UNL     1       1.256   8.369  20.775  0.00  0.00    +0.000 A 
ATOM     12  C   UNL     1       1.369   8.958  19.504  0.00  0.00    +0.000 A 
ATOM     13  C   UNL     1       0.936  10.266  19.277  0.00  0.00    +0.000 A 
ATOM     14  C   UNL     1       0.376  10.992  20.318  0.00  0.00    +0.000 A 
ATOM     15  F   UNL     1      -0.044  12.245  20.099  0.00  0.00    +0.000 F 
ATOM     16  C   UNL     1       0.238  10.431  21.581  0.00  0.00    +0.000 A 
ATOM     17  C   UNL     1       0.673   9.121  21.808  0.00  0.00    +0.000 A 
ENDBRANCH  10  11
ENDBRANCH   4   9
BRANCH   5  18
ATOM     18  C   UNL     1       4.099   4.594  18.665  0.00  0.00    +0.000 C 
BRANCH  18  19
ATOM     19  C   UNL     1       5.519   5.106  18.890  0.00  0.00    +0.000 C 
BRANCH  19  20
ATOM     20  N   UNL     1       6.224   5.213  17.627  0.00  0.00    +0.000 N 
ATOM     21  C   UNL     1       6.065   4.468  16.502  0.00  0.00    +0.000 A 
ATOM     22  C   UNL     1       6.894   5.080  15.585  0.00  0.00    +0.000 A 
ATOM     23  N   UNL     1       7.544   6.122  16.195  0.00  0.00    +0.000 NA
ATOM     24  N   UNL     1       7.119   6.198  17.448  0.00  0.00    +0.000 NA
BRANCH  22  25
ATOM     25  C   UNL     1       7.134   4.766  14.158  0.00  0.00    +0.000 C 
BRANCH  25  26
ATOM     26  O   UNL     1       8.039   5.687  13.558  0.00  0.00    +0.000 OA
ATOM     27  H   UNL     1       8.496   5.191  12.855  0.00  0.00    +0.000 HD
ENDBRANCH  25  26
ENDBRANCH  22  25
ENDBRANCH  19  20
ENDBRANCH  18  19
ENDBRANCH   5  18
TORSDOF 8
ENDMDL
MODEL 4
REMARK VINA RESULT:      -7.6      1.647      2.280
REMARK  Name = 
REMARK  8 active torsions:
REMARK  status: ('A' for Active; 'I' for Inactive)
REMARK    1  A    between atoms: N_2  and  C_4
REMARK    2  A    between atoms: C_7  and  C_8
REMARK    3  A    between atoms: C_9  and  C_10
REMARK    4  A    between atoms: N_17  and  C_18
REMARK    5  A    between atoms: C_18  and  C_19
REMARK    6  A    between atoms: C_19  and  N_20
REMARK    7  A    between atoms: C_22  and  C_23
REMARK    8  A    between atoms: C_23  and  O_24
REMARK                            x       y       z     vdW  Elec       q    Type
REMARK                         _______ _______ _______ _____ _____    ______ ____
ROOT
ATOM      1  C   UNL     1       3.625   2.923  20.238  0.00  0.00    +0.000 A 
ATOM      2  C   UNL     1       2.511   3.025  21.029  0.00  0.00    +0.000 A 
ATOM      3  N   UNL     1       1.877   4.207  20.796  0.00  0.00    +0.000 NA
ATOM      4  C   UNL     1       2.579   4.839  19.878  0.00  0.00    +0.000 A 
ATOM      5  N   UNL     1       3.690   4.088  19.487  0.00  0.00    +0.000 N 
ENDROOT
BRANCH   1   7
ATOM      6  O   UNL     1       4.420   1.050  19.242  0.00  0.00    +0.000 OA
ATOM      7  N   UNL     1       4.526   1.813  20.207  0.00  0.00    +0.000 N 
ATOM      8  O   UNL     1       5.334   1.687  21.131  0.00  0.00    +0.000 OA
ENDBRANCH   1   7
BRANCH   4   9
ATOM      9  C   UNL     1       2.334   6.150  19.409  0.00  0.00    +0.000 C 
ATOM     10  C   UNL     1       1.787   7.092  20.193  0.00  0.00    +0.000 C 
BRANCH  10  11
ATOM     11  C   UNL     1       1.532   8.478  19.754  0.00  0.00    +0.000 A 
ATOM     12  C   UNL     1       0.939   9.440  20.588  0.00  0.00    +0.000 A 
ATOM     13  C   UNL     1       0.747  10.753  20.148  0.00  0.00    +0.000 A 
ATOM     14  C   UNL     1       1.157  11.113  18.873  0.00  0.00    +0.000 A 
ATOM     15  F   UNL     1       0.977  12.373  18.453  0.00  0.00    +0.000 F 
ATOM     16  C   UNL     1       1.759  10.187  18.031  0.00  0.00    +0.000 A 
ATOM     17  C   UNL     1       1.950   8.874  18.473  0.00  0.00    +0.000 A 
ENDBRANCH  10  11
ENDBRANCH   4   9
BRANCH   5  18
ATOM     18  C   UNL     1       4.654   4.382  18.433  0.00  0.00    +0.000 C 
BRANCH  18  19
ATOM     19  C   UNL     1       4.460   3.779  17.044  0.00  0.00    +0.000 C 
BRANCH  19  20
ATOM     20  N   UNL     1       5.571   4.130  16.180  0.00  0.00    +0.000 N 
ATOM     21  C   UNL     1       5.575   4.298  14.832  0.00  0.00    +0.000 A 
ATOM     22  C   UNL     1       6.852   4.743  14.562  0.00  0.00    +0.000 A 
ATOM     23  N   UNL     1       7.569   4.779  15.730  0.00  0.00    +0.000 NA
ATOM     24  N   UNL     1       6.769   4.407  16.718  0.00  0.00    +0.000 NA
BRANCH  22  25
ATOM     25  C   UNL     1       7.471   5.145  13.278  0.00  0.00    +0.000 C 
BRANCH  25  26
ATOM     26  O   UNL     1       8.695   5.845  13.475  0.00  0.00    +0.000 OA
ATOM     27  H   UNL     1       9.240   5.653  12.691  0.00  0.00    +0.000 HD
ENDBRANCH  25  26
ENDBRANCH  22  25
ENDBRANCH  19  20
ENDBRANCH  18  19
ENDBRANCH   5  18
TORSDOF 8
ENDMDL
MODEL 5
REMARK VINA RESULT:      -7.6      1.264      1.463
REMARK  Name = 
REMARK  8 active torsions:
REMARK  status: ('A' for Active; 'I' for Inactive)
REMARK    1  A    between atoms: N_2  and  C_4
REMARK    2  A    between atoms: C_7  and  C_8
REMARK    3  A    between atoms: C_9  and  C_10
REMARK    4  A    between atoms: N_17  and  C_18
REMARK    5  A    between atoms: C_18  and  C_19
REMARK    6  A    between atoms: C_19  and  N_20
REMARK    7  A    between atoms: C_22  and  C_23
REMARK    8  A    between atoms: C_23  and  O_24
REMARK                            x       y       z     vdW  Elec       q    Type
REMARK                         _______ _______ _______ _____ _____    ______ ____
ROOT
ATOM      1  C   UNL     1       3.350   3.488  19.904  0.00  0.00    +0.000 A 
ATOM      2  C   UNL     1       2.508   3.606  20.979  0.00  0.00    +0.000 A 
ATOM      3  N   UNL     1       1.970   4.856  21.019  0.00  0.00    +0.000 NA
ATOM      4  C   UNL     1       2.463   5.514  19.990  0.00  0.00    +0.000 A 
ATOM      5  N   UNL     1       3.338   4.713  19.252  0.00  0.00    +0.000 N 
ENDROOT
BRANCH   1   7
ATOM      6  O   UNL     1       5.073   2.054  20.232  0.00  0.00    +0.000 OA
ATOM      7  N   UNL     1       4.080   2.314  19.543  0.00  0.00    +0.000 N 
ATOM      8  O   UNL     1       3.684   1.647  18.583  0.00  0.00    +0.000 OA
ENDBRANCH   1   7
BRANCH   4   9
ATOM      9  C   UNL     1       2.248   6.881  19.704  0.00  0.00    +0.000 C 
ATOM     10  C   UNL     1       1.443   7.644  20.460  0.00  0.00    +0.000 C 
BRANCH  10  11
ATOM     11  C   UNL     1       1.204   9.080  20.213  0.00  0.00    +0.000 A 
ATOM     12  C   UNL     1       1.286   9.652  18.932  0.00  0.00    +0.000 A 
ATOM     13  C   UNL     1       1.019  11.009  18.733  0.00  0.00    +0.000 A 
ATOM     14  C   UNL     1       0.657  11.801  19.813  0.00  0.00    +0.000 A 
ATOM     15  F   UNL     1       0.396  13.101  19.620  0.00  0.00    +0.000 F 
ATOM     16  C   UNL     1       0.555  11.260  21.088  0.00  0.00    +0.000 A 
ATOM     17  C   UNL     1       0.823   9.902  21.286  0.00  0.00    +0.000 A 
ENDBRANCH  10  11
ENDBRANCH   4   9
BRANCH   5  18
ATOM     18  C   UNL     1       4.009   5.027  17.995  0.00  0.00    +0.000 C 
BRANCH  18  19
ATOM     19  C   UNL     1       5.505   5.328  17.993  0.00  0.00    +0.000 C 
BRANCH  19  20
ATOM     20  N   UNL     1       6.075   5.052  16.689  0.00  0.00    +0.000 N 
ATOM     21  C   UNL     1       5.633   4.190  15.735  0.00  0.00    +0.000 A 
ATOM     22  C   UNL     1       6.472   4.426  14.667  0.00  0.00    +0.000 A 
ATOM     23  N   UNL     1       7.400   5.369  15.027  0.00  0.00    +0.000 NA
ATOM     24  N   UNL     1       7.141   5.751  16.269  0.00  0.00    +0.000 NA
BRANCH  22  25
ATOM     25  C   UNL     1       6.480   3.832  13.311  0.00  0.00    +0.000 C 
BRANCH  25  26
ATOM     26  O   UNL     1       5.167   3.731  12.769  0.00  0.00    +0.000 OA
ATOM     27  H   UNL     1       5.257   3.922  11.818  0.00  0.00    +0.000 HD
ENDBRANCH  25  26
ENDBRANCH  22  25
ENDBRANCH  19  20
ENDBRANCH  18  19
ENDBRANCH   5  18
TORSDOF 8
ENDMDL
MODEL 6
REMARK VINA RESULT:      -7.5      4.473      6.981
REMARK  Name = 
REMARK  8 active torsions:
REMARK  status: ('A' for Active; 'I' for Inactive)
REMARK    1  A    between atoms: N_2  and  C_4
REMARK    2  A    between atoms: C_7  and  C_8
REMARK    3  A    between atoms: C_9  and  C_10
REMARK    4  A    between atoms: N_17  and  C_18
REMARK    5  A    between atoms: C_18  and  C_19
REMARK    6  A    between atoms: C_19  and  N_20
REMARK    7  A    between atoms: C_22  and  C_23
REMARK    8  A    between atoms: C_23  and  O_24
REMARK                            x       y       z     vdW  Elec       q    Type
REMARK                         _______ _______ _______ _____ _____    ______ ____
ROOT
ATOM      1  C   UNL     1       6.100   4.826  16.825  0.00  0.00    +0.000 A 
ATOM      2  C   UNL     1       7.337   4.538  17.340  0.00  0.00    +0.000 A 
ATOM      3  N   UNL     1       7.952   5.681  17.753  0.00  0.00    +0.000 NA
ATOM      4  C   UNL     1       7.120   6.671  17.502  0.00  0.00    +0.000 A 
ATOM      5  N   UNL     1       5.941   6.202  16.918  0.00  0.00    +0.000 N 
ENDROOT
BRANCH   1   7
ATOM      6  O   UNL     1       5.043   3.845  15.078  0.00  0.00    +0.000 OA
ATOM      7  N   UNL     1       5.171   3.872  16.307  0.00  0.00    +0.000 N 
ATOM      8  O   UNL     1       4.563   3.152  17.104  0.00  0.00    +0.000 OA
ENDBRANCH   1   7
BRANCH   4   9
ATOM      9  C   UNL     1       7.393   8.046  17.683  0.00  0.00    +0.000 C 
ATOM     10  C   UNL     1       8.439   8.469  18.410  0.00  0.00    +0.000 C 
BRANCH  10  11
ATOM     11  C   UNL     1       8.777   9.893  18.608  0.00  0.00    +0.000 A 
ATOM     12  C   UNL     1       9.533  10.347  19.702  0.00  0.00    +0.000 A 
ATOM     13  C   UNL     1       9.863  11.698  19.836  0.00  0.00    +0.000 A 
ATOM     14  C   UNL     1       9.445  12.603  18.872  0.00  0.00    +0.000 A 
ATOM     15  F   UNL     1       9.765  13.898  18.999  0.00  0.00    +0.000 F 
ATOM     16  C   UNL     1       8.708  12.181  17.773  0.00  0.00    +0.000 A 
ATOM     17  C   UNL     1       8.379  10.829  17.640  0.00  0.00    +0.000 A 
ENDBRANCH  10  11
ENDBRANCH   4   9
BRANCH   5  18
ATOM     18  C   UNL     1       4.736   6.954  16.583  0.00  0.00    +0.000 C 
BRANCH  18  19
ATOM     19  C   UNL     1       3.799   7.413  17.698  0.00  0.00    +0.000 C 
BRANCH  19  20
ATOM     20  N   UNL     1       3.200   6.269  18.357  0.00  0.00    +0.000 N 
ATOM     21  C   UNL     1       2.161   5.498  17.940  0.00  0.00    +0.000 A 
ATOM     22  C   UNL     1       2.100   4.494  18.882  0.00  0.00    +0.000 A 
ATOM     23  N   UNL     1       3.056   4.719  19.839  0.00  0.00    +0.000 NA
ATOM     24  N   UNL     1       3.730   5.809  19.501  0.00  0.00    +0.000 NA
BRANCH  22  25
ATOM     25  C   UNL     1       1.205   3.317  18.965  0.00  0.00    +0.000 C 
BRANCH  25  26
ATOM     26  O   UNL     1       0.600   3.201  20.249  0.00  0.00    +0.000 OA
ATOM     27  H   UNL     1       0.145   2.340  20.251  0.00  0.00    +0.000 HD
ENDBRANCH  25  26
ENDBRANCH  22  25
ENDBRANCH  19  20
ENDBRANCH  18  19
ENDBRANCH   5  18
TORSDOF 8
ENDMDL
MODEL 7
REMARK VINA RESULT:      -7.4      0.775      1.059
REMARK  Name = 
REMARK  8 active torsions:
REMARK  status: ('A' for Active; 'I' for Inactive)
REMARK    1  A    between atoms: N_2  and  C_4
REMARK    2  A    between atoms: C_7  and  C_8
REMARK    3  A    between atoms: C_9  and  C_10
REMARK    4  A    between atoms: N_17  and  C_18
REMARK    5  A    between atoms: C_18  and  C_19
REMARK    6  A    between atoms: C_19  and  N_20
REMARK    7  A    between atoms: C_22  and  C_23
REMARK    8  A    between atoms: C_23  and  O_24
REMARK                            x       y       z     vdW  Elec       q    Type
REMARK                         _______ _______ _______ _____ _____    ______ ____
ROOT
ATOM      1  C   UNL     1       2.946   3.404  19.935  0.00  0.00    +0.000 A 
ATOM      2  C   UNL     1       1.667   3.196  20.381  0.00  0.00    +0.000 A 
ATOM      3  N   UNL     1       1.047   4.387  20.603  0.00  0.00    +0.000 NA
ATOM      4  C   UNL     1       1.918   5.330  20.304  0.00  0.00    +0.000 A 
ATOM      5  N   UNL     1       3.130   4.778  19.881  0.00  0.00    +0.000 N 
ENDROOT
BRANCH   1   7
ATOM      6  O   UNL     1       3.627   1.721  18.581  0.00  0.00    +0.000 OA
ATOM      7  N   UNL     1       3.885   2.383  19.592  0.00  0.00    +0.000 N 
ATOM      8  O   UNL     1       4.873   2.227  20.314  0.00  0.00    +0.000 OA
ENDBRANCH   1   7
BRANCH   4   9
ATOM      9  C   UNL     1       1.726   6.718  20.482  0.00  0.00    +0.000 C 
ATOM     10  C   UNL     1       0.704   7.204  21.205  0.00  0.00    +0.000 C 
BRANCH  10  11
ATOM     11  C   UNL     1       0.476   8.644  21.435  0.00  0.00    +0.000 A 
ATOM     12  C   UNL     1       0.926   9.635  20.547  0.00  0.00    +0.000 A 
ATOM     13  C   UNL     1       0.660  10.987  20.781  0.00  0.00    +0.000 A 
ATOM     14  C   UNL     1      -0.069  11.355  21.903  0.00  0.00    +0.000 A 
ATOM     15  F   UNL     1      -0.328  12.651  22.125  0.00  0.00    +0.000 F 
ATOM     16  C   UNL     1      -0.539  10.397  22.792  0.00  0.00    +0.000 A 
ATOM     17  C   UNL     1      -0.271   9.045  22.555  0.00  0.00    +0.000 A 
ENDBRANCH  10  11
ENDBRANCH   4   9
BRANCH   5  18
ATOM     18  C   UNL     1       4.307   5.471  19.367  0.00  0.00    +0.000 C 
BRANCH  18  19
ATOM     19  C   UNL     1       4.231   6.193  18.024  0.00  0.00    +0.000 C 
BRANCH  19  20
ATOM     20  N   UNL     1       4.977   5.465  17.016  0.00  0.00    +0.000 N 
ATOM     21  C   UNL     1       5.205   5.805  15.720  0.00  0.00    +0.000 A 
ATOM     22  C   UNL     1       6.065   4.826  15.271  0.00  0.00    +0.000 A 
ATOM     23  N   UNL     1       6.281   3.923  16.280  0.00  0.00    +0.000 NA
ATOM     24  N   UNL     1       5.613   4.331  17.350  0.00  0.00    +0.000 NA
BRANCH  22  25
ATOM     25  C   UNL     1       6.715   4.659  13.951  0.00  0.00    +0.000 C 
BRANCH  25  26
ATOM     26  O   UNL     1       6.436   3.385  13.380  0.00  0.00    +0.000 OA
ATOM     27  H   UNL     1       5.497   3.410  13.121  0.00  0.00    +0.000 HD
ENDBRANCH  25  26
ENDBRANCH  22  25
ENDBRANCH  19  20
ENDBRANCH  18  19
ENDBRANCH   5  18
TORSDOF 8
ENDMDL
MODEL 8
REMARK VINA RESULT:      -7.3      1.359      1.554
REMARK  Name = 
REMARK  8 active torsions:
REMARK  status: ('A' for Active; 'I' for Inactive)
REMARK    1  A    between atoms: N_2  and  C_4
REMARK    2  A    between atoms: C_7  and  C_8
REMARK    3  A    between atoms: C_9  and  C_10
REMARK    4  A    between atoms: N_17  and  C_18
REMARK    5  A    between atoms: C_18  and  C_19
REMARK    6  A    between atoms: C_19  and  N_20
REMARK    7  A    between atoms: C_22  and  C_23
REMARK    8  A    between atoms: C_23  and  O_24
REMARK                            x       y       z     vdW  Elec       q    Type
REMARK                         _______ _______ _______ _____ _____    ______ ____
ROOT
ATOM      1  C   UNL     1       3.167   2.866  20.147  0.00  0.00    +0.000 A 
ATOM      2  C   UNL     1       2.594   2.711  21.382  0.00  0.00    +0.000 A 
ATOM      3  N   UNL     1       1.777   3.764  21.657  0.00  0.00    +0.000 NA
ATOM      4  C   UNL     1       1.834   4.570  20.616  0.00  0.00    +0.000 A 
ATOM      5  N   UNL     1       2.690   4.065  19.635  0.00  0.00    +0.000 N 
ENDROOT
BRANCH   1   7
ATOM      6  O   UNL     1       3.626   1.305  18.571  0.00  0.00    +0.000 OA
ATOM      7  N   UNL     1       4.071   1.950  19.527  0.00  0.00    +0.000 N 
ATOM      8  O   UNL     1       5.216   1.858  19.978  0.00  0.00    +0.000 OA
ENDBRANCH   1   7
BRANCH   4   9
ATOM      9  C   UNL     1       1.214   5.836  20.517  0.00  0.00    +0.000 C 
ATOM     10  C   UNL     1       1.890   6.974  20.741  0.00  0.00    +0.000 C 
BRANCH  10  11
ATOM     11  C   UNL     1       1.291   8.319  20.629  0.00  0.00    +0.000 A 
ATOM     12  C   UNL     1       1.257   9.035  19.420  0.00  0.00    +0.000 A 
ATOM     13  C   UNL     1       0.649  10.291  19.346  0.00  0.00    +0.000 A 
ATOM     14  C   UNL     1       0.063  10.835  20.479  0.00  0.00    +0.000 A 
ATOM     15  F   UNL     1      -0.524  12.037  20.406  0.00  0.00    +0.000 F 
ATOM     16  C   UNL     1       0.069  10.145  21.684  0.00  0.00    +0.000 A 
ATOM     17  C   UNL     1       0.678   8.888  21.757  0.00  0.00    +0.000 A 
ENDBRANCH  10  11
ENDBRANCH   4   9
BRANCH   5  18
ATOM     18  C   UNL     1       2.949   4.596  18.300  0.00  0.00    +0.000 C 
BRANCH  18  19
ATOM     19  C   UNL     1       4.200   5.436  18.053  0.00  0.00    +0.000 C 
BRANCH  19  20
ATOM     20  N   UNL     1       4.900   4.966  16.874  0.00  0.00    +0.000 N 
ATOM     21  C   UNL     1       5.507   5.696  15.901  0.00  0.00    +0.000 A 
ATOM     22  C   UNL     1       6.110   4.745  15.107  0.00  0.00    +0.000 A 
ATOM     23  N   UNL     1       5.811   3.499  15.594  0.00  0.00    +0.000 NA
ATOM     24  N   UNL     1       5.072   3.648  16.684  0.00  0.00    +0.000 NA
BRANCH  22  25
ATOM     25  C   UNL     1       6.961   4.906  13.905  0.00  0.00    +0.000 C 
BRANCH  25  26
ATOM     26  O   UNL     1       8.134   5.665  14.184  0.00  0.00    +0.000 OA
ATOM     27  H   UNL     1       7.842   6.593  14.238  0.00  0.00    +0.000 HD
ENDBRANCH  25  26
ENDBRANCH  22  25
ENDBRANCH  19  20
ENDBRANCH  18  19
ENDBRANCH   5  18
TORSDOF 8
ENDMDL
MODEL 9
REMARK VINA RESULT:      -7.3      1.165      1.677
REMARK  Name = 
REMARK  8 active torsions:
REMARK  status: ('A' for Active; 'I' for Inactive)
REMARK    1  A    between atoms: N_2  and  C_4
REMARK    2  A    between atoms: C_7  and  C_8
REMARK    3  A    between atoms: C_9  and  C_10
REMARK    4  A    between atoms: N_17  and  C_18
REMARK    5  A    between atoms: C_18  and  C_19
REMARK    6  A    between atoms: C_19  and  N_20
REMARK    7  A    between atoms: C_22  and  C_23
REMARK    8  A    between atoms: C_23  and  O_24
REMARK                            x       y       z     vdW  Elec       q    Type
REMARK                         _______ _______ _______ _____ _____    ______ ____
ROOT
ATOM      1  C   UNL     1       3.034   3.275  20.020  0.00  0.00    +0.000 A 
ATOM      2  C   UNL     1       1.778   3.059  20.524  0.00  0.00    +0.000 A 
ATOM      3  N   UNL     1       1.174   4.246  20.805  0.00  0.00    +0.000 NA
ATOM      4  C   UNL     1       2.033   5.193  20.486  0.00  0.00    +0.000 A 
ATOM      5  N   UNL     1       3.220   4.649  19.990  0.00  0.00    +0.000 N 
ENDROOT
BRANCH   1   7
ATOM      6  O   UNL     1       3.663   1.654  18.567  0.00  0.00    +0.000 OA
ATOM      7  N   UNL     1       3.950   2.260  19.605  0.00  0.00    +0.000 N 
ATOM      8  O   UNL     1       4.951   2.053  20.298  0.00  0.00    +0.000 OA
ENDBRANCH   1   7
BRANCH   4   9
ATOM      9  C   UNL     1       1.855   6.577  20.708  0.00  0.00    +0.000 C 
ATOM     10  C   UNL     1       0.643   7.109  20.931  0.00  0.00    +0.000 C 
BRANCH  10  11
ATOM     11  C   UNL     1       0.411   8.544  21.188  0.00  0.00    +0.000 A 
ATOM     12  C   UNL     1      -0.186   9.016  22.369  0.00  0.00    +0.000 A 
ATOM     13  C   UNL     1      -0.356  10.384  22.592  0.00  0.00    +0.000 A 
ATOM     14  C   UNL     1       0.079  11.292  21.637  0.00  0.00    +0.000 A 
ATOM     15  F   UNL     1      -0.079  12.604  21.853  0.00  0.00    +0.000 F 
ATOM     16  C   UNL     1       0.685  10.856  20.466  0.00  0.00    +0.000 A 
ATOM     17  C   UNL     1       0.855   9.485  20.244  0.00  0.00    +0.000 A 
ENDBRANCH  10  11
ENDBRANCH   4   9
BRANCH   5  18
ATOM     18  C   UNL     1       4.373   5.352  19.437  0.00  0.00    +0.000 C 
BRANCH  18  19
ATOM     19  C   UNL     1       4.209   6.192  18.173  0.00  0.00    +0.000 C 
BRANCH  19  20
ATOM     20  N   UNL     1       4.771   5.501  17.029  0.00  0.00    +0.000 N 
ATOM     21  C   UNL     1       5.835   5.858  16.262  0.00  0.00    +0.000 A 
ATOM     22  C   UNL     1       5.996   4.787  15.409  0.00  0.00    +0.000 A 
ATOM     23  N   UNL     1       5.013   3.865  15.657  0.00  0.00    +0.000 NA
ATOM     24  N   UNL     1       4.270   4.312  16.660  0.00  0.00    +0.000 NA
BRANCH  22  25
ATOM     25  C   UNL     1       7.013   4.549  14.359  0.00  0.00    +0.000 C 
BRANCH  25  26
ATOM     26  O   UNL     1       7.939   5.627  14.264  0.00  0.00    +0.000 OA
ATOM     27  H   UNL     1       8.394   5.512  13.410  0.00  0.00    +0.000 HD
ENDBRANCH  25  26
ENDBRANCH  22  25
ENDBRANCH  19  20
ENDBRANCH  18  19
ENDBRANCH   5  18
TORSDOF 8
ENDMDL
