MODEL 1
REMARK VINA RESULT:      -6.1      0.000      0.000
REMARK  Name = 
REMARK  4 active torsions:
REMARK  status: ('A' for Active; 'I' for Inactive)
REMARK    1  A    between atoms: C_1  and  C_2
REMARK    2  A    between atoms: C_2  and  C_3
REMARK    3  A    between atoms: C_3  and  N_4
REMARK    4  A    between atoms: C_9  and  C_10
REMARK                            x       y       z     vdW  Elec       q    Type
REMARK                         _______ _______ _______ _____ _____    ______ ____
ROOT
ATOM      1  C   UNL     1       4.349   3.628  18.978  0.00  0.00    +0.000 C 
ATOM      2  C   UNL     1       4.109   3.429  17.465  0.00  0.00    +0.000 C 
ATOM      3  C   UNL     1       4.707   4.676  16.827  0.00  0.00    +0.000 C 
ATOM      4  S   UNL     1       5.462   4.438  15.210  0.00  0.00    +0.000 S 
ATOM      5  C   UNL     1       7.154   4.803  15.774  0.00  0.00    +0.000 C 
ATOM      6  C   UNL     1       7.062   5.366  17.195  0.00  0.00    +0.000 C 
ATOM      7  N   UNL     1       5.733   5.094  17.724  0.00  0.00    +0.000 N 
ATOM      8  C   UNL     1       5.521   4.633  19.015  0.00  0.00    +0.000 C 
ATOM      9  O   UNL     1       6.221   4.888  19.979  0.00  0.00    +0.000 OA
ENDROOT
BRANCH   1  10
ATOM     10  N   UNL     1       4.854   2.347  19.532  0.00  0.00    +0.000 NA
ATOM     11  H   UNL     1       5.810   2.178  19.221  0.00  0.00    +0.000 HD
ATOM     12  H   UNL     1       4.287   1.589  19.140  0.00  0.00    +0.000 HD
ENDBRANCH   1  10
BRANCH   1  14
ATOM     13  C   UNL     1       1.765   3.885  19.128  0.00  0.00    +0.000 C 
ATOM     14  C   UNL     1       3.120   4.048  19.799  0.00  0.00    +0.000 C 
ENDBRANCH   1  14
BRANCH   6  15
ATOM     15  C   UNL     1       7.388   6.851  17.193  0.00  0.00    +0.000 C 
ATOM     16  N   UNL     1       7.658   8.082  17.192  0.00  0.00    +0.000 NA
ENDBRANCH   6  15
TORSDOF 3
ENDMDL
MODEL 2
REMARK VINA RESULT:      -6.1      2.390      2.899
REMARK  Name = 
REMARK  4 active torsions:
REMARK  status: ('A' for Active; 'I' for Inactive)
REMARK    1  A    between atoms: C_1  and  C_2
REMARK    2  A    between atoms: C_2  and  C_3
REMARK    3  A    between atoms: C_3  and  N_4
REMARK    4  A    between atoms: C_9  and  C_10
REMARK                            x       y       z     vdW  Elec       q    Type
REMARK                         _______ _______ _______ _____ _____    ______ ____
ROOT
ATOM      1  C   UNL     1       2.122   3.150  19.050  0.00  0.00    +0.000 C 
ATOM      2  C   UNL     1       1.788   4.567  18.535  0.00  0.00    +0.000 C 
ATOM      3  C   UNL     1       2.993   5.404  18.942  0.00  0.00    +0.000 C 
ATOM      4  S   UNL     1       3.440   6.729  17.807  0.00  0.00    +0.000 S 
ATOM      5  C   UNL     1       5.034   5.991  17.328  0.00  0.00    +0.000 C 
ATOM      6  C   UNL     1       5.311   4.821  18.276  0.00  0.00    +0.000 C 
ATOM      7  N   UNL     1       4.082   4.487  18.983  0.00  0.00    +0.000 N 
ATOM      8  C   UNL     1       3.661   3.179  19.174  0.00  0.00    +0.000 C 
ATOM      9  O   UNL     1       4.393   2.212  19.296  0.00  0.00    +0.000 OA
ENDROOT
BRANCH   1  10
ATOM     10  N   UNL     1       1.789   2.183  17.974  0.00  0.00    +0.000 NA
ATOM     11  H   UNL     1       2.639   1.780  17.583  0.00  0.00    +0.000 HD
ATOM     12  H   UNL     1       1.340   2.702  17.213  0.00  0.00    +0.000 HD
ENDBRANCH   1  10
BRANCH   1  14
ATOM     13  C   UNL     1       1.984   3.167  21.647  0.00  0.00    +0.000 C 
ATOM     14  C   UNL     1       1.385   2.712  20.326  0.00  0.00    +0.000 C 
ENDBRANCH   1  14
BRANCH   6  15
ATOM     15  C   UNL     1       6.445   5.172  19.225  0.00  0.00    +0.000 C 
ATOM     16  N   UNL     1       7.385   5.463  20.013  0.00  0.00    +0.000 NA
ENDBRANCH   6  15
TORSDOF 3
ENDMDL
MODEL 3
REMARK VINA RESULT:      -6.0      1.733      4.574
REMARK  Name = 
REMARK  4 active torsions:
REMARK  status: ('A' for Active; 'I' for Inactive)
REMARK    1  A    between atoms: C_1  and  C_2
REMARK    2  A    between atoms: C_2  and  C_3
REMARK    3  A    between atoms: C_3  and  N_4
REMARK    4  A    between atoms: C_9  and  C_10
REMARK                            x       y       z     vdW  Elec       q    Type
REMARK                         _______ _______ _______ _____ _____    ______ ____
ROOT
ATOM      1  C   UNL     1       6.620   5.540  16.216  0.00  0.00    +0.000 C 
ATOM      2  C   UNL     1       5.148   6.003  16.164  0.00  0.00    +0.000 C 
ATOM      3  C   UNL     1       4.404   4.971  17.001  0.00  0.00    +0.000 C 
ATOM      4  S   UNL     1       2.996   5.593  17.935  0.00  0.00    +0.000 S 
ATOM      5  C   UNL     1       3.751   5.299  19.566  0.00  0.00    +0.000 C 
ATOM      6  C   UNL     1       5.016   4.465  19.352  0.00  0.00    +0.000 C 
ATOM      7  N   UNL     1       5.366   4.494  17.939  0.00  0.00    +0.000 N 
ATOM      8  C   UNL     1       6.667   4.671  17.493  0.00  0.00    +0.000 C 
ATOM      9  O   UNL     1       7.671   4.306  18.080  0.00  0.00    +0.000 OA
ENDROOT
BRANCH   1  10
ATOM     10  N   UNL     1       7.465   6.734  16.470  0.00  0.00    +0.000 NA
ATOM     11  H   UNL     1       7.221   7.486  15.827  0.00  0.00    +0.000 HD
ATOM     12  H   UNL     1       8.436   6.482  16.262  0.00  0.00    +0.000 HD
ENDBRANCH   1  10
BRANCH   1  14
ATOM     13  C   UNL     1       6.114   4.165  14.067  0.00  0.00    +0.000 C 
ATOM     14  C   UNL     1       7.147   4.846  14.950  0.00  0.00    +0.000 C 
ENDBRANCH   1  14
BRANCH   6  15
ATOM     15  C   UNL     1       4.805   3.050  19.865  0.00  0.00    +0.000 C 
ATOM     16  N   UNL     1       4.629   1.876  20.291  0.00  0.00    +0.000 NA
ENDBRANCH   6  15
TORSDOF 3
ENDMDL
MODEL 4
REMARK VINA RESULT:      -5.6      2.198      2.701
REMARK  Name = 
REMARK  4 active torsions:
REMARK  status: ('A' for Active; 'I' for Inactive)
REMARK    1  A    between atoms: C_1  and  C_2
REMARK    2  A    between atoms: C_2  and  C_3
REMARK    3  A    between atoms: C_3  and  N_4
REMARK    4  A    between atoms: C_9  and  C_10
REMARK                            x       y       z     vdW  Elec       q    Type
REMARK                         _______ _______ _______ _____ _____    ______ ____
ROOT
ATOM      1  C   UNL     1       2.329   4.233  19.304  0.00  0.00    +0.000 C 
ATOM      2  C   UNL     1       2.321   5.677  18.755  0.00  0.00    +0.000 C 
ATOM      3  C   UNL     1       3.796   6.015  18.578  0.00  0.00    +0.000 C 
ATOM      4  S   UNL     1       4.187   7.091  17.188  0.00  0.00    +0.000 S 
ATOM      5  C   UNL     1       5.119   5.824  16.270  0.00  0.00    +0.000 C 
ATOM      6  C   UNL     1       5.329   4.630  17.204  0.00  0.00    +0.000 C 
ATOM      7  N   UNL     1       4.436   4.763  18.347  0.00  0.00    +0.000 N 
ATOM      8  C   UNL     1       3.708   3.699  18.856  0.00  0.00    +0.000 C 
ATOM      9  O   UNL     1       4.056   2.531  18.836  0.00  0.00    +0.000 OA
ENDROOT
BRANCH   1  10
ATOM     10  N   UNL     1       1.300   3.459  18.565  0.00  0.00    +0.000 NA
ATOM     11  H   UNL     1       0.388   3.570  19.005  0.00  0.00    +0.000 HD
ATOM     12  H   UNL     1       1.537   2.465  18.644  0.00  0.00    +0.000 HD
ENDBRANCH   1  10
BRANCH   1  14
ATOM     13  C   UNL     1       1.361   2.804  21.250  0.00  0.00    +0.000 C 
ATOM     14  C   UNL     1       2.044   4.089  20.807  0.00  0.00    +0.000 C 
ENDBRANCH   1  14
BRANCH   6  15
ATOM     15  C   UNL     1       6.788   4.539  17.620  0.00  0.00    +0.000 C 
ATOM     16  N   UNL     1       7.998   4.462  17.965  0.00  0.00    +0.000 NA
ENDBRANCH   6  15
TORSDOF 3
ENDMDL
MODEL 5
REMARK VINA RESULT:      -5.6      1.446      1.558
REMARK  Name = 
REMARK  4 active torsions:
REMARK  status: ('A' for Active; 'I' for Inactive)
REMARK    1  A    between atoms: C_1  and  C_2
REMARK    2  A    between atoms: C_2  and  C_3
REMARK    3  A    between atoms: C_3  and  N_4
REMARK    4  A    between atoms: C_9  and  C_10
REMARK                            x       y       z     vdW  Elec       q    Type
REMARK                         _______ _______ _______ _____ _____    ______ ____
ROOT
ATOM      1  C   UNL     1       3.198   3.143  18.321  0.00  0.00    +0.000 C 
ATOM      2  C   UNL     1       3.235   3.743  16.899  0.00  0.00    +0.000 C 
ATOM      3  C   UNL     1       4.316   4.813  16.974  0.00  0.00    +0.000 C 
ATOM      4  S   UNL     1       5.283   5.050  15.474  0.00  0.00    +0.000 S 
ATOM      5  C   UNL     1       6.844   4.456  16.200  0.00  0.00    +0.000 C 
ATOM      6  C   UNL     1       6.634   4.319  17.710  0.00  0.00    +0.000 C 
ATOM      7  N   UNL     1       5.206   4.366  17.994  0.00  0.00    +0.000 N 
ATOM      8  C   UNL     1       4.591   3.500  18.885  0.00  0.00    +0.000 C 
ATOM      9  O   UNL     1       5.114   3.015  19.873  0.00  0.00    +0.000 OA
ENDROOT
BRANCH   1  10
ATOM     10  N   UNL     1       3.144   1.666  18.192  0.00  0.00    +0.000 NA
ATOM     11  H   UNL     1       3.144   1.394  17.210  0.00  0.00    +0.000 HD
ATOM     12  H   UNL     1       2.249   1.348  18.578  0.00  0.00    +0.000 HD
ENDBRANCH   1  10
BRANCH   1  14
ATOM     13  C   UNL     1       1.501   2.570  20.208  0.00  0.00    +0.000 C 
ATOM     14  C   UNL     1       2.019   3.586  19.202  0.00  0.00    +0.000 C 
ENDBRANCH   1  14
BRANCH   6  15
ATOM     15  C   UNL     1       7.404   5.403  18.447  0.00  0.00    +0.000 C 
ATOM     16  N   UNL     1       8.042   6.302  19.058  0.00  0.00    +0.000 NA
ENDBRANCH   6  15
TORSDOF 3
ENDMDL
MODEL 6
REMARK VINA RESULT:      -5.6      2.238      4.566
REMARK  Name = 
REMARK  4 active torsions:
REMARK  status: ('A' for Active; 'I' for Inactive)
REMARK    1  A    between atoms: C_1  and  C_2
REMARK    2  A    between atoms: C_2  and  C_3
REMARK    3  A    between atoms: C_3  and  N_4
REMARK    4  A    between atoms: C_9  and  C_10
REMARK                            x       y       z     vdW  Elec       q    Type
REMARK                         _______ _______ _______ _____ _____    ______ ____
ROOT
ATOM      1  C   UNL     1       6.576   5.251  18.492  0.00  0.00    +0.000 C 
ATOM      2  C   UNL     1       5.982   6.593  18.009  0.00  0.00    +0.000 C 
ATOM      3  C   UNL     1       4.571   6.234  17.562  0.00  0.00    +0.000 C 
ATOM      4  S   UNL     1       3.322   7.503  17.833  0.00  0.00    +0.000 S 
ATOM      5  C   UNL     1       2.390   6.541  19.067  0.00  0.00    +0.000 C 
ATOM      6  C   UNL     1       2.939   5.113  19.058  0.00  0.00    +0.000 C 
ATOM      7  N   UNL     1       4.211   5.101  18.348  0.00  0.00    +0.000 N 
ATOM      8  C   UNL     1       5.320   4.410  18.811  0.00  0.00    +0.000 C 
ATOM      9  O   UNL     1       5.289   3.379  19.461  0.00  0.00    +0.000 OA
ENDROOT
BRANCH   1  10
ATOM     10  N   UNL     1       7.273   5.498  19.778  0.00  0.00    +0.000 NA
ATOM     11  H   UNL     1       8.281   5.545  19.634  0.00  0.00    +0.000 HD
ATOM     12  H   UNL     1       7.108   4.690  20.387  0.00  0.00    +0.000 HD
ENDBRANCH   1  10
BRANCH   1  14
ATOM     13  C   UNL     1       7.080   4.310  16.120  0.00  0.00    +0.000 C 
ATOM     14  C   UNL     1       7.571   4.579  17.534  0.00  0.00    +0.000 C 
ENDBRANCH   1  14
BRANCH   6  15
ATOM     15  C   UNL     1       1.926   4.164  18.439  0.00  0.00    +0.000 C 
ATOM     16  N   UNL     1       1.085   3.378  17.925  0.00  0.00    +0.000 NA
ENDBRANCH   6  15
TORSDOF 3
ENDMDL
MODEL 7
REMARK VINA RESULT:      -5.4      1.788      4.618
REMARK  Name = 
REMARK  4 active torsions:
REMARK  status: ('A' for Active; 'I' for Inactive)
REMARK    1  A    between atoms: C_1  and  C_2
REMARK    2  A    between atoms: C_2  and  C_3
REMARK    3  A    between atoms: C_3  and  N_4
REMARK    4  A    between atoms: C_9  and  C_10
REMARK                            x       y       z     vdW  Elec       q    Type
REMARK                         _______ _______ _______ _____ _____    ______ ____
ROOT
ATOM      1  C   UNL     1       5.378   5.287  17.326  0.00  0.00    +0.000 C 
ATOM      2  C   UNL     1       4.230   4.454  16.715  0.00  0.00    +0.000 C 
ATOM      3  C   UNL     1       4.254   3.152  17.505  0.00  0.00    +0.000 C 
ATOM      4  S   UNL     1       2.650   2.381  17.784  0.00  0.00    +0.000 S 
ATOM      5  C   UNL     1       2.672   2.626  19.588  0.00  0.00    +0.000 C 
ATOM      6  C   UNL     1       4.078   3.088  19.980  0.00  0.00    +0.000 C 
ATOM      7  N   UNL     1       4.789   3.503  18.778  0.00  0.00    +0.000 N 
ATOM      8  C   UNL     1       5.559   4.656  18.725  0.00  0.00    +0.000 C 
ATOM      9  O   UNL     1       6.169   5.142  19.661  0.00  0.00    +0.000 OA
ENDROOT
BRANCH   1  10
ATOM     10  N   UNL     1       4.880   6.669  17.532  0.00  0.00    +0.000 NA
ATOM     11  H   UNL     1       5.495   7.341  17.076  0.00  0.00    +0.000 HD
ATOM     12  H   UNL     1       4.924   6.874  18.536  0.00  0.00    +0.000 HD
ENDBRANCH   1  10
BRANCH   1  14
ATOM     13  C   UNL     1       6.664   4.615  15.167  0.00  0.00    +0.000 C 
ATOM     14  C   UNL     1       6.665   5.366  16.489  0.00  0.00    +0.000 C 
ENDBRANCH   1  14
BRANCH   6  15
ATOM     15  C   UNL     1       4.805   1.983  20.727  0.00  0.00    +0.000 C 
ATOM     16  N   UNL     1       5.408   1.065  21.346  0.00  0.00    +0.000 NA
ENDBRANCH   6  15
TORSDOF 3
ENDMDL
MODEL 8
REMARK VINA RESULT:      -5.4      2.393      4.647
REMARK  Name = 
REMARK  4 active torsions:
REMARK  status: ('A' for Active; 'I' for Inactive)
REMARK    1  A    between atoms: C_1  and  C_2
REMARK    2  A    between atoms: C_2  and  C_3
REMARK    3  A    between atoms: C_3  and  N_4
REMARK    4  A    between atoms: C_9  and  C_10
REMARK                            x       y       z     vdW  Elec       q    Type
REMARK                         _______ _______ _______ _____ _____    ______ ____
ROOT
ATOM      1  C   UNL     1       5.720   5.760  16.617  0.00  0.00    +0.000 C 
ATOM      2  C   UNL     1       5.581   4.223  16.662  0.00  0.00    +0.000 C 
ATOM      3  C   UNL     1       4.739   3.962  17.903  0.00  0.00    +0.000 C 
ATOM      4  S   UNL     1       3.618   2.556  17.803  0.00  0.00    +0.000 S 
ATOM      5  C   UNL     1       2.101   3.562  17.877  0.00  0.00    +0.000 C 
ATOM      6  C   UNL     1       2.507   4.992  18.244  0.00  0.00    +0.000 C 
ATOM      7  N   UNL     1       3.945   5.135  18.064  0.00  0.00    +0.000 N 
ATOM      8  C   UNL     1       4.517   6.243  17.457  0.00  0.00    +0.000 C 
ATOM      9  O   UNL     1       4.068   7.376  17.488  0.00  0.00    +0.000 OA
ENDROOT
BRANCH   1  10
ATOM     10  N   UNL     1       5.482   6.199  15.220  0.00  0.00    +0.000 NA
ATOM     11  H   UNL     1       6.205   5.833  14.603  0.00  0.00    +0.000 HD
ATOM     12  H   UNL     1       5.570   7.220  15.191  0.00  0.00    +0.000 HD
ENDBRANCH   1  10
BRANCH   1  14
ATOM     13  C   UNL     1       7.486   6.050  18.505  0.00  0.00    +0.000 C 
ATOM     14  C   UNL     1       7.079   6.321  17.065  0.00  0.00    +0.000 C 
ENDBRANCH   1  14
BRANCH   6  15
ATOM     15  C   UNL     1       2.069   5.315  19.663  0.00  0.00    +0.000 C 
ATOM     16  N   UNL     1       1.707   5.583  20.840  0.00  0.00    +0.000 NA
ENDBRANCH   6  15
TORSDOF 3
ENDMDL
MODEL 9
REMARK VINA RESULT:      -5.3      2.236      4.991
REMARK  Name = 
REMARK  4 active torsions:
REMARK  status: ('A' for Active; 'I' for Inactive)
REMARK    1  A    between atoms: C_1  and  C_2
REMARK    2  A    between atoms: C_2  and  C_3
REMARK    3  A    between atoms: C_3  and  N_4
REMARK    4  A    between atoms: C_9  and  C_10
REMARK                            x       y       z     vdW  Elec       q    Type
REMARK                         _______ _______ _______ _____ _____    ______ ____
ROOT
ATOM      1  C   UNL     1       4.884   5.385  18.016  0.00  0.00    +0.000 C 
ATOM      2  C   UNL     1       4.718   4.020  17.314  0.00  0.00    +0.000 C 
ATOM      3  C   UNL     1       4.119   3.121  18.387  0.00  0.00    +0.000 C 
ATOM      4  S   UNL     1       2.964   1.870  17.799  0.00  0.00    +0.000 S 
ATOM      5  C   UNL     1       1.515   2.595  18.630  0.00  0.00    +0.000 C 
ATOM      6  C   UNL     1       2.018   3.683  19.581  0.00  0.00    +0.000 C 
ATOM      7  N   UNL     1       3.399   4.001  19.246  0.00  0.00    +0.000 N 
ATOM      8  C   UNL     1       3.873   5.302  19.181  0.00  0.00    +0.000 C 
ATOM      9  O   UNL     1       3.467   6.236  19.850  0.00  0.00    +0.000 OA
ENDROOT
BRANCH   1  10
ATOM     10  N   UNL     1       4.397   6.437  17.090  0.00  0.00    +0.000 NA
ATOM     11  H   UNL     1       5.079   7.191  17.016  0.00  0.00    +0.000 HD
ATOM     12  H   UNL     1       3.554   6.852  17.499  0.00  0.00    +0.000 HD
ENDBRANCH   1  10
BRANCH   1  14
ATOM     13  C   UNL     1       7.433   4.883  17.874  0.00  0.00    +0.000 C 
ATOM     14  C   UNL     1       6.317   5.750  18.436  0.00  0.00    +0.000 C 
ENDBRANCH   1  14
BRANCH   6  15
ATOM     15  C   UNL     1       1.864   3.232  21.024  0.00  0.00    +0.000 C 
ATOM     16  N   UNL     1       1.735   2.857  22.221  0.00  0.00    +0.000 NA
ENDBRANCH   6  15
TORSDOF 3
ENDMDL
