MODEL 1
REMARK VINA RESULT:      -7.3      0.000      0.000
REMARK  Name = 
REMARK  5 active torsions:
REMARK  status: ('A' for Active; 'I' for Inactive)
REMARK    1  A    between atoms: C_1  and  C_2
REMARK    2  A    between atoms: C_2  and  C_3
REMARK    3  A    between atoms: C_16  and  C_17
REMARK    4  A    between atoms: C_16  and  C_18
REMARK    5  A    between atoms: C_20  and  C_21
REMARK                            x       y       z     vdW  Elec       q    Type
REMARK                         _______ _______ _______ _____ _____    ______ ____
ROOT
ATOM      1  C   UNL     1       1.025  16.207  21.965  0.00  0.00    +0.000 C 
ATOM      2  C   UNL     1       0.712  15.263  20.792  0.00  0.00    +0.000 C 
ATOM      3  C   UNL     1       0.722  16.085  19.489  0.00  0.00    +0.000 C 
ATOM      4  C   UNL     1       1.768  14.150  20.724  0.00  0.00    +0.000 C 
ATOM      5  C   UNL     1       1.431  13.113  19.667  0.00  0.00    +0.000 C 
ATOM      6  O   UNL     1       2.327  12.576  19.020  0.00  0.00    +0.000 OA
ATOM      7  C   UNL     1      -0.003  12.738  19.466  0.00  0.00    +0.000 C 
ATOM      8  C   UNL     1      -0.941  13.445  20.127  0.00  0.00    +0.000 C 
ATOM      9  C   UNL     1      -0.666  14.616  21.025  0.00  0.00    +0.000 C 
ATOM     10  O   UNL     1      -2.291  13.161  20.024  0.00  0.00    +0.000 OA
ATOM     11  C   UNL     1      -2.717  12.098  19.251  0.00  0.00    +0.000 C 
ATOM     12  C   UNL     1      -1.866  11.342  18.533  0.00  0.00    +0.000 C 
ATOM     13  C   UNL     1      -2.430  10.219  17.723  0.00  0.00    +0.000 C 
ATOM     14  O   UNL     1      -1.734   9.599  16.925  0.00  0.00    +0.000 OA
ATOM     15  C   UNL     1      -3.885   9.841  17.936  0.00  0.00    +0.000 C 
ATOM     16  C   UNL     1      -4.766  11.084  18.127  0.00  0.00    +0.000 C 
ATOM     17  C   UNL     1      -4.790  11.923  16.832  0.00  0.00    +0.000 C 
ATOM     18  C   UNL     1      -6.207  10.657  18.451  0.00  0.00    +0.000 C 
ATOM     19  C   UNL     1      -4.208  11.908  19.300  0.00  0.00    +0.000 C 
ATOM     20  C   UNL     1      -0.364  11.594  18.529  0.00  0.00    +0.000 C 
ENDROOT
BRANCH  20  21
ATOM     21  C   UNL     1       0.421  10.320  18.847  0.00  0.00    +0.000 A 
ATOM     22  C   UNL     1       0.323   9.745  20.127  0.00  0.00    +0.000 A 
ATOM     23  C   UNL     1       1.043   8.590  20.443  0.00  0.00    +0.000 A 
ATOM     24  C   UNL     1       1.862   8.008  19.485  0.00  0.00    +0.000 A 
ATOM     25 CL   UNL     1       2.754   6.589  19.868  0.00  0.00    +0.000 Cl
ATOM     26  C   UNL     1       1.967   8.564  18.211  0.00  0.00    +0.000 A 
ATOM     27  C   UNL     1       1.248   9.716  17.891  0.00  0.00    +0.000 A 
ENDBRANCH  20  21
TORSDOF 1
ENDMDL
MODEL 2
REMARK VINA RESULT:      -6.5      3.616      5.968
REMARK  Name = 
REMARK  5 active torsions:
REMARK  status: ('A' for Active; 'I' for Inactive)
REMARK    1  A    between atoms: C_1  and  C_2
REMARK    2  A    between atoms: C_2  and  C_3
REMARK    3  A    between atoms: C_16  and  C_17
REMARK    4  A    between atoms: C_16  and  C_18
REMARK    5  A    between atoms: C_20  and  C_21
REMARK                            x       y       z     vdW  Elec       q    Type
REMARK                         _______ _______ _______ _____ _____    ______ ____
ROOT
ATOM      1  C   UNL     1       1.636  11.030  18.694  0.00  0.00    +0.000 C 
ATOM      2  C   UNL     1       0.410  11.060  19.621  0.00  0.00    +0.000 C 
ATOM      3  C   UNL     1       0.100   9.618  20.065  0.00  0.00    +0.000 C 
ATOM      4  C   UNL     1       0.706  11.939  20.847  0.00  0.00    +0.000 C 
ATOM      5  C   UNL     1      -0.518  12.112  21.729  0.00  0.00    +0.000 C 
ATOM      6  O   UNL     1      -0.397  12.176  22.949  0.00  0.00    +0.000 OA
ATOM      7  C   UNL     1      -1.857  12.240  21.075  0.00  0.00    +0.000 C 
ATOM      8  C   UNL     1      -1.933  12.048  19.744  0.00  0.00    +0.000 C 
ATOM      9  C   UNL     1      -0.780  11.670  18.859  0.00  0.00    +0.000 C 
ATOM     10  O   UNL     1      -3.121  12.166  19.044  0.00  0.00    +0.000 OA
ATOM     11  C   UNL     1      -4.279  12.530  19.706  0.00  0.00    +0.000 C 
ATOM     12  C   UNL     1      -4.318  12.724  21.036  0.00  0.00    +0.000 C 
ATOM     13  C   UNL     1      -5.624  13.107  21.656  0.00  0.00    +0.000 C 
ATOM     14  O   UNL     1      -5.764  13.139  22.875  0.00  0.00    +0.000 OA
ATOM     15  C   UNL     1      -6.770  13.488  20.736  0.00  0.00    +0.000 C 
ATOM     16  C   UNL     1      -6.817  12.586  19.494  0.00  0.00    +0.000 C 
ATOM     17  C   UNL     1      -7.141  11.134  19.903  0.00  0.00    +0.000 C 
ATOM     18  C   UNL     1      -7.917  13.075  18.536  0.00  0.00    +0.000 C 
ATOM     19  C   UNL     1      -5.457  12.661  18.780  0.00  0.00    +0.000 C 
ATOM     20  C   UNL     1      -3.083  12.571  21.915  0.00  0.00    +0.000 C 
ENDROOT
BRANCH  20  21
ATOM     21  C   UNL     1      -2.862  13.802  22.795  0.00  0.00    +0.000 A 
ATOM     22  C   UNL     1      -3.007  13.693  24.190  0.00  0.00    +0.000 A 
ATOM     23  C   UNL     1      -2.824  14.808  25.012  0.00  0.00    +0.000 A 
ATOM     24  C   UNL     1      -2.497  16.032  24.444  0.00  0.00    +0.000 A 
ATOM     25 CL   UNL     1      -2.274  17.409  25.449  0.00  0.00    +0.000 Cl
ATOM     26  C   UNL     1      -2.347  16.155  23.064  0.00  0.00    +0.000 A 
ATOM     27  C   UNL     1      -2.527  15.044  22.240  0.00  0.00    +0.000 A 
ENDBRANCH  20  21
TORSDOF 1
ENDMDL
MODEL 3
REMARK VINA RESULT:      -6.5      2.767      5.990
REMARK  Name = 
REMARK  5 active torsions:
REMARK  status: ('A' for Active; 'I' for Inactive)
REMARK    1  A    between atoms: C_1  and  C_2
REMARK    2  A    between atoms: C_2  and  C_3
REMARK    3  A    between atoms: C_16  and  C_17
REMARK    4  A    between atoms: C_16  and  C_18
REMARK    5  A    between atoms: C_20  and  C_21
REMARK                            x       y       z     vdW  Elec       q    Type
REMARK                         _______ _______ _______ _____ _____    ______ ____
ROOT
ATOM      1  C   UNL     1      -7.167  12.647  17.028  0.00  0.00    +0.000 C 
ATOM      2  C   UNL     1      -6.136  12.186  18.072  0.00  0.00    +0.000 C 
ATOM      3  C   UNL     1      -6.696  10.946  18.795  0.00  0.00    +0.000 C 
ATOM      4  C   UNL     1      -4.810  11.839  17.377  0.00  0.00    +0.000 C 
ATOM      5  C   UNL     1      -3.716  11.507  18.376  0.00  0.00    +0.000 C 
ATOM      6  O   UNL     1      -2.880  10.646  18.115  0.00  0.00    +0.000 OA
ATOM      7  C   UNL     1      -3.661  12.278  19.657  0.00  0.00    +0.000 C 
ATOM      8  C   UNL     1      -4.671  13.127  19.929  0.00  0.00    +0.000 C 
ATOM      9  C   UNL     1      -5.881  13.335  19.065  0.00  0.00    +0.000 C 
ATOM     10  O   UNL     1      -4.701  13.900  21.077  0.00  0.00    +0.000 OA
ATOM     11  C   UNL     1      -3.651  13.845  21.974  0.00  0.00    +0.000 C 
ATOM     12  C   UNL     1      -2.604  13.016  21.809  0.00  0.00    +0.000 C 
ATOM     13  C   UNL     1      -1.524  13.028  22.842  0.00  0.00    +0.000 C 
ATOM     14  O   UNL     1      -0.630  12.187  22.837  0.00  0.00    +0.000 OA
ATOM     15  C   UNL     1      -1.541  14.130  23.886  0.00  0.00    +0.000 C 
ATOM     16  C   UNL     1      -2.971  14.434  24.357  0.00  0.00    +0.000 C 
ATOM     17  C   UNL     1      -3.557  13.215  25.100  0.00  0.00    +0.000 C 
ATOM     18  C   UNL     1      -2.958  15.629  25.326  0.00  0.00    +0.000 C 
ATOM     19  C   UNL     1      -3.829  14.789  23.131  0.00  0.00    +0.000 C 
ATOM     20  C   UNL     1      -2.490  12.082  20.610  0.00  0.00    +0.000 C 
ENDROOT
BRANCH  20  21
ATOM     21  C   UNL     1      -1.142  12.234  19.905  0.00  0.00    +0.000 A 
ATOM     22  C   UNL     1      -0.252  11.146  19.867  0.00  0.00    +0.000 A 
ATOM     23  C   UNL     1       0.991  11.267  19.240  0.00  0.00    +0.000 A 
ATOM     24  C   UNL     1       1.347  12.472  18.651  0.00  0.00    +0.000 A 
ATOM     25 CL   UNL     1       2.877  12.629  17.881  0.00  0.00    +0.000 Cl
ATOM     26  C   UNL     1       0.475  13.559  18.677  0.00  0.00    +0.000 A 
ATOM     27  C   UNL     1      -0.768  13.441  19.300  0.00  0.00    +0.000 A 
ENDBRANCH  20  21
TORSDOF 1
ENDMDL
MODEL 4
REMARK VINA RESULT:      -6.4      2.935      5.769
REMARK  Name = 
REMARK  5 active torsions:
REMARK  status: ('A' for Active; 'I' for Inactive)
REMARK    1  A    between atoms: C_1  and  C_2
REMARK    2  A    between atoms: C_2  and  C_3
REMARK    3  A    between atoms: C_16  and  C_17
REMARK    4  A    between atoms: C_16  and  C_18
REMARK    5  A    between atoms: C_20  and  C_21
REMARK                            x       y       z     vdW  Elec       q    Type
REMARK                         _______ _______ _______ _____ _____    ______ ____
ROOT
ATOM      1  C   UNL     1      -4.102  10.535  15.767  0.00  0.00    +0.000 C 
ATOM      2  C   UNL     1      -3.404  10.615  17.135  0.00  0.00    +0.000 C 
ATOM      3  C   UNL     1      -3.555   9.253  17.839  0.00  0.00    +0.000 C 
ATOM      4  C   UNL     1      -1.916  10.947  16.941  0.00  0.00    +0.000 C 
ATOM      5  C   UNL     1      -1.208  11.171  18.266  0.00  0.00    +0.000 C 
ATOM      6  O   UNL     1      -0.042  10.814  18.412  0.00  0.00    +0.000 OA
ATOM      7  C   UNL     1      -1.950  11.865  19.364  0.00  0.00    +0.000 C 
ATOM      8  C   UNL     1      -3.258  12.127  19.177  0.00  0.00    +0.000 C 
ATOM      9  C   UNL     1      -4.052  11.739  17.963  0.00  0.00    +0.000 C 
ATOM     10  O   UNL     1      -4.025  12.785  20.124  0.00  0.00    +0.000 OA
ATOM     11  C   UNL     1      -3.443  13.231  21.295  0.00  0.00    +0.000 C 
ATOM     12  C   UNL     1      -2.150  13.003  21.590  0.00  0.00    +0.000 C 
ATOM     13  C   UNL     1      -1.620  13.522  22.888  0.00  0.00    +0.000 C 
ATOM     14  O   UNL     1      -0.503  13.209  23.289  0.00  0.00    +0.000 OA
ATOM     15  C   UNL     1      -2.490  14.475  23.688  0.00  0.00    +0.000 C 
ATOM     16  C   UNL     1      -3.967  14.057  23.647  0.00  0.00    +0.000 C 
ATOM     17  C   UNL     1      -4.157  12.701  24.359  0.00  0.00    +0.000 C 
ATOM     18  C   UNL     1      -4.826  15.106  24.371  0.00  0.00    +0.000 C 
ATOM     19  C   UNL     1      -4.412  13.968  22.178  0.00  0.00    +0.000 C 
ATOM     20  C   UNL     1      -1.225  12.245  20.647  0.00  0.00    +0.000 C 
ENDROOT
BRANCH  20  21
ATOM     21  C   UNL     1       0.061  13.026  20.372  0.00  0.00    +0.000 A 
ATOM     22  C   UNL     1      -0.003  14.247  19.676  0.00  0.00    +0.000 A 
ATOM     23  C   UNL     1       1.161  14.969  19.401  0.00  0.00    +0.000 A 
ATOM     24  C   UNL     1       2.389  14.476  19.820  0.00  0.00    +0.000 A 
ATOM     25 CL   UNL     1       3.826  15.358  19.482  0.00  0.00    +0.000 Cl
ATOM     26  C   UNL     1       2.469  13.270  20.513  0.00  0.00    +0.000 A 
ATOM     27  C   UNL     1       1.309  12.547  20.791  0.00  0.00    +0.000 A 
ENDBRANCH  20  21
TORSDOF 1
ENDMDL
MODEL 5
REMARK VINA RESULT:      -6.3      3.455      6.243
REMARK  Name = 
REMARK  5 active torsions:
REMARK  status: ('A' for Active; 'I' for Inactive)
REMARK    1  A    between atoms: C_1  and  C_2
REMARK    2  A    between atoms: C_2  and  C_3
REMARK    3  A    between atoms: C_16  and  C_17
REMARK    4  A    between atoms: C_16  and  C_18
REMARK    5  A    between atoms: C_20  and  C_21
REMARK                            x       y       z     vdW  Elec       q    Type
REMARK                         _______ _______ _______ _____ _____    ______ ____
ROOT
ATOM      1  C   UNL     1      -3.644  10.629  15.737  0.00  0.00    +0.000 C 
ATOM      2  C   UNL     1      -3.353  10.806  17.237  0.00  0.00    +0.000 C 
ATOM      3  C   UNL     1      -3.353   9.416  17.900  0.00  0.00    +0.000 C 
ATOM      4  C   UNL     1      -1.986  11.482  17.427  0.00  0.00    +0.000 C 
ATOM      5  C   UNL     1      -1.710  11.803  18.885  0.00  0.00    +0.000 C 
ATOM      6  O   UNL     1      -0.568  11.720  19.330  0.00  0.00    +0.000 OA
ATOM      7  C   UNL     1      -2.847  12.257  19.744  0.00  0.00    +0.000 C 
ATOM      8  C   UNL     1      -4.089  12.217  19.224  0.00  0.00    +0.000 C 
ATOM      9  C   UNL     1      -4.436  11.711  17.853  0.00  0.00    +0.000 C 
ATOM     10  O   UNL     1      -5.203  12.636  19.931  0.00  0.00    +0.000 OA
ATOM     11  C   UNL     1      -5.058  13.151  21.205  0.00  0.00    +0.000 C 
ATOM     12  C   UNL     1      -3.866  13.215  21.826  0.00  0.00    +0.000 C 
ATOM     13  C   UNL     1      -3.819  13.783  23.208  0.00  0.00    +0.000 C 
ATOM     14  O   UNL     1      -2.799  13.720  23.888  0.00  0.00    +0.000 OA
ATOM     15  C   UNL     1      -5.061  14.472  23.743  0.00  0.00    +0.000 C 
ATOM     16  C   UNL     1      -6.339  13.725  23.331  0.00  0.00    +0.000 C 
ATOM     17  C   UNL     1      -6.378  12.332  23.992  0.00  0.00    +0.000 C 
ATOM     18  C   UNL     1      -7.576  14.514  23.794  0.00  0.00    +0.000 C 
ATOM     19  C   UNL     1      -6.364  13.603  21.798  0.00  0.00    +0.000 C 
ATOM     20  C   UNL     1      -2.580  12.736  21.164  0.00  0.00    +0.000 C 
ENDROOT
BRANCH  20  21
ATOM     21  C   UNL     1      -1.488  13.805  21.216  0.00  0.00    +0.000 A 
ATOM     22  C   UNL     1      -1.685  15.031  20.556  0.00  0.00    +0.000 A 
ATOM     23  C   UNL     1      -0.694  16.016  20.578  0.00  0.00    +0.000 A 
ATOM     24  C   UNL     1       0.493  15.779  21.257  0.00  0.00    +0.000 A 
ATOM     25 CL   UNL     1       1.719  16.985  21.285  0.00  0.00    +0.000 Cl
ATOM     26  C   UNL     1       0.702  14.570  21.918  0.00  0.00    +0.000 A 
ATOM     27  C   UNL     1      -0.285  13.585  21.900  0.00  0.00    +0.000 A 
ENDBRANCH  20  21
TORSDOF 1
ENDMDL
MODEL 6
REMARK VINA RESULT:      -6.3      1.465      2.018
REMARK  Name = 
REMARK  5 active torsions:
REMARK  status: ('A' for Active; 'I' for Inactive)
REMARK    1  A    between atoms: C_1  and  C_2
REMARK    2  A    between atoms: C_2  and  C_3
REMARK    3  A    between atoms: C_16  and  C_17
REMARK    4  A    between atoms: C_16  and  C_18
REMARK    5  A    between atoms: C_20  and  C_21
REMARK                            x       y       z     vdW  Elec       q    Type
REMARK                         _______ _______ _______ _____ _____    ______ ____
ROOT
ATOM      1  C   UNL     1      -1.150  16.192  24.063  0.00  0.00    +0.000 C 
ATOM      2  C   UNL     1      -1.188  15.543  22.669  0.00  0.00    +0.000 C 
ATOM      3  C   UNL     1      -1.154  16.662  21.611  0.00  0.00    +0.000 C 
ATOM      4  C   UNL     1       0.022  14.613  22.494  0.00  0.00    +0.000 C 
ATOM      5  C   UNL     1      -0.039  13.843  21.187  0.00  0.00    +0.000 C 
ATOM      6  O   UNL     1       0.993  13.594  20.568  0.00  0.00    +0.000 OA
ATOM      7  C   UNL     1      -1.370  13.368  20.699  0.00  0.00    +0.000 C 
ATOM      8  C   UNL     1      -2.469  13.772  21.365  0.00  0.00    +0.000 C 
ATOM      9  C   UNL     1      -2.472  14.703  22.543  0.00  0.00    +0.000 C 
ATOM     10  O   UNL     1      -3.744  13.369  21.005  0.00  0.00    +0.000 OA
ATOM     11  C   UNL     1      -3.919  12.492  19.952  0.00  0.00    +0.000 C 
ATOM     12  C   UNL     1      -2.892  12.045  19.207  0.00  0.00    +0.000 C 
ATOM     13  C   UNL     1      -3.190  11.104  18.084  0.00  0.00    +0.000 C 
ATOM     14  O   UNL     1      -2.326  10.791  17.271  0.00  0.00    +0.000 OA
ATOM     15  C   UNL     1      -4.588  10.520  17.990  0.00  0.00    +0.000 C 
ATOM     16  C   UNL     1      -5.658  11.564  18.338  0.00  0.00    +0.000 C 
ATOM     17  C   UNL     1      -5.662  12.693  17.287  0.00  0.00    +0.000 C 
ATOM     18  C   UNL     1      -7.048  10.905  18.343  0.00  0.00    +0.000 C 
ATOM     19  C   UNL     1      -5.362  12.125  19.739  0.00  0.00    +0.000 C 
ATOM     20  C   UNL     1      -1.452  12.462  19.479  0.00  0.00    +0.000 C 
ENDROOT
BRANCH  20  21
ATOM     21  C   UNL     1      -0.528  11.250  19.599  0.00  0.00    +0.000 A 
ATOM     22  C   UNL     1       0.439  11.012  18.606  0.00  0.00    +0.000 A 
ATOM     23  C   UNL     1       1.284   9.903  18.689  0.00  0.00    +0.000 A 
ATOM     24  C   UNL     1       1.166   9.029  19.761  0.00  0.00    +0.000 A 
ATOM     25 CL   UNL     1       2.200   7.659  19.868  0.00  0.00    +0.000 Cl
ATOM     26  C   UNL     1       0.214   9.252  20.755  0.00  0.00    +0.000 A 
ATOM     27  C   UNL     1      -0.629  10.360  20.677  0.00  0.00    +0.000 A 
ENDBRANCH  20  21
TORSDOF 1
ENDMDL
MODEL 7
REMARK VINA RESULT:      -6.1      3.044      5.690
REMARK  Name = 
REMARK  5 active torsions:
REMARK  status: ('A' for Active; 'I' for Inactive)
REMARK    1  A    between atoms: C_1  and  C_2
REMARK    2  A    between atoms: C_2  and  C_3
REMARK    3  A    between atoms: C_16  and  C_17
REMARK    4  A    between atoms: C_16  and  C_18
REMARK    5  A    between atoms: C_20  and  C_21
REMARK                            x       y       z     vdW  Elec       q    Type
REMARK                         _______ _______ _______ _____ _____    ______ ____
ROOT
ATOM      1  C   UNL     1       1.791   9.675  18.201  0.00  0.00    +0.000 C 
ATOM      2  C   UNL     1       0.692  10.150  19.166  0.00  0.00    +0.000 C 
ATOM      3  C   UNL     1       0.337   8.986  20.110  0.00  0.00    +0.000 C 
ATOM      4  C   UNL     1       1.195  11.354  19.977  0.00  0.00    +0.000 C 
ATOM      5  C   UNL     1       0.103  11.946  20.849  0.00  0.00    +0.000 C 
ATOM      6  O   UNL     1       0.376  12.407  21.955  0.00  0.00    +0.000 OA
ATOM      7  C   UNL     1      -1.293  11.990  20.314  0.00  0.00    +0.000 C 
ATOM      8  C   UNL     1      -1.543  11.368  19.146  0.00  0.00    +0.000 C 
ATOM      9  C   UNL     1      -0.536  10.591  18.348  0.00  0.00    +0.000 C 
ATOM     10  O   UNL     1      -2.797  11.370  18.558  0.00  0.00    +0.000 OA
ATOM     11  C   UNL     1      -3.836  12.059  19.153  0.00  0.00    +0.000 C 
ATOM     12  C   UNL     1      -3.700  12.696  20.330  0.00  0.00    +0.000 C 
ATOM     13  C   UNL     1      -4.890  13.405  20.892  0.00  0.00    +0.000 C 
ATOM     14  O   UNL     1      -4.879  13.863  22.031  0.00  0.00    +0.000 OA
ATOM     15  C   UNL     1      -6.110  13.574  20.004  0.00  0.00    +0.000 C 
ATOM     16  C   UNL     1      -6.371  12.315  19.163  0.00  0.00    +0.000 C 
ATOM     17  C   UNL     1      -6.745  11.132  20.080  0.00  0.00    +0.000 C 
ATOM     18  C   UNL     1      -7.542  12.567  18.198  0.00  0.00    +0.000 C 
ATOM     19  C   UNL     1      -5.106  11.996  18.349  0.00  0.00    +0.000 C 
ATOM     20  C   UNL     1      -2.381  12.717  21.093  0.00  0.00    +0.000 C 
ENDROOT
BRANCH  20  21
ATOM     21  C   UNL     1      -1.969  14.141  21.466  0.00  0.00    +0.000 A 
ATOM     22  C   UNL     1      -1.683  15.070  20.450  0.00  0.00    +0.000 A 
ATOM     23  C   UNL     1      -1.291  16.373  20.768  0.00  0.00    +0.000 A 
ATOM     24  C   UNL     1      -1.183  16.750  22.100  0.00  0.00    +0.000 A 
ATOM     25 CL   UNL     1      -0.696  18.350  22.500  0.00  0.00    +0.000 Cl
ATOM     26  C   UNL     1      -1.466  15.841  23.119  0.00  0.00    +0.000 A 
ATOM     27  C   UNL     1      -1.860  14.541  22.804  0.00  0.00    +0.000 A 
ENDBRANCH  20  21
TORSDOF 1
ENDMDL
MODEL 8
REMARK VINA RESULT:      -6.0      3.346      5.836
REMARK  Name = 
REMARK  5 active torsions:
REMARK  status: ('A' for Active; 'I' for Inactive)
REMARK    1  A    between atoms: C_1  and  C_2
REMARK    2  A    between atoms: C_2  and  C_3
REMARK    3  A    between atoms: C_16  and  C_17
REMARK    4  A    between atoms: C_16  and  C_18
REMARK    5  A    between atoms: C_20  and  C_21
REMARK                            x       y       z     vdW  Elec       q    Type
REMARK                         _______ _______ _______ _____ _____    ______ ____
ROOT
ATOM      1  C   UNL     1       1.328  16.977  18.185  0.00  0.00    +0.000 C 
ATOM      2  C   UNL     1       0.990  16.085  19.391  0.00  0.00    +0.000 C 
ATOM      3  C   UNL     1       1.978  16.407  20.528  0.00  0.00    +0.000 C 
ATOM      4  C   UNL     1      -0.451  16.355  19.850  0.00  0.00    +0.000 C 
ATOM      5  C   UNL     1      -0.883  15.405  20.953  0.00  0.00    +0.000 C 
ATOM      6  O   UNL     1      -1.626  15.795  21.850  0.00  0.00    +0.000 OA
ATOM      7  C   UNL     1      -0.415  13.985  20.895  0.00  0.00    +0.000 C 
ATOM      8  C   UNL     1       0.486  13.653  19.951  0.00  0.00    +0.000 C 
ATOM      9  C   UNL     1       1.098  14.608  18.967  0.00  0.00    +0.000 C 
ATOM     10  O   UNL     1       0.963  12.362  19.803  0.00  0.00    +0.000 OA
ATOM     11  C   UNL     1       0.486  11.352  20.616  0.00  0.00    +0.000 C 
ATOM     12  C   UNL     1      -0.398  11.579  21.604  0.00  0.00    +0.000 C 
ATOM     13  C   UNL     1      -0.845  10.418  22.433  0.00  0.00    +0.000 C 
ATOM     14  O   UNL     1      -1.518  10.581  23.446  0.00  0.00    +0.000 OA
ATOM     15  C   UNL     1      -0.469   9.021  21.972  0.00  0.00    +0.000 C 
ATOM     16  C   UNL     1       0.961   8.980  21.413  0.00  0.00    +0.000 C 
ATOM     17  C   UNL     1       1.979   9.283  22.532  0.00  0.00    +0.000 C 
ATOM     18  C   UNL     1       1.262   7.579  20.855  0.00  0.00    +0.000 C 
ATOM     19  C   UNL     1       1.076  10.010  20.278  0.00  0.00    +0.000 C 
ATOM     20  C   UNL     1      -0.952  12.968  21.893  0.00  0.00    +0.000 C 
ENDROOT
BRANCH  20  21
ATOM     21  C   UNL     1      -2.481  12.965  21.945  0.00  0.00    +0.000 A 
ATOM     22  C   UNL     1      -3.135  13.209  23.166  0.00  0.00    +0.000 A 
ATOM     23  C   UNL     1      -4.530  13.196  23.238  0.00  0.00    +0.000 A 
ATOM     24  C   UNL     1      -5.274  12.941  22.095  0.00  0.00    +0.000 A 
ATOM     25 CL   UNL     1      -6.992  12.920  22.178  0.00  0.00    +0.000 Cl
ATOM     26  C   UNL     1      -4.641  12.701  20.876  0.00  0.00    +0.000 A 
ATOM     27  C   UNL     1      -3.248  12.715  20.799  0.00  0.00    +0.000 A 
ENDBRANCH  20  21
TORSDOF 1
ENDMDL
MODEL 9
REMARK VINA RESULT:      -6.0      7.633     10.719
REMARK  Name = 
REMARK  5 active torsions:
REMARK  status: ('A' for Active; 'I' for Inactive)
REMARK    1  A    between atoms: C_1  and  C_2
REMARK    2  A    between atoms: C_2  and  C_3
REMARK    3  A    between atoms: C_16  and  C_17
REMARK    4  A    between atoms: C_16  and  C_18
REMARK    5  A    between atoms: C_20  and  C_21
REMARK                            x       y       z     vdW  Elec       q    Type
REMARK                         _______ _______ _______ _____ _____    ______ ____
ROOT
ATOM      1  C   UNL     1      11.201  11.606  17.823  0.00  0.00    +0.000 C 
ATOM      2  C   UNL     1      10.647  12.546  18.907  0.00  0.00    +0.000 C 
ATOM      3  C   UNL     1      11.834  13.240  19.603  0.00  0.00    +0.000 C 
ATOM      4  C   UNL     1       9.724  13.593  18.266  0.00  0.00    +0.000 C 
ATOM      5  C   UNL     1       9.044  14.463  19.308  0.00  0.00    +0.000 C 
ATOM      6  O   UNL     1       8.830  15.651  19.078  0.00  0.00    +0.000 OA
ATOM      7  C   UNL     1       8.610  13.831  20.592  0.00  0.00    +0.000 C 
ATOM      8  C   UNL     1       8.974  12.556  20.826  0.00  0.00    +0.000 C 
ATOM      9  C   UNL     1       9.825  11.720  19.913  0.00  0.00    +0.000 C 
ATOM     10  O   UNL     1       8.604  11.877  21.974  0.00  0.00    +0.000 OA
ATOM     11  C   UNL     1       7.800  12.496  22.912  0.00  0.00    +0.000 C 
ATOM     12  C   UNL     1       7.398  13.773  22.787  0.00  0.00    +0.000 C 
ATOM     13  C   UNL     1       6.536  14.351  23.864  0.00  0.00    +0.000 C 
ATOM     14  O   UNL     1       6.272  15.549  23.893  0.00  0.00    +0.000 OA
ATOM     15  C   UNL     1       5.966  13.409  24.909  0.00  0.00    +0.000 C 
ATOM     16  C   UNL     1       6.991  12.343  25.323  0.00  0.00    +0.000 C 
ATOM     17  C   UNL     1       8.188  13.005  26.038  0.00  0.00    +0.000 C 
ATOM     18  C   UNL     1       6.341  11.344  26.295  0.00  0.00    +0.000 C 
ATOM     19  C   UNL     1       7.456  11.592  24.064  0.00  0.00    +0.000 C 
ATOM     20  C   UNL     1       7.787  14.633  21.592  0.00  0.00    +0.000 C 
ENDROOT
BRANCH  20  21
ATOM     21  C   UNL     1       6.564  15.282  20.942  0.00  0.00    +0.000 A 
ATOM     22  C   UNL     1       5.515  14.472  20.474  0.00  0.00    +0.000 A 
ATOM     23  C   UNL     1       4.395  15.043  19.864  0.00  0.00    +0.000 A 
ATOM     24  C   UNL     1       4.320  16.421  19.721  0.00  0.00    +0.000 A 
ATOM     25 CL   UNL     1       2.947  17.131  18.968  0.00  0.00    +0.000 Cl
ATOM     26  C   UNL     1       5.351  17.238  20.183  0.00  0.00    +0.000 A 
ATOM     27  C   UNL     1       6.470  16.672  20.794  0.00  0.00    +0.000 A 
ENDBRANCH  20  21
TORSDOF 1
ENDMDL
