MODEL 1
REMARK VINA RESULT:      -9.3      0.000      0.000
REMARK  Name = 
REMARK  13 active torsions:
REMARK  status: ('A' for Active; 'I' for Inactive)
REMARK    1  A    between atoms: C_1  and  O_2
REMARK    2  A    between atoms: O_2  and  C_3
REMARK    3  A    between atoms: N_6  and  C_7
REMARK    4  A    between atoms: C_7  and  C_8
REMARK    5  A    between atoms: C_11  and  C_12
REMARK    6  A    between atoms: C_13  and  C_14
REMARK    7  A    between atoms: C_22  and  N_23
REMARK    8  A    between atoms: N_23  and  C_24
REMARK    9  A    between atoms: C_24  and  C_25
REMARK   10  A    between atoms: C_24  and  C_29
REMARK   11  A    between atoms: N_27  and  O_28
REMARK   12  A    between atoms: C_29  and  C_30
REMARK   13  A    between atoms: C_29  and  O_31
REMARK                            x       y       z     vdW  Elec       q    Type
REMARK                         _______ _______ _______ _____ _____    ______ ____
ROOT
ATOM      1  C   UNL     1       1.911   6.876  20.229  0.00  0.00    +0.000 A 
ATOM      2  C   UNL     1       2.815   7.104  19.181  0.00  0.00    +0.000 A 
ATOM      3  C   UNL     1       3.605   6.060  18.655  0.00  0.00    +0.000 A 
ATOM      4  C   UNL     1       3.492   4.782  19.189  0.00  0.00    +0.000 A 
ATOM      5  C   UNL     1       2.590   4.564  20.242  0.00  0.00    +0.000 A 
ATOM      6  C   UNL     1       1.804   5.592  20.772  0.00  0.00    +0.000 A 
ATOM      7  C   UNL     1       2.515   3.128  20.627  0.00  0.00    +0.000 C 
ATOM      8  C   UNL     1       3.571   2.465  19.725  0.00  0.00    +0.000 C 
ATOM      9  C   UNL     1       4.046   3.477  18.646  0.00  0.00    +0.000 C 
ENDROOT
BRANCH   1  11
ATOM     10  C   UNL     1       0.444   8.871  21.158  0.00  0.00    +0.000 C 
ATOM     11  C   UNL     1       1.082   7.933  20.743  0.00  0.00    +0.000 C 
BRANCH  10  15
ATOM     12  C   UNL     1      -1.946  12.180  22.307  0.00  0.00    +0.000 A 
ATOM     13  C   UNL     1      -1.461  12.081  20.995  0.00  0.00    +0.000 A 
ATOM     14  C   UNL     1      -0.635  11.013  20.621  0.00  0.00    +0.000 A 
ATOM     15  C   UNL     1      -0.250  10.056  21.565  0.00  0.00    +0.000 A 
ATOM     16  C   UNL     1      -0.635  10.213  22.896  0.00  0.00    +0.000 A 
ATOM     17  C   UNL     1      -1.480  11.265  23.265  0.00  0.00    +0.000 A 
BRANCH  12  18
ATOM     18  C   UNL     1      -3.015  13.201  22.670  0.00  0.00    +0.000 C 
BRANCH  18  22
ATOM     19  C   UNL     1      -7.249  12.958  23.574  0.00  0.00    +0.000 C 
ATOM     20  C   UNL     1      -6.238  12.261  24.481  0.00  0.00    +0.000 C 
ATOM     21  C   UNL     1      -4.820  12.788  24.253  0.00  0.00    +0.000 C 
ATOM     22  N   UNL     1      -4.370  12.616  22.860  0.00  0.00    +0.000 NA
ATOM     23  C   UNL     1      -5.320  13.243  21.920  0.00  0.00    +0.000 C 
ATOM     24  C   UNL     1      -6.780  12.821  22.125  0.00  0.00    +0.000 C 
BRANCH  19  26
ATOM     25  C   UNL     1      -7.913  15.218  23.075  0.00  0.00    +0.000 C 
ATOM     26  O   UNL     1      -7.369  14.313  24.025  0.00  0.00    +0.000 OA
ENDBRANCH  19  26
ENDBRANCH  18  22
ENDBRANCH  12  18
ENDBRANCH  10  15
ENDBRANCH   1  11
BRANCH   9  27
ATOM     27  N   UNL     1       5.507   3.461  18.369  0.00  0.00    +0.000 NA
ATOM     28  H   UNL     1       5.702   2.621  17.835  0.00  0.00    +0.000 HD
BRANCH  27  29
ATOM     29  C   UNL     1       5.979   4.672  17.602  0.00  0.00    +0.000 C 
BRANCH  29  30
ATOM     30  C   UNL     1       5.905   4.520  16.046  0.00  0.00    +0.000 C 
ATOM     31  O   UNL     1       5.428   5.407  15.321  0.00  0.00    +0.000 OA
ATOM     32  N   UNL     1       6.312   3.341  15.470  0.00  0.00    +0.000 N 
ATOM     33  H   UNL     1       6.169   2.459  15.943  0.00  0.00    +0.000 HD
BRANCH  32  34
ATOM     34  O   UNL     1       6.127   3.291  14.057  0.00  0.00    +0.000 OA
ATOM     35  H   UNL     1       6.594   2.462  13.803  0.00  0.00    +0.000 HD
ENDBRANCH  32  34
ENDBRANCH  29  30
BRANCH  29  36
ATOM     36  C   UNL     1       7.438   5.137  17.932  0.00  0.00    +0.000 C 
ATOM     37  C   UNL     1       7.634   5.769  19.311  0.00  0.00    +0.000 C 
BRANCH  36  38
ATOM     38  O   UNL     1       8.362   4.048  17.793  0.00  0.00    +0.000 OA
ATOM     39  H   UNL     1       8.391   3.591  18.661  0.00  0.00    +0.000 HD
ENDBRANCH  36  38
ENDBRANCH  29  36
ENDBRANCH  27  29
ENDBRANCH   9  27
TORSDOF 11
ENDMDL
MODEL 2
REMARK VINA RESULT:      -9.3      1.223      1.337
REMARK  Name = 
REMARK  13 active torsions:
REMARK  status: ('A' for Active; 'I' for Inactive)
REMARK    1  A    between atoms: C_1  and  O_2
REMARK    2  A    between atoms: O_2  and  C_3
REMARK    3  A    between atoms: N_6  and  C_7
REMARK    4  A    between atoms: C_7  and  C_8
REMARK    5  A    between atoms: C_11  and  C_12
REMARK    6  A    between atoms: C_13  and  C_14
REMARK    7  A    between atoms: C_22  and  N_23
REMARK    8  A    between atoms: N_23  and  C_24
REMARK    9  A    between atoms: C_24  and  C_25
REMARK   10  A    between atoms: C_24  and  C_29
REMARK   11  A    between atoms: N_27  and  O_28
REMARK   12  A    between atoms: C_29  and  C_30
REMARK   13  A    between atoms: C_29  and  O_31
REMARK                            x       y       z     vdW  Elec       q    Type
REMARK                         _______ _______ _______ _____ _____    ______ ____
ROOT
ATOM      1  C   UNL     1       2.221   7.176  19.144  0.00  0.00    +0.000 A 
ATOM      2  C   UNL     1       3.260   7.404  18.229  0.00  0.00    +0.000 A 
ATOM      3  C   UNL     1       3.909   6.334  17.576  0.00  0.00    +0.000 A 
ATOM      4  C   UNL     1       3.516   5.029  17.849  0.00  0.00    +0.000 A 
ATOM      5  C   UNL     1       2.481   4.810  18.770  0.00  0.00    +0.000 A 
ATOM      6  C   UNL     1       1.833   5.863  19.424  0.00  0.00    +0.000 A 
ATOM      7  C   UNL     1       2.115   3.371  18.870  0.00  0.00    +0.000 C 
ATOM      8  C   UNL     1       3.132   2.682  17.942  0.00  0.00    +0.000 C 
ATOM      9  C   UNL     1       3.890   3.756  17.113  0.00  0.00    +0.000 C 
ENDROOT
BRANCH   1  11
ATOM     10  C   UNL     1       0.947   9.136  20.381  0.00  0.00    +0.000 C 
ATOM     11  C   UNL     1       1.538   8.268  19.784  0.00  0.00    +0.000 C 
BRANCH  10  15
ATOM     12  C   UNL     1      -1.363  11.888  22.634  0.00  0.00    +0.000 A 
ATOM     13  C   UNL     1      -0.721  12.302  21.458  0.00  0.00    +0.000 A 
ATOM     14  C   UNL     1       0.080  11.409  20.733  0.00  0.00    +0.000 A 
ATOM     15  C   UNL     1       0.281  10.106  21.198  0.00  0.00    +0.000 A 
ATOM     16  C   UNL     1      -0.262   9.725  22.424  0.00  0.00    +0.000 A 
ATOM     17  C   UNL     1      -1.081  10.608  23.136  0.00  0.00    +0.000 A 
BRANCH  12  18
ATOM     18  C   UNL     1      -2.405  12.771  23.307  0.00  0.00    +0.000 C 
BRANCH  18  22
ATOM     19  C   UNL     1      -6.633  13.129  22.418  0.00  0.00    +0.000 C 
ATOM     20  C   UNL     1      -6.186  12.572  23.767  0.00  0.00    +0.000 C 
ATOM     21  C   UNL     1      -4.720  12.902  24.054  0.00  0.00    +0.000 C 
ATOM     22  N   UNL     1      -3.810  12.371  23.023  0.00  0.00    +0.000 NA
ATOM     23  C   UNL     1      -4.202  12.846  21.682  0.00  0.00    +0.000 C 
ATOM     24  C   UNL     1      -5.679  12.617  21.339  0.00  0.00    +0.000 C 
BRANCH  19  26
ATOM     25  C   UNL     1      -7.571  15.207  21.643  0.00  0.00    +0.000 C 
ATOM     26  O   UNL     1      -6.676  14.557  22.535  0.00  0.00    +0.000 OA
ENDBRANCH  19  26
ENDBRANCH  18  22
ENDBRANCH  12  18
ENDBRANCH  10  15
ENDBRANCH   1  11
BRANCH   9  27
ATOM     27  N   UNL     1       5.348   3.508  16.949  0.00  0.00    +0.000 NA
ATOM     28  H   UNL     1       5.454   2.811  16.220  0.00  0.00    +0.000 HD
BRANCH  27  29
ATOM     29  C   UNL     1       6.124   4.750  16.581  0.00  0.00    +0.000 C 
BRANCH  29  30
ATOM     30  C   UNL     1       6.650   4.769  15.108  0.00  0.00    +0.000 C 
ATOM     31  O   UNL     1       6.169   4.040  14.228  0.00  0.00    +0.000 OA
ATOM     32  N   UNL     1       7.727   5.564  14.794  0.00  0.00    +0.000 N 
ATOM     33  H   UNL     1       8.469   5.715  15.462  0.00  0.00    +0.000 HD
BRANCH  32  34
ATOM     34  O   UNL     1       8.163   5.442  13.442  0.00  0.00    +0.000 OA
ATOM     35  H   UNL     1       7.872   6.291  13.038  0.00  0.00    +0.000 HD
ENDBRANCH  32  34
ENDBRANCH  29  30
BRANCH  29  36
ATOM     36  C   UNL     1       7.357   5.055  17.497  0.00  0.00    +0.000 C 
ATOM     37  C   UNL     1       7.029   5.435  18.942  0.00  0.00    +0.000 C 
BRANCH  36  38
ATOM     38  O   UNL     1       8.265   3.944  17.512  0.00  0.00    +0.000 OA
ATOM     39  H   UNL     1       9.149   4.306  17.736  0.00  0.00    +0.000 HD
ENDBRANCH  36  38
ENDBRANCH  29  36
ENDBRANCH  27  29
ENDBRANCH   9  27
TORSDOF 11
ENDMDL
MODEL 3
REMARK VINA RESULT:      -9.2      7.292      9.546
REMARK  Name = 
REMARK  13 active torsions:
REMARK  status: ('A' for Active; 'I' for Inactive)
REMARK    1  A    between atoms: C_1  and  O_2
REMARK    2  A    between atoms: O_2  and  C_3
REMARK    3  A    between atoms: N_6  and  C_7
REMARK    4  A    between atoms: C_7  and  C_8
REMARK    5  A    between atoms: C_11  and  C_12
REMARK    6  A    between atoms: C_13  and  C_14
REMARK    7  A    between atoms: C_22  and  N_23
REMARK    8  A    between atoms: N_23  and  C_24
REMARK    9  A    between atoms: C_24  and  C_25
REMARK   10  A    between atoms: C_24  and  C_29
REMARK   11  A    between atoms: N_27  and  O_28
REMARK   12  A    between atoms: C_29  and  C_30
REMARK   13  A    between atoms: C_29  and  O_31
REMARK                            x       y       z     vdW  Elec       q    Type
REMARK                         _______ _______ _______ _____ _____    ______ ____
ROOT
ATOM      1  C   UNL     1       7.729   7.296  18.109  0.00  0.00    +0.000 A 
ATOM      2  C   UNL     1       7.850   6.074  18.787  0.00  0.00    +0.000 A 
ATOM      3  C   UNL     1       7.141   4.929  18.365  0.00  0.00    +0.000 A 
ATOM      4  C   UNL     1       6.301   5.015  17.261  0.00  0.00    +0.000 A 
ATOM      5  C   UNL     1       6.181   6.242  16.593  0.00  0.00    +0.000 A 
ATOM      6  C   UNL     1       6.878   7.384  17.005  0.00  0.00    +0.000 A 
ATOM      7  C   UNL     1       5.328   6.138  15.378  0.00  0.00    +0.000 C 
ATOM      8  C   UNL     1       4.841   4.678  15.412  0.00  0.00    +0.000 C 
ATOM      9  C   UNL     1       5.635   3.890  16.491  0.00  0.00    +0.000 C 
ENDROOT
BRANCH   1  11
ATOM     10  C   UNL     1       9.047   9.470  18.838  0.00  0.00    +0.000 C 
ATOM     11  C   UNL     1       8.478   8.454  18.520  0.00  0.00    +0.000 C 
BRANCH  10  15
ATOM     12  C   UNL     1      10.332  13.339  20.009  0.00  0.00    +0.000 A 
ATOM     13  C   UNL     1      10.409  12.946  18.665  0.00  0.00    +0.000 A 
ATOM     14  C   UNL     1      10.027  11.654  18.279  0.00  0.00    +0.000 A 
ATOM     15  C   UNL     1       9.605  10.728  19.237  0.00  0.00    +0.000 A 
ATOM     16  C   UNL     1       9.635  11.077  20.587  0.00  0.00    +0.000 A 
ATOM     17  C   UNL     1       9.992  12.374  20.971  0.00  0.00    +0.000 A 
BRANCH  12  18
ATOM     18  C   UNL     1      10.528  14.794  20.409  0.00  0.00    +0.000 C 
BRANCH  18  22
ATOM     19  C   UNL     1       6.531  15.296  22.013  0.00  0.00    +0.000 C 
ATOM     20  C   UNL     1       6.809  15.634  20.551  0.00  0.00    +0.000 C 
ATOM     21  C   UNL     1       8.125  15.018  20.071  0.00  0.00    +0.000 C 
ATOM     22  N   UNL     1       9.282  15.468  20.867  0.00  0.00    +0.000 NA
ATOM     23  C   UNL     1       9.069  15.199  22.302  0.00  0.00    +0.000 C 
ATOM     24  C   UNL     1       7.736  15.724  22.850  0.00  0.00    +0.000 C 
BRANCH  19  26
ATOM     25  C   UNL     1       5.873  13.419  23.371  0.00  0.00    +0.000 C 
ATOM     26  O   UNL     1       6.236  13.895  22.082  0.00  0.00    +0.000 OA
ENDBRANCH  19  26
ENDBRANCH  18  22
ENDBRANCH  12  18
ENDBRANCH  10  15
ENDBRANCH   1  11
BRANCH   9  27
ATOM     27  N   UNL     1       4.822   2.943  17.301  0.00  0.00    +0.000 NA
ATOM     28  H   UNL     1       5.460   2.260  17.695  0.00  0.00    +0.000 HD
BRANCH  27  29
ATOM     29  C   UNL     1       4.054   3.620  18.411  0.00  0.00    +0.000 C 
BRANCH  29  30
ATOM     30  C   UNL     1       4.132   2.886  19.791  0.00  0.00    +0.000 C 
ATOM     31  O   UNL     1       3.334   3.127  20.709  0.00  0.00    +0.000 OA
ATOM     32  N   UNL     1       5.158   2.000  20.019  0.00  0.00    +0.000 N 
ATOM     33  H   UNL     1       6.074   2.159  19.623  0.00  0.00    +0.000 HD
BRANCH  32  34
ATOM     34  O   UNL     1       5.168   1.452  21.335  0.00  0.00    +0.000 OA
ATOM     35  H   UNL     1       4.242   1.140  21.451  0.00  0.00    +0.000 HD
ENDBRANCH  32  34
ENDBRANCH  29  30
BRANCH  29  36
ATOM     36  C   UNL     1       2.533   3.851  18.116  0.00  0.00    +0.000 C 
ATOM     37  C   UNL     1       2.105   5.311  17.960  0.00  0.00    +0.000 C 
BRANCH  36  38
ATOM     38  O   UNL     1       2.127   3.127  16.945  0.00  0.00    +0.000 OA
ATOM     39  H   UNL     1       2.756   3.371  16.232  0.00  0.00    +0.000 HD
ENDBRANCH  36  38
ENDBRANCH  29  36
ENDBRANCH  27  29
ENDBRANCH   9  27
TORSDOF 11
ENDMDL
MODEL 4
REMARK VINA RESULT:      -9.0      2.103      2.868
REMARK  Name = 
REMARK  13 active torsions:
REMARK  status: ('A' for Active; 'I' for Inactive)
REMARK    1  A    between atoms: C_1  and  O_2
REMARK    2  A    between atoms: O_2  and  C_3
REMARK    3  A    between atoms: N_6  and  C_7
REMARK    4  A    between atoms: C_7  and  C_8
REMARK    5  A    between atoms: C_11  and  C_12
REMARK    6  A    between atoms: C_13  and  C_14
REMARK    7  A    between atoms: C_22  and  N_23
REMARK    8  A    between atoms: N_23  and  C_24
REMARK    9  A    between atoms: C_24  and  C_25
REMARK   10  A    between atoms: C_24  and  C_29
REMARK   11  A    between atoms: N_27  and  O_28
REMARK   12  A    between atoms: C_29  and  C_30
REMARK   13  A    between atoms: C_29  and  O_31
REMARK                            x       y       z     vdW  Elec       q    Type
REMARK                         _______ _______ _______ _____ _____    ______ ____
ROOT
ATOM      1  C   UNL     1       2.453   6.818  19.375  0.00  0.00    +0.000 A 
ATOM      2  C   UNL     1       3.213   7.073  18.224  0.00  0.00    +0.000 A 
ATOM      3  C   UNL     1       3.819   6.023  17.499  0.00  0.00    +0.000 A 
ATOM      4  C   UNL     1       3.667   4.714  17.939  0.00  0.00    +0.000 A 
ATOM      5  C   UNL     1       2.910   4.469  19.094  0.00  0.00    +0.000 A 
ATOM      6  C   UNL     1       2.307   5.502  19.820  0.00  0.00    +0.000 A 
ATOM      7  C   UNL     1       2.759   3.014  19.367  0.00  0.00    +0.000 C 
ATOM      8  C   UNL     1       3.609   2.357  18.265  0.00  0.00    +0.000 C 
ATOM      9  C   UNL     1       4.014   3.427  17.213  0.00  0.00    +0.000 C 
ENDROOT
BRANCH   1  11
ATOM     10  C   UNL     1       1.199   8.758  20.663  0.00  0.00    +0.000 C 
ATOM     11  C   UNL     1       1.808   7.884  20.093  0.00  0.00    +0.000 C 
BRANCH  10  15
ATOM     12  C   UNL     1      -1.552  11.359  22.573  0.00  0.00    +0.000 A 
ATOM     13  C   UNL     1      -1.154  11.601  21.251  0.00  0.00    +0.000 A 
ATOM     14  C   UNL     1      -0.212  10.770  20.628  0.00  0.00    +0.000 A 
ATOM     15  C   UNL     1       0.373   9.716  21.335  0.00  0.00    +0.000 A 
ATOM     16  C   UNL     1       0.067   9.542  22.684  0.00  0.00    +0.000 A 
ATOM     17  C   UNL     1      -0.892  10.355  23.299  0.00  0.00    +0.000 A 
BRANCH  12  18
ATOM     18  C   UNL     1      -2.728  12.109  23.184  0.00  0.00    +0.000 C 
BRANCH  18  22
ATOM     19  C   UNL     1      -1.912  16.091  24.693  0.00  0.00    +0.000 C 
ATOM     20  C   UNL     1      -3.325  15.724  24.247  0.00  0.00    +0.000 C 
ATOM     21  C   UNL     1      -3.507  14.208  24.146  0.00  0.00    +0.000 C 
ATOM     22  N   UNL     1      -2.560  13.588  23.201  0.00  0.00    +0.000 NA
ATOM     23  C   UNL     1      -1.168  13.926  23.555  0.00  0.00    +0.000 C 
ATOM     24  C   UNL     1      -0.913  15.426  23.745  0.00  0.00    +0.000 C 
BRANCH  19  26
ATOM     25  C   UNL     1      -0.587  16.134  26.703  0.00  0.00    +0.000 C 
ATOM     26  O   UNL     1      -1.775  15.691  26.063  0.00  0.00    +0.000 OA
ENDBRANCH  19  26
ENDBRANCH  18  22
ENDBRANCH  12  18
ENDBRANCH  10  15
ENDBRANCH   1  11
BRANCH   9  27
ATOM     27  N   UNL     1       5.412   3.321  16.716  0.00  0.00    +0.000 NA
ATOM     28  H   UNL     1       5.395   2.724  15.896  0.00  0.00    +0.000 HD
BRANCH  27  29
ATOM     29  C   UNL     1       6.018   4.657  16.361  0.00  0.00    +0.000 C 
BRANCH  29  30
ATOM     30  C   UNL     1       6.397   4.813  14.850  0.00  0.00    +0.000 C 
ATOM     31  O   UNL     1       5.699   4.333  13.945  0.00  0.00    +0.000 OA
ATOM     32  N   UNL     1       7.576   5.436  14.519  0.00  0.00    +0.000 N 
ATOM     33  H   UNL     1       8.394   5.340  15.105  0.00  0.00    +0.000 HD
BRANCH  32  34
ATOM     34  O   UNL     1       7.851   5.451  13.120  0.00  0.00    +0.000 OA
ATOM     35  H   UNL     1       8.724   5.001  13.061  0.00  0.00    +0.000 HD
ENDBRANCH  32  34
ENDBRANCH  29  30
BRANCH  29  36
ATOM     36  C   UNL     1       7.296   5.043  17.181  0.00  0.00    +0.000 C 
ATOM     37  C   UNL     1       7.343   6.483  17.693  0.00  0.00    +0.000 C 
BRANCH  36  38
ATOM     38  O   UNL     1       7.471   4.156  18.295  0.00  0.00    +0.000 OA
ATOM     39  H   UNL     1       7.308   3.247  17.960  0.00  0.00    +0.000 HD
ENDBRANCH  36  38
ENDBRANCH  29  36
ENDBRANCH  27  29
ENDBRANCH   9  27
TORSDOF 11
ENDMDL
MODEL 5
REMARK VINA RESULT:      -8.9      1.271      1.586
REMARK  Name = 
REMARK  13 active torsions:
REMARK  status: ('A' for Active; 'I' for Inactive)
REMARK    1  A    between atoms: C_1  and  O_2
REMARK    2  A    between atoms: O_2  and  C_3
REMARK    3  A    between atoms: N_6  and  C_7
REMARK    4  A    between atoms: C_7  and  C_8
REMARK    5  A    between atoms: C_11  and  C_12
REMARK    6  A    between atoms: C_13  and  C_14
REMARK    7  A    between atoms: C_22  and  N_23
REMARK    8  A    between atoms: N_23  and  C_24
REMARK    9  A    between atoms: C_24  and  C_25
REMARK   10  A    between atoms: C_24  and  C_29
REMARK   11  A    between atoms: N_27  and  O_28
REMARK   12  A    between atoms: C_29  and  C_30
REMARK   13  A    between atoms: C_29  and  O_31
REMARK                            x       y       z     vdW  Elec       q    Type
REMARK                         _______ _______ _______ _____ _____    ______ ____
ROOT
ATOM      1  C   UNL     1       2.220   6.824  19.716  0.00  0.00    +0.000 A 
ATOM      2  C   UNL     1       2.770   7.023  18.441  0.00  0.00    +0.000 A 
ATOM      3  C   UNL     1       3.487   5.999  17.785  0.00  0.00    +0.000 A 
ATOM      4  C   UNL     1       3.659   4.773  18.417  0.00  0.00    +0.000 A 
ATOM      5  C   UNL     1       3.111   4.585  19.694  0.00  0.00    +0.000 A 
ATOM      6  C   UNL     1       2.400   5.594  20.354  0.00  0.00    +0.000 A 
ATOM      7  C   UNL     1       3.294   3.191  20.183  0.00  0.00    +0.000 C 
ATOM      8  C   UNL     1       4.122   2.531  19.066  0.00  0.00    +0.000 C 
ATOM      9  C   UNL     1       4.172   3.471  17.830  0.00  0.00    +0.000 C 
ENDROOT
BRANCH   1  11
ATOM     10  C   UNL     1       0.819   8.759  20.851  0.00  0.00    +0.000 C 
ATOM     11  C   UNL     1       1.461   7.856  20.370  0.00  0.00    +0.000 C 
BRANCH  10  15
ATOM     12  C   UNL     1      -1.267  12.164  22.279  0.00  0.00    +0.000 A 
ATOM     13  C   UNL     1      -1.061  11.059  23.117  0.00  0.00    +0.000 A 
ATOM     14  C   UNL     1      -0.411   9.914  22.638  0.00  0.00    +0.000 A 
ATOM     15  C   UNL     1       0.002   9.844  21.305  0.00  0.00    +0.000 A 
ATOM     16  C   UNL     1      -0.301  10.894  20.438  0.00  0.00    +0.000 A 
ATOM     17  C   UNL     1      -0.928  12.048  20.922  0.00  0.00    +0.000 A 
BRANCH  12  18
ATOM     18  C   UNL     1      -1.766  13.488  22.841  0.00  0.00    +0.000 C 
BRANCH  18  22
ATOM     19  C   UNL     1      -5.974  14.534  22.852  0.00  0.00    +0.000 C 
ATOM     20  C   UNL     1      -5.108  14.861  24.066  0.00  0.00    +0.000 C 
ATOM     21  C   UNL     1      -3.617  14.803  23.725  0.00  0.00    +0.000 C 
ATOM     22  N   UNL     1      -3.205  13.480  23.220  0.00  0.00    +0.000 NA
ATOM     23  C   UNL     1      -4.024  13.083  22.058  0.00  0.00    +0.000 C 
ATOM     24  C   UNL     1      -5.537  13.181  22.292  0.00  0.00    +0.000 C 
BRANCH  19  26
ATOM     25  C   UNL     1      -6.450  16.839  22.340  0.00  0.00    +0.000 C 
ATOM     26  O   UNL     1      -5.845  15.621  21.926  0.00  0.00    +0.000 OA
ENDBRANCH  19  26
ENDBRANCH  18  22
ENDBRANCH  12  18
ENDBRANCH  10  15
ENDBRANCH   1  11
BRANCH   9  27
ATOM     27  N   UNL     1       5.494   3.545  17.150  0.00  0.00    +0.000 NA
ATOM     28  H   UNL     1       5.373   3.167  16.217  0.00  0.00    +0.000 HD
BRANCH  27  29
ATOM     29  C   UNL     1       6.039   4.950  17.063  0.00  0.00    +0.000 C 
BRANCH  29  30
ATOM     30  C   UNL     1       6.347   5.434  15.607  0.00  0.00    +0.000 C 
ATOM     31  O   UNL     1       5.476   5.943  14.885  0.00  0.00    +0.000 OA
ATOM     32  N   UNL     1       7.600   5.223  15.084  0.00  0.00    +0.000 N 
ATOM     33  H   UNL     1       8.128   4.396  15.327  0.00  0.00    +0.000 HD
BRANCH  32  34
ATOM     34  O   UNL     1       7.740   5.636  13.727  0.00  0.00    +0.000 OA
ATOM     35  H   UNL     1       6.930   6.175  13.576  0.00  0.00    +0.000 HD
ENDBRANCH  32  34
ENDBRANCH  29  30
BRANCH  29  36
ATOM     36  C   UNL     1       7.337   5.209  17.900  0.00  0.00    +0.000 C 
ATOM     37  C   UNL     1       7.114   5.592  19.364  0.00  0.00    +0.000 C 
BRANCH  36  38
ATOM     38  O   UNL     1       8.207   4.069  17.853  0.00  0.00    +0.000 OA
ATOM     39  H   UNL     1       9.080   4.394  17.545  0.00  0.00    +0.000 HD
ENDBRANCH  36  38
ENDBRANCH  29  36
ENDBRANCH  27  29
ENDBRANCH   9  27
TORSDOF 11
ENDMDL
MODEL 6
REMARK VINA RESULT:      -8.9      7.486      9.957
REMARK  Name = 
REMARK  13 active torsions:
REMARK  status: ('A' for Active; 'I' for Inactive)
REMARK    1  A    between atoms: C_1  and  O_2
REMARK    2  A    between atoms: O_2  and  C_3
REMARK    3  A    between atoms: N_6  and  C_7
REMARK    4  A    between atoms: C_7  and  C_8
REMARK    5  A    between atoms: C_11  and  C_12
REMARK    6  A    between atoms: C_13  and  C_14
REMARK    7  A    between atoms: C_22  and  N_23
REMARK    8  A    between atoms: N_23  and  C_24
REMARK    9  A    between atoms: C_24  and  C_25
REMARK   10  A    between atoms: C_24  and  C_29
REMARK   11  A    between atoms: N_27  and  O_28
REMARK   12  A    between atoms: C_29  and  C_30
REMARK   13  A    between atoms: C_29  and  O_31
REMARK                            x       y       z     vdW  Elec       q    Type
REMARK                         _______ _______ _______ _____ _____    ______ ____
ROOT
ATOM      1  C   UNL     1       7.771   7.460  18.115  0.00  0.00    +0.000 A 
ATOM      2  C   UNL     1       7.776   6.320  18.932  0.00  0.00    +0.000 A 
ATOM      3  C   UNL     1       7.060   5.158  18.572  0.00  0.00    +0.000 A 
ATOM      4  C   UNL     1       6.329   5.145  17.390  0.00  0.00    +0.000 A 
ATOM      5  C   UNL     1       6.325   6.292  16.582  0.00  0.00    +0.000 A 
ATOM      6  C   UNL     1       7.030   7.449  16.931  0.00  0.00    +0.000 A 
ATOM      7  C   UNL     1       5.584   6.077  15.310  0.00  0.00    +0.000 C 
ATOM      8  C   UNL     1       5.033   4.648  15.457  0.00  0.00    +0.000 C 
ATOM      9  C   UNL     1       5.689   3.962  16.688  0.00  0.00    +0.000 C 
ENDROOT
BRANCH   1  11
ATOM     10  C   UNL     1       9.126   9.654  18.702  0.00  0.00    +0.000 C 
ATOM     11  C   UNL     1       8.528   8.632  18.465  0.00  0.00    +0.000 C 
BRANCH  10  15
ATOM     12  C   UNL     1      10.555  13.560  19.535  0.00  0.00    +0.000 A 
ATOM     13  C   UNL     1      10.208  13.199  18.225  0.00  0.00    +0.000 A 
ATOM     14  C   UNL     1       9.777  11.897  17.936  0.00  0.00    +0.000 A 
ATOM     15  C   UNL     1       9.729  10.931  18.945  0.00  0.00    +0.000 A 
ATOM     16  C   UNL     1      10.180  11.253  20.224  0.00  0.00    +0.000 A 
ATOM     17  C   UNL     1      10.587  12.559  20.519  0.00  0.00    +0.000 A 
BRANCH  12  18
ATOM     18  C   UNL     1      10.808  15.015  19.903  0.00  0.00    +0.000 C 
BRANCH  18  22
ATOM     19  C   UNL     1       6.825  16.366  18.850  0.00  0.00    +0.000 C 
ATOM     20  C   UNL     1       8.044  17.155  18.377  0.00  0.00    +0.000 C 
ATOM     21  C   UNL     1       9.325  16.327  18.483  0.00  0.00    +0.000 C 
ATOM     22  N   UNL     1       9.590  15.870  19.860  0.00  0.00    +0.000 NA
ATOM     23  C   UNL     1       8.437  15.120  20.394  0.00  0.00    +0.000 C 
ATOM     24  C   UNL     1       7.095  15.852  20.264  0.00  0.00    +0.000 C 
BRANCH  19  26
ATOM     25  C   UNL     1       5.280  14.766  17.928  0.00  0.00    +0.000 C 
ATOM     26  O   UNL     1       6.582  15.333  17.886  0.00  0.00    +0.000 OA
ENDBRANCH  19  26
ENDBRANCH  18  22
ENDBRANCH  12  18
ENDBRANCH  10  15
ENDBRANCH   1  11
BRANCH   9  27
ATOM     27  N   UNL     1       4.764   3.141  17.516  0.00  0.00    +0.000 NA
ATOM     28  H   UNL     1       5.206   3.011  18.419  0.00  0.00    +0.000 HD
BRANCH  27  29
ATOM     29  C   UNL     1       3.408   3.778  17.700  0.00  0.00    +0.000 C 
BRANCH  29  30
ATOM     30  C   UNL     1       3.300   4.718  18.946  0.00  0.00    +0.000 C 
ATOM     31  O   UNL     1       3.905   4.480  20.002  0.00  0.00    +0.000 OA
ATOM     32  N   UNL     1       2.455   5.800  18.896  0.00  0.00    +0.000 N 
ATOM     33  H   UNL     1       1.585   5.751  18.383  0.00  0.00    +0.000 HD
BRANCH  32  34
ATOM     34  O   UNL     1       2.383   6.537  20.114  0.00  0.00    +0.000 OA
ATOM     35  H   UNL     1       1.563   6.190  20.534  0.00  0.00    +0.000 HD
ENDBRANCH  32  34
ENDBRANCH  29  30
BRANCH  29  36
ATOM     36  C   UNL     1       2.213   2.771  17.799  0.00  0.00    +0.000 C 
ATOM     37  C   UNL     1       2.246   1.821  18.997  0.00  0.00    +0.000 C 
BRANCH  36  38
ATOM     38  O   UNL     1       0.959   3.470  17.804  0.00  0.00    +0.000 OA
ATOM     39  H   UNL     1       0.266   2.804  18.003  0.00  0.00    +0.000 HD
ENDBRANCH  36  38
ENDBRANCH  29  36
ENDBRANCH  27  29
ENDBRANCH   9  27
TORSDOF 11
ENDMDL
MODEL 7
REMARK VINA RESULT:      -8.9      1.558      2.225
REMARK  Name = 
REMARK  13 active torsions:
REMARK  status: ('A' for Active; 'I' for Inactive)
REMARK    1  A    between atoms: C_1  and  O_2
REMARK    2  A    between atoms: O_2  and  C_3
REMARK    3  A    between atoms: N_6  and  C_7
REMARK    4  A    between atoms: C_7  and  C_8
REMARK    5  A    between atoms: C_11  and  C_12
REMARK    6  A    between atoms: C_13  and  C_14
REMARK    7  A    between atoms: C_22  and  N_23
REMARK    8  A    between atoms: N_23  and  C_24
REMARK    9  A    between atoms: C_24  and  C_25
REMARK   10  A    between atoms: C_24  and  C_29
REMARK   11  A    between atoms: N_27  and  O_28
REMARK   12  A    between atoms: C_29  and  C_30
REMARK   13  A    between atoms: C_29  and  O_31
REMARK                            x       y       z     vdW  Elec       q    Type
REMARK                         _______ _______ _______ _____ _____    ______ ____
ROOT
ATOM      1  C   UNL     1       2.361   7.125  19.350  0.00  0.00    +0.000 A 
ATOM      2  C   UNL     1       3.174   7.293  18.219  0.00  0.00    +0.000 A 
ATOM      3  C   UNL     1       3.812   6.193  17.607  0.00  0.00    +0.000 A 
ATOM      4  C   UNL     1       3.639   4.920  18.138  0.00  0.00    +0.000 A 
ATOM      5  C   UNL     1       2.829   4.763  19.273  0.00  0.00    +0.000 A 
ATOM      6  C   UNL     1       2.193   5.847  19.889  0.00  0.00    +0.000 A 
ATOM      7  C   UNL     1       2.665   3.333  19.650  0.00  0.00    +0.000 C 
ATOM      8  C   UNL     1       3.564   2.596  18.642  0.00  0.00    +0.000 C 
ATOM      9  C   UNL     1       4.018   3.582  17.531  0.00  0.00    +0.000 C 
ENDROOT
BRANCH   1  11
ATOM     10  C   UNL     1       1.048   9.139  20.452  0.00  0.00    +0.000 C 
ATOM     11  C   UNL     1       1.684   8.242  19.953  0.00  0.00    +0.000 C 
BRANCH  10  15
ATOM     12  C   UNL     1      -1.097  12.172  22.498  0.00  0.00    +0.000 A 
ATOM     13  C   UNL     1      -1.002  10.884  23.044  0.00  0.00    +0.000 A 
ATOM     14  C   UNL     1      -0.332   9.866  22.352  0.00  0.00    +0.000 A 
ATOM     15  C   UNL     1       0.212  10.113  21.089  0.00  0.00    +0.000 A 
ATOM     16  C   UNL     1       0.022  11.359  20.492  0.00  0.00    +0.000 A 
ATOM     17  C   UNL     1      -0.625  12.384  21.193  0.00  0.00    +0.000 A 
BRANCH  12  18
ATOM     18  C   UNL     1      -1.622  13.336  23.329  0.00  0.00    +0.000 C 
BRANCH  18  22
ATOM     19  C   UNL     1      -5.230  13.793  20.969  0.00  0.00    +0.000 C 
ATOM     20  C   UNL     1      -4.296  14.984  21.165  0.00  0.00    +0.000 C 
ATOM     21  C   UNL     1      -2.915  14.542  21.652  0.00  0.00    +0.000 C 
ATOM     22  N   UNL     1      -2.977  13.802  22.927  0.00  0.00    +0.000 NA
ATOM     23  C   UNL     1      -3.889  12.648  22.820  0.00  0.00    +0.000 C 
ATOM     24  C   UNL     1      -5.279  12.993  22.271  0.00  0.00    +0.000 C 
BRANCH  19  26
ATOM     25  C   UNL     1      -5.614  12.018  19.388  0.00  0.00    +0.000 C 
ATOM     26  O   UNL     1      -4.750  13.050  19.841  0.00  0.00    +0.000 OA
ENDBRANCH  19  26
ENDBRANCH  18  22
ENDBRANCH  12  18
ENDBRANCH  10  15
ENDBRANCH   1  11
BRANCH   9  27
ATOM     27  N   UNL     1       5.439   3.443  17.109  0.00  0.00    +0.000 NA
ATOM     28  H   UNL     1       5.452   2.837  16.296  0.00  0.00    +0.000 HD
BRANCH  27  29
ATOM     29  C   UNL     1       6.090   4.763  16.772  0.00  0.00    +0.000 C 
BRANCH  29  30
ATOM     30  C   UNL     1       6.523   4.904  15.275  0.00  0.00    +0.000 C 
ATOM     31  O   UNL     1       5.897   4.357  14.355  0.00  0.00    +0.000 OA
ATOM     32  N   UNL     1       7.673   5.595  14.975  0.00  0.00    +0.000 N 
ATOM     33  H   UNL     1       8.469   5.567  15.598  0.00  0.00    +0.000 HD
BRANCH  32  34
ATOM     34  O   UNL     1       8.007   5.593  13.589  0.00  0.00    +0.000 OA
ATOM     35  H   UNL     1       8.959   5.345  13.592  0.00  0.00    +0.000 HD
ENDBRANCH  32  34
ENDBRANCH  29  30
BRANCH  29  36
ATOM     36  C   UNL     1       7.348   5.118  17.634  0.00  0.00    +0.000 C 
ATOM     37  C   UNL     1       7.063   5.558  19.071  0.00  0.00    +0.000 C 
BRANCH  36  38
ATOM     38  O   UNL     1       8.268   4.017  17.667  0.00  0.00    +0.000 OA
ATOM     39  H   UNL     1       7.973   3.425  18.393  0.00  0.00    +0.000 HD
ENDBRANCH  36  38
ENDBRANCH  29  36
ENDBRANCH  27  29
ENDBRANCH   9  27
TORSDOF 11
ENDMDL
MODEL 8
REMARK VINA RESULT:      -8.8      1.528      1.800
REMARK  Name = 
REMARK  13 active torsions:
REMARK  status: ('A' for Active; 'I' for Inactive)
REMARK    1  A    between atoms: C_1  and  O_2
REMARK    2  A    between atoms: O_2  and  C_3
REMARK    3  A    between atoms: N_6  and  C_7
REMARK    4  A    between atoms: C_7  and  C_8
REMARK    5  A    between atoms: C_11  and  C_12
REMARK    6  A    between atoms: C_13  and  C_14
REMARK    7  A    between atoms: C_22  and  N_23
REMARK    8  A    between atoms: N_23  and  C_24
REMARK    9  A    between atoms: C_24  and  C_25
REMARK   10  A    between atoms: C_24  and  C_29
REMARK   11  A    between atoms: N_27  and  O_28
REMARK   12  A    between atoms: C_29  and  C_30
REMARK   13  A    between atoms: C_29  and  O_31
REMARK                            x       y       z     vdW  Elec       q    Type
REMARK                         _______ _______ _______ _____ _____    ______ ____
ROOT
ATOM      1  C   UNL     1       2.233   6.868  19.304  0.00  0.00    +0.000 A 
ATOM      2  C   UNL     1       3.277   7.197  18.427  0.00  0.00    +0.000 A 
ATOM      3  C   UNL     1       3.961   6.201  17.696  0.00  0.00    +0.000 A 
ATOM      4  C   UNL     1       3.598   4.868  17.855  0.00  0.00    +0.000 A 
ATOM      5  C   UNL     1       2.557   4.549  18.739  0.00  0.00    +0.000 A 
ATOM      6  C   UNL     1       1.875   5.528  19.469  0.00  0.00    +0.000 A 
ATOM      7  C   UNL     1       2.226   3.098  18.713  0.00  0.00    +0.000 C 
ATOM      8  C   UNL     1       3.271   2.514  17.746  0.00  0.00    +0.000 C 
ATOM      9  C   UNL     1       4.012   3.670  17.020  0.00  0.00    +0.000 C 
ENDROOT
BRANCH   1  11
ATOM     10  C   UNL     1       0.981   8.764  20.658  0.00  0.00    +0.000 C 
ATOM     11  C   UNL     1       1.515   7.887  20.023  0.00  0.00    +0.000 C 
BRANCH  10  15
ATOM     12  C   UNL     1      -0.900  12.004  22.647  0.00  0.00    +0.000 A 
ATOM     13  C   UNL     1      -0.023  12.244  21.579  0.00  0.00    +0.000 A 
ATOM     14  C   UNL     1       0.636  11.180  20.946  0.00  0.00    +0.000 A 
ATOM     15  C   UNL     1       0.457   9.871  21.402  0.00  0.00    +0.000 A 
ATOM     16  C   UNL     1      -0.323   9.639  22.534  0.00  0.00    +0.000 A 
ATOM     17  C   UNL     1      -1.001  10.697  23.150  0.00  0.00    +0.000 A 
BRANCH  12  18
ATOM     18  C   UNL     1      -1.786  13.114  23.194  0.00  0.00    +0.000 C 
BRANCH  18  22
ATOM     19  C   UNL     1      -5.678  13.895  21.451  0.00  0.00    +0.000 C 
ATOM     20  C   UNL     1      -4.719  12.929  20.761  0.00  0.00    +0.000 C 
ATOM     21  C   UNL     1      -3.606  12.471  21.706  0.00  0.00    +0.000 C 
ATOM     22  N   UNL     1      -2.812  13.599  22.230  0.00  0.00    +0.000 NA
ATOM     23  C   UNL     1      -3.682  14.592  22.888  0.00  0.00    +0.000 C 
ATOM     24  C   UNL     1      -4.869  15.054  22.033  0.00  0.00    +0.000 C 
BRANCH  19  26
ATOM     25  C   UNL     1      -7.523  12.418  21.914  0.00  0.00    +0.000 C 
ATOM     26  O   UNL     1      -6.416  13.147  22.426  0.00  0.00    +0.000 OA
ENDBRANCH  19  26
ENDBRANCH  18  22
ENDBRANCH  12  18
ENDBRANCH  10  15
ENDBRANCH   1  11
BRANCH   9  27
ATOM     27  N   UNL     1       5.478   3.472  16.857  0.00  0.00    +0.000 NA
ATOM     28  H   UNL     1       5.606   2.667  16.254  0.00  0.00    +0.000 HD
BRANCH  27  29
ATOM     29  C   UNL     1       6.177   4.670  16.262  0.00  0.00    +0.000 C 
BRANCH  29  30
ATOM     30  C   UNL     1       6.586   4.499  14.761  0.00  0.00    +0.000 C 
ATOM     31  O   UNL     1       7.233   5.365  14.154  0.00  0.00    +0.000 OA
ATOM     32  N   UNL     1       6.155   3.390  14.074  0.00  0.00    +0.000 N 
ATOM     33  H   UNL     1       5.251   2.982  14.267  0.00  0.00    +0.000 HD
BRANCH  32  34
ATOM     34  O   UNL     1       6.526   3.380  12.697  0.00  0.00    +0.000 OA
ATOM     35  H   UNL     1       6.898   2.477  12.576  0.00  0.00    +0.000 HD
ENDBRANCH  32  34
ENDBRANCH  29  30
BRANCH  29  36
ATOM     36  C   UNL     1       7.465   5.130  17.024  0.00  0.00    +0.000 C 
ATOM     37  C   UNL     1       7.426   6.549  17.594  0.00  0.00    +0.000 C 
BRANCH  36  38
ATOM     38  O   UNL     1       7.778   4.219  18.088  0.00  0.00    +0.000 OA
ATOM     39  H   UNL     1       7.389   4.597  18.906  0.00  0.00    +0.000 HD
ENDBRANCH  36  38
ENDBRANCH  29  36
ENDBRANCH  27  29
ENDBRANCH   9  27
TORSDOF 11
ENDMDL
MODEL 9
REMARK VINA RESULT:      -8.8      7.586     12.015
REMARK  Name = 
REMARK  13 active torsions:
REMARK  status: ('A' for Active; 'I' for Inactive)
REMARK    1  A    between atoms: C_1  and  O_2
REMARK    2  A    between atoms: O_2  and  C_3
REMARK    3  A    between atoms: N_6  and  C_7
REMARK    4  A    between atoms: C_7  and  C_8
REMARK    5  A    between atoms: C_11  and  C_12
REMARK    6  A    between atoms: C_13  and  C_14
REMARK    7  A    between atoms: C_22  and  N_23
REMARK    8  A    between atoms: N_23  and  C_24
REMARK    9  A    between atoms: C_24  and  C_25
REMARK   10  A    between atoms: C_24  and  C_29
REMARK   11  A    between atoms: N_27  and  O_28
REMARK   12  A    between atoms: C_29  and  C_30
REMARK   13  A    between atoms: C_29  and  O_31
REMARK                            x       y       z     vdW  Elec       q    Type
REMARK                         _______ _______ _______ _____ _____    ______ ____
ROOT
ATOM      1  C   UNL     1       9.057  10.518  18.295  0.00  0.00    +0.000 A 
ATOM      2  C   UNL     1       8.415  11.671  17.820  0.00  0.00    +0.000 A 
ATOM      3  C   UNL     1       9.002  12.947  17.962  0.00  0.00    +0.000 A 
ATOM      4  C   UNL     1      10.237  13.065  18.589  0.00  0.00    +0.000 A 
ATOM      5  C   UNL     1      10.869  11.907  19.066  0.00  0.00    +0.000 A 
ATOM      6  C   UNL     1      10.294  10.638  18.933  0.00  0.00    +0.000 A 
ATOM      7  C   UNL     1      12.222  12.193  19.615  0.00  0.00    +0.000 C 
ATOM      8  C   UNL     1      12.332  13.724  19.504  0.00  0.00    +0.000 C 
ATOM      9  C   UNL     1      11.158  14.269  18.645  0.00  0.00    +0.000 C 
ENDROOT
BRANCH   1  11
ATOM     10  C   UNL     1       7.925   8.155  17.936  0.00  0.00    +0.000 C 
ATOM     11  C   UNL     1       8.473   9.215  18.121  0.00  0.00    +0.000 C 
BRANCH  10  15
ATOM     12  C   UNL     1       5.601   4.677  17.231  0.00  0.00    +0.000 A 
ATOM     13  C   UNL     1       6.725   4.618  18.068  0.00  0.00    +0.000 A 
ATOM     14  C   UNL     1       7.523   5.753  18.270  0.00  0.00    +0.000 A 
ATOM     15  C   UNL     1       7.229   6.947  17.605  0.00  0.00    +0.000 A 
ATOM     16  C   UNL     1       6.182   6.980  16.685  0.00  0.00    +0.000 A 
ATOM     17  C   UNL     1       5.371   5.854  16.502  0.00  0.00    +0.000 A 
BRANCH  12  18
ATOM     18  C   UNL     1       4.606   3.527  17.178  0.00  0.00    +0.000 C 
BRANCH  18  22
ATOM     19  C   UNL     1       1.121   3.440  19.756  0.00  0.00    +0.000 C 
ATOM     20  C   UNL     1       1.007   2.965  18.310  0.00  0.00    +0.000 C 
ATOM     21  C   UNL     1       2.381   2.682  17.700  0.00  0.00    +0.000 C 
ATOM     22  N   UNL     1       3.261   3.865  17.718  0.00  0.00    +0.000 NA
ATOM     23  C   UNL     1       3.395   4.399  19.087  0.00  0.00    +0.000 C 
ATOM     24  C   UNL     1       2.059   4.646  19.800  0.00  0.00    +0.000 C 
BRANCH  19  26
ATOM     25  C   UNL     1       1.999   2.649  21.854  0.00  0.00    +0.000 C 
ATOM     26  O   UNL     1       1.562   2.325  20.542  0.00  0.00    +0.000 OA
ENDBRANCH  19  26
ENDBRANCH  18  22
ENDBRANCH  12  18
ENDBRANCH  10  15
ENDBRANCH   1  11
BRANCH   9  27
ATOM     27  N   UNL     1      10.545  15.529  19.147  0.00  0.00    +0.000 NA
ATOM     28  H   UNL     1       9.930  15.875  18.418  0.00  0.00    +0.000 HD
BRANCH  27  29
ATOM     29  C   UNL     1       9.765  15.341  20.425  0.00  0.00    +0.000 C 
BRANCH  29  30
ATOM     30  C   UNL     1       8.369  16.050  20.439  0.00  0.00    +0.000 C 
ATOM     31  O   UNL     1       8.257  17.276  20.581  0.00  0.00    +0.000 OA
ATOM     32  N   UNL     1       7.231  15.284  20.364  0.00  0.00    +0.000 N 
ATOM     33  H   UNL     1       7.195  14.370  20.795  0.00  0.00    +0.000 HD
BRANCH  32  34
ATOM     34  O   UNL     1       6.021  16.031  20.462  0.00  0.00    +0.000 OA
ATOM     35  H   UNL     1       5.484  15.679  19.716  0.00  0.00    +0.000 HD
ENDBRANCH  32  34
ENDBRANCH  29  30
BRANCH  29  36
ATOM     36  C   UNL     1      10.507  15.798  21.726  0.00  0.00    +0.000 C 
ATOM     37  C   UNL     1      11.546  16.905  21.540  0.00  0.00    +0.000 C 
BRANCH  36  38
ATOM     38  O   UNL     1       9.567  16.217  22.727  0.00  0.00    +0.000 OA
ATOM     39  H   UNL     1       8.692  15.868  22.453  0.00  0.00    +0.000 HD
ENDBRANCH  36  38
ENDBRANCH  29  36
ENDBRANCH  27  29
ENDBRANCH   9  27
TORSDOF 11
ENDMDL
