MODEL 1
REMARK VINA RESULT:      -9.0      0.000      0.000
REMARK  Name = 
REMARK  5 active torsions:
REMARK  status: ('A' for Active; 'I' for Inactive)
REMARK    1  A    between atoms: C_1  and  C_2
REMARK    2  A    between atoms: C_5  and  N_6
REMARK    3  A    between atoms: N_6  and  C_7
REMARK    4  A    between atoms: C_7  and  C_8
REMARK    5  A    between atoms: C_12  and  C_13
REMARK                            x       y       z     vdW  Elec       q    Type
REMARK                         _______ _______ _______ _____ _____    ______ ____
ROOT
ATOM      1  C   UNL     1       2.637   7.252  19.027  0.00  0.00    +0.000 A 
ATOM      2  N   UNL     1       3.127   7.896  17.982  0.00  0.00    +0.000 NA
ATOM      3  N   UNL     1       3.907   7.037  17.269  0.00  0.00    +0.000 NA
ATOM      4  C   UNL     1       3.913   5.890  17.907  0.00  0.00    +0.000 A 
ATOM      5  C   UNL     1       4.598   4.684  17.532  0.00  0.00    +0.000 A 
ATOM      6  N   UNL     1       4.437   3.602  18.244  0.00  0.00    +0.000 NA
ATOM      7  C   UNL     1       3.623   3.652  19.400  0.00  0.00    +0.000 A 
ATOM      8  C   UNL     1       3.502   2.478  20.149  0.00  0.00    +0.000 A 
ATOM      9  C   UNL     1       2.721   2.448  21.304  0.00  0.00    +0.000 A 
ATOM     10  C   UNL     1       2.058   3.599  21.725  0.00  0.00    +0.000 A 
ATOM     11  C   UNL     1       2.173   4.790  21.000  0.00  0.00    +0.000 A 
ATOM     12  C   UNL     1       2.944   4.814  19.836  0.00  0.00    +0.000 A 
ATOM     13  N   UNL     1       3.113   5.954  19.022  0.00  0.00    +0.000 N 
ENDROOT
BRANCH   5  14
ATOM     14  C   UNL     1       5.466   4.656  16.320  0.00  0.00    +0.000 A 
ATOM     15  C   UNL     1       6.781   5.141  16.354  0.00  0.00    +0.000 A 
ATOM     16  C   UNL     1       7.557   5.158  15.195  0.00  0.00    +0.000 A 
ATOM     17  C   UNL     1       7.030   4.675  13.999  0.00  0.00    +0.000 A 
ATOM     18  C   UNL     1       5.735   4.159  13.963  0.00  0.00    +0.000 A 
ATOM     19  C   UNL     1       4.954   4.144  15.124  0.00  0.00    +0.000 A 
ENDBRANCH   5  14
BRANCH   1  20
ATOM     20  C   UNL     1       1.720   7.888  20.006  0.00  0.00    +0.000 C 
BRANCH  20  21
ATOM     21  N   UNL     1       1.219   9.195  19.580  0.00  0.00    +0.000 N 
ATOM     22  H   UNL     1       0.748   9.133  18.677  0.00  0.00    +0.000 HD
BRANCH  21  27
ATOM     23  C   UNL     1      -2.115  11.969  23.331  0.00  0.00    +0.000 C 
ATOM     24  C   UNL     1      -1.230  11.269  22.345  0.00  0.00    +0.000 A 
ATOM     25  C   UNL     1      -1.149  11.708  21.022  0.00  0.00    +0.000 A 
ATOM     26  C   UNL     1      -0.334  11.042  20.101  0.00  0.00    +0.000 A 
ATOM     27  C   UNL     1       0.444   9.944  20.478  0.00  0.00    +0.000 A 
ATOM     28  C   UNL     1       0.335   9.495  21.804  0.00  0.00    +0.000 A 
ATOM     29  C   UNL     1      -0.484  10.152  22.729  0.00  0.00    +0.000 A 
ENDBRANCH  21  27
ENDBRANCH  20  21
ENDBRANCH   1  20
TORSDOF 4
ENDMDL
MODEL 2
REMARK VINA RESULT:      -9.0      0.139      1.293
REMARK  Name = 
REMARK  5 active torsions:
REMARK  status: ('A' for Active; 'I' for Inactive)
REMARK    1  A    between atoms: C_1  and  C_2
REMARK    2  A    between atoms: C_5  and  N_6
REMARK    3  A    between atoms: N_6  and  C_7
REMARK    4  A    between atoms: C_7  and  C_8
REMARK    5  A    between atoms: C_12  and  C_13
REMARK                            x       y       z     vdW  Elec       q    Type
REMARK                         _______ _______ _______ _____ _____    ______ ____
ROOT
ATOM      1  C   UNL     1       2.569   7.252  19.135  0.00  0.00    +0.000 A 
ATOM      2  N   UNL     1       3.033   7.921  18.093  0.00  0.00    +0.000 NA
ATOM      3  N   UNL     1       3.802   7.082  17.346  0.00  0.00    +0.000 NA
ATOM      4  C   UNL     1       3.828   5.921  17.959  0.00  0.00    +0.000 A 
ATOM      5  C   UNL     1       4.512   4.728  17.545  0.00  0.00    +0.000 A 
ATOM      6  N   UNL     1       4.373   3.631  18.237  0.00  0.00    +0.000 NA
ATOM      7  C   UNL     1       3.584   3.651  19.412  0.00  0.00    +0.000 A 
ATOM      8  C   UNL     1       3.487   2.462  20.139  0.00  0.00    +0.000 A 
ATOM      9  C   UNL     1       2.731   2.402  21.309  0.00  0.00    +0.000 A 
ATOM     10  C   UNL     1       2.070   3.540  21.768  0.00  0.00    +0.000 A 
ATOM     11  C   UNL     1       2.163   4.747  21.065  0.00  0.00    +0.000 A 
ATOM     12  C   UNL     1       2.908   4.800  19.886  0.00  0.00    +0.000 A 
ATOM     13  N   UNL     1       3.053   5.958  19.092  0.00  0.00    +0.000 N 
ENDROOT
BRANCH   5  14
ATOM     14  C   UNL     1       5.354   4.730  16.314  0.00  0.00    +0.000 A 
ATOM     15  C   UNL     1       4.862   4.246  15.093  0.00  0.00    +0.000 A 
ATOM     16  C   UNL     1       5.685   4.205  13.968  0.00  0.00    +0.000 A 
ATOM     17  C   UNL     1       6.997   4.664  14.050  0.00  0.00    +0.000 A 
ATOM     18  C   UNL     1       7.485   5.178  15.250  0.00  0.00    +0.000 A 
ATOM     19  C   UNL     1       6.662   5.217  16.382  0.00  0.00    +0.000 A 
ENDBRANCH   5  14
BRANCH   1  20
ATOM     20  C   UNL     1       1.670   7.862  20.147  0.00  0.00    +0.000 C 
BRANCH  20  21
ATOM     21  N   UNL     1       1.170   9.184  19.769  0.00  0.00    +0.000 N 
ATOM     22  H   UNL     1       0.776   9.174  18.828  0.00  0.00    +0.000 HD
BRANCH  21  27
ATOM     23  C   UNL     1      -2.199  12.204  23.293  0.00  0.00    +0.000 C 
ATOM     24  C   UNL     1      -1.334  11.390  22.378  0.00  0.00    +0.000 A 
ATOM     25  C   UNL     1      -0.675  10.251  22.844  0.00  0.00    +0.000 A 
ATOM     26  C   UNL     1       0.143   9.504  21.991  0.00  0.00    +0.000 A 
ATOM     27  C   UNL     1       0.304   9.852  20.647  0.00  0.00    +0.000 A 
ATOM     28  C   UNL     1      -0.342  11.014  20.195  0.00  0.00    +0.000 A 
ATOM     29  C   UNL     1      -1.157  11.770  21.046  0.00  0.00    +0.000 A 
ENDBRANCH  21  27
ENDBRANCH  20  21
ENDBRANCH   1  20
TORSDOF 4
ENDMDL
MODEL 3
REMARK VINA RESULT:      -8.8      0.548      1.063
REMARK  Name = 
REMARK  5 active torsions:
REMARK  status: ('A' for Active; 'I' for Inactive)
REMARK    1  A    between atoms: C_1  and  C_2
REMARK    2  A    between atoms: C_5  and  N_6
REMARK    3  A    between atoms: N_6  and  C_7
REMARK    4  A    between atoms: C_7  and  C_8
REMARK    5  A    between atoms: C_12  and  C_13
REMARK                            x       y       z     vdW  Elec       q    Type
REMARK                         _______ _______ _______ _____ _____    ______ ____
ROOT
ATOM      1  C   UNL     1       2.634   7.283  18.877  0.00  0.00    +0.000 A 
ATOM      2  N   UNL     1       3.307   7.966  17.967  0.00  0.00    +0.000 NA
ATOM      3  N   UNL     1       3.991   7.087  17.184  0.00  0.00    +0.000 NA
ATOM      4  C   UNL     1       3.756   5.881  17.647  0.00  0.00    +0.000 A 
ATOM      5  C   UNL     1       4.262   4.635  17.141  0.00  0.00    +0.000 A 
ATOM      6  N   UNL     1       3.868   3.513  17.678  0.00  0.00    +0.000 NA
ATOM      7  C   UNL     1       2.981   3.549  18.780  0.00  0.00    +0.000 A 
ATOM      8  C   UNL     1       2.609   2.325  19.342  0.00  0.00    +0.000 A 
ATOM      9  C   UNL     1       1.741   2.278  20.433  0.00  0.00    +0.000 A 
ATOM     10  C   UNL     1       1.244   3.460  20.977  0.00  0.00    +0.000 A 
ATOM     11  C   UNL     1       1.612   4.699  20.441  0.00  0.00    +0.000 A 
ATOM     12  C   UNL     1       2.469   4.743  19.339  0.00  0.00    +0.000 A 
ATOM     13  N   UNL     1       2.890   5.935  18.711  0.00  0.00    +0.000 N 
ENDROOT
BRANCH   5  14
ATOM     14  C   UNL     1       5.210   4.619  15.990  0.00  0.00    +0.000 A 
ATOM     15  C   UNL     1       4.825   4.124  14.736  0.00  0.00    +0.000 A 
ATOM     16  C   UNL     1       5.745   4.065  13.688  0.00  0.00    +0.000 A 
ATOM     17  C   UNL     1       7.048   4.515  13.882  0.00  0.00    +0.000 A 
ATOM     18  C   UNL     1       7.431   5.040  15.116  0.00  0.00    +0.000 A 
ATOM     19  C   UNL     1       6.511   5.098  16.169  0.00  0.00    +0.000 A 
ENDBRANCH   5  14
BRANCH   1  20
ATOM     20  C   UNL     1       1.757   7.933  19.883  0.00  0.00    +0.000 C 
BRANCH  20  21
ATOM     21  N   UNL     1       1.192   9.206  19.437  0.00  0.00    +0.000 N 
ATOM     22  H   UNL     1       0.675   9.096  18.565  0.00  0.00    +0.000 HD
BRANCH  21  27
ATOM     23  C   UNL     1      -2.049  12.031  23.232  0.00  0.00    +0.000 C 
ATOM     24  C   UNL     1      -1.187  11.318  22.235  0.00  0.00    +0.000 A 
ATOM     25  C   UNL     1      -1.077  11.784  20.924  0.00  0.00    +0.000 A 
ATOM     26  C   UNL     1      -0.284  11.106  19.993  0.00  0.00    +0.000 A 
ATOM     27  C   UNL     1       0.443   9.966  20.348  0.00  0.00    +0.000 A 
ATOM     28  C   UNL     1       0.305   9.492  21.662  0.00  0.00    +0.000 A 
ATOM     29  C   UNL     1      -0.493  10.161  22.597  0.00  0.00    +0.000 A 
ENDBRANCH  21  27
ENDBRANCH  20  21
ENDBRANCH   1  20
TORSDOF 4
ENDMDL
MODEL 4
REMARK VINA RESULT:      -8.8      1.259      1.905
REMARK  Name = 
REMARK  5 active torsions:
REMARK  status: ('A' for Active; 'I' for Inactive)
REMARK    1  A    between atoms: C_1  and  C_2
REMARK    2  A    between atoms: C_5  and  N_6
REMARK    3  A    between atoms: N_6  and  C_7
REMARK    4  A    between atoms: C_7  and  C_8
REMARK    5  A    between atoms: C_12  and  C_13
REMARK                            x       y       z     vdW  Elec       q    Type
REMARK                         _______ _______ _______ _____ _____    ______ ____
ROOT
ATOM      1  C   UNL     1       2.585   7.366  18.874  0.00  0.00    +0.000 A 
ATOM      2  N   UNL     1       3.096   7.987  17.825  0.00  0.00    +0.000 NA
ATOM      3  N   UNL     1       3.887   7.111  17.147  0.00  0.00    +0.000 NA
ATOM      4  C   UNL     1       3.878   5.977  17.809  0.00  0.00    +0.000 A 
ATOM      5  C   UNL     1       4.567   4.762  17.474  0.00  0.00    +0.000 A 
ATOM      6  N   UNL     1       4.391   3.697  18.205  0.00  0.00    +0.000 NA
ATOM      7  C   UNL     1       3.555   3.773  19.345  0.00  0.00    +0.000 A 
ATOM      8  C   UNL     1       3.417   2.616  20.116  0.00  0.00    +0.000 A 
ATOM      9  C   UNL     1       2.613   2.612  21.256  0.00  0.00    +0.000 A 
ATOM     10  C   UNL     1       1.945   3.773  21.639  0.00  0.00    +0.000 A 
ATOM     11  C   UNL     1       2.077   4.948  20.891  0.00  0.00    +0.000 A 
ATOM     12  C   UNL     1       2.870   4.946  19.741  0.00  0.00    +0.000 A 
ATOM     13  N   UNL     1       3.058   6.068  18.906  0.00  0.00    +0.000 N 
ENDROOT
BRANCH   5  14
ATOM     14  C   UNL     1       5.458   4.706  16.279  0.00  0.00    +0.000 A 
ATOM     15  C   UNL     1       6.772   5.195  16.326  0.00  0.00    +0.000 A 
ATOM     16  C   UNL     1       7.570   5.185  15.182  0.00  0.00    +0.000 A 
ATOM     17  C   UNL     1       7.067   4.671  13.989  0.00  0.00    +0.000 A 
ATOM     18  C   UNL     1       5.774   4.152  13.941  0.00  0.00    +0.000 A 
ATOM     19  C   UNL     1       4.970   4.164  15.087  0.00  0.00    +0.000 A 
ENDBRANCH   5  14
BRANCH   1  20
ATOM     20  C   UNL     1       1.650   8.025  19.822  0.00  0.00    +0.000 C 
BRANCH  20  21
ATOM     21  N   UNL     1       1.485   9.459  19.583  0.00  0.00    +0.000 N 
ATOM     22  H   UNL     1       2.204   9.814  18.951  0.00  0.00    +0.000 HD
BRANCH  21  27
ATOM     23  C   UNL     1      -3.525  11.521  17.702  0.00  0.00    +0.000 C 
ATOM     24  C   UNL     1      -2.229  10.972  18.218  0.00  0.00    +0.000 A 
ATOM     25  C   UNL     1      -1.744  11.348  19.472  0.00  0.00    +0.000 A 
ATOM     26  C   UNL     1      -0.526  10.846  19.942  0.00  0.00    +0.000 A 
ATOM     27  C   UNL     1       0.224   9.935  19.193  0.00  0.00    +0.000 A 
ATOM     28  C   UNL     1      -0.261   9.584  17.923  0.00  0.00    +0.000 A 
ATOM     29  C   UNL     1      -1.475  10.088  17.443  0.00  0.00    +0.000 A 
ENDBRANCH  21  27
ENDBRANCH  20  21
ENDBRANCH   1  20
TORSDOF 4
ENDMDL
MODEL 5
REMARK VINA RESULT:      -8.7      1.393      2.200
REMARK  Name = 
REMARK  5 active torsions:
REMARK  status: ('A' for Active; 'I' for Inactive)
REMARK    1  A    between atoms: C_1  and  C_2
REMARK    2  A    between atoms: C_5  and  N_6
REMARK    3  A    between atoms: N_6  and  C_7
REMARK    4  A    between atoms: C_7  and  C_8
REMARK    5  A    between atoms: C_12  and  C_13
REMARK                            x       y       z     vdW  Elec       q    Type
REMARK                         _______ _______ _______ _____ _____    ______ ____
ROOT
ATOM      1  C   UNL     1       2.497   7.431  18.821  0.00  0.00    +0.000 A 
ATOM      2  N   UNL     1       3.166   8.091  17.891  0.00  0.00    +0.000 NA
ATOM      3  N   UNL     1       3.907   7.200  17.176  0.00  0.00    +0.000 NA
ATOM      4  C   UNL     1       3.710   6.013  17.700  0.00  0.00    +0.000 A 
ATOM      5  C   UNL     1       4.282   4.764  17.279  0.00  0.00    +0.000 A 
ATOM      6  N   UNL     1       3.921   3.657  17.867  0.00  0.00    +0.000 NA
ATOM      7  C   UNL     1       3.003   3.716  18.943  0.00  0.00    +0.000 A 
ATOM      8  C   UNL     1       2.666   2.510  19.563  0.00  0.00    +0.000 A 
ATOM      9  C   UNL     1       1.771   2.485  20.633  0.00  0.00    +0.000 A 
ATOM     10  C   UNL     1       1.210   3.673  21.097  0.00  0.00    +0.000 A 
ATOM     11  C   UNL     1       1.541   4.895  20.501  0.00  0.00    +0.000 A 
ATOM     12  C   UNL     1       2.426   4.916  19.421  0.00  0.00    +0.000 A 
ATOM     13  N   UNL     1       2.813   6.088  18.737  0.00  0.00    +0.000 N 
ENDROOT
BRANCH   5  14
ATOM     14  C   UNL     1       5.261   4.725  16.155  0.00  0.00    +0.000 A 
ATOM     15  C   UNL     1       4.902   4.235  14.891  0.00  0.00    +0.000 A 
ATOM     16  C   UNL     1       5.850   4.154  13.871  0.00  0.00    +0.000 A 
ATOM     17  C   UNL     1       7.156   4.579  14.100  0.00  0.00    +0.000 A 
ATOM     18  C   UNL     1       7.514   5.100  15.343  0.00  0.00    +0.000 A 
ATOM     19  C   UNL     1       6.566   5.179  16.370  0.00  0.00    +0.000 A 
ENDBRANCH   5  14
BRANCH   1  20
ATOM     20  C   UNL     1       1.566   8.097  19.766  0.00  0.00    +0.000 C 
BRANCH  20  21
ATOM     21  N   UNL     1       1.384   9.524  19.505  0.00  0.00    +0.000 N 
ATOM     22  H   UNL     1       2.094   9.876  18.863  0.00  0.00    +0.000 HD
BRANCH  21  27
ATOM     23  C   UNL     1      -3.661  11.502  17.626  0.00  0.00    +0.000 C 
ATOM     24  C   UNL     1      -2.356  10.975  18.142  0.00  0.00    +0.000 A 
ATOM     25  C   UNL     1      -1.860  11.387  19.381  0.00  0.00    +0.000 A 
ATOM     26  C   UNL     1      -0.634  10.905  19.850  0.00  0.00    +0.000 A 
ATOM     27  C   UNL     1       0.115   9.981  19.117  0.00  0.00    +0.000 A 
ATOM     28  C   UNL     1      -0.380   9.595  17.861  0.00  0.00    +0.000 A 
ATOM     29  C   UNL     1      -1.603  10.078  17.382  0.00  0.00    +0.000 A 
ENDBRANCH  21  27
ENDBRANCH  20  21
ENDBRANCH   1  20
TORSDOF 4
ENDMDL
MODEL 6
REMARK VINA RESULT:      -8.7      2.054      8.099
REMARK  Name = 
REMARK  5 active torsions:
REMARK  status: ('A' for Active; 'I' for Inactive)
REMARK    1  A    between atoms: C_1  and  C_2
REMARK    2  A    between atoms: C_5  and  N_6
REMARK    3  A    between atoms: N_6  and  C_7
REMARK    4  A    between atoms: C_7  and  C_8
REMARK    5  A    between atoms: C_12  and  C_13
REMARK                            x       y       z     vdW  Elec       q    Type
REMARK                         _______ _______ _______ _____ _____    ______ ____
ROOT
ATOM      1  C   UNL     1       5.821   5.712  17.292  0.00  0.00    +0.000 A 
ATOM      2  N   UNL     1       5.934   7.029  17.315  0.00  0.00    +0.000 NA
ATOM      3  N   UNL     1       4.784   7.554  17.821  0.00  0.00    +0.000 NA
ATOM      4  C   UNL     1       3.969   6.555  18.067  0.00  0.00    +0.000 A 
ATOM      5  C   UNL     1       2.641   6.622  18.609  0.00  0.00    +0.000 A 
ATOM      6  N   UNL     1       1.990   5.519  18.861  0.00  0.00    +0.000 NA
ATOM      7  C   UNL     1       2.593   4.276  18.554  0.00  0.00    +0.000 A 
ATOM      8  C   UNL     1       1.849   3.122  18.813  0.00  0.00    +0.000 A 
ATOM      9  C   UNL     1       2.372   1.860  18.534  0.00  0.00    +0.000 A 
ATOM     10  C   UNL     1       3.647   1.743  17.983  0.00  0.00    +0.000 A 
ATOM     11  C   UNL     1       4.406   2.884  17.701  0.00  0.00    +0.000 A 
ATOM     12  C   UNL     1       3.886   4.146  17.995  0.00  0.00    +0.000 A 
ATOM     13  N   UNL     1       4.573   5.358  17.768  0.00  0.00    +0.000 N 
ENDROOT
BRANCH   5  14
ATOM     14  C   UNL     1       2.015   7.941  18.910  0.00  0.00    +0.000 A 
ATOM     15  C   UNL     1       1.601   8.273  20.208  0.00  0.00    +0.000 A 
ATOM     16  C   UNL     1       0.966   9.490  20.456  0.00  0.00    +0.000 A 
ATOM     17  C   UNL     1       0.758  10.390  19.414  0.00  0.00    +0.000 A 
ATOM     18  C   UNL     1       1.197  10.085  18.127  0.00  0.00    +0.000 A 
ATOM     19  C   UNL     1       1.831   8.862  17.875  0.00  0.00    +0.000 A 
ENDBRANCH   5  14
BRANCH   1  20
ATOM     20  C   UNL     1       6.910   4.820  16.820  0.00  0.00    +0.000 C 
BRANCH  20  21
ATOM     21  N   UNL     1       7.440   5.184  15.506  0.00  0.00    +0.000 N 
ATOM     22  H   UNL     1       8.446   5.024  15.457  0.00  0.00    +0.000 HD
BRANCH  21  27
ATOM     23  C   UNL     1       4.820   2.785  11.003  0.00  0.00    +0.000 C 
ATOM     24  C   UNL     1       5.509   3.436  12.164  0.00  0.00    +0.000 A 
ATOM     25  C   UNL     1       6.806   3.937  12.035  0.00  0.00    +0.000 A 
ATOM     26  C   UNL     1       7.451   4.529  13.125  0.00  0.00    +0.000 A 
ATOM     27  C   UNL     1       6.814   4.667  14.362  0.00  0.00    +0.000 A 
ATOM     28  C   UNL     1       5.520   4.136  14.488  0.00  0.00    +0.000 A 
ATOM     29  C   UNL     1       4.872   3.535  13.403  0.00  0.00    +0.000 A 
ENDBRANCH  21  27
ENDBRANCH  20  21
ENDBRANCH   1  20
TORSDOF 4
ENDMDL
MODEL 7
REMARK VINA RESULT:      -8.6      2.990     10.085
REMARK  Name = 
REMARK  5 active torsions:
REMARK  status: ('A' for Active; 'I' for Inactive)
REMARK    1  A    between atoms: C_1  and  C_2
REMARK    2  A    between atoms: C_5  and  N_6
REMARK    3  A    between atoms: N_6  and  C_7
REMARK    4  A    between atoms: C_7  and  C_8
REMARK    5  A    between atoms: C_12  and  C_13
REMARK                            x       y       z     vdW  Elec       q    Type
REMARK                         _______ _______ _______ _____ _____    ______ ____
ROOT
ATOM      1  C   UNL     1       0.677   9.750  20.910  0.00  0.00    +0.000 A 
ATOM      2  N   UNL     1       0.948  10.029  22.174  0.00  0.00    +0.000 NA
ATOM      3  N   UNL     1       0.054  10.957  22.614  0.00  0.00    +0.000 NA
ATOM      4  C   UNL     1      -0.728  11.260  21.604  0.00  0.00    +0.000 A 
ATOM      5  C   UNL     1      -1.821  12.192  21.592  0.00  0.00    +0.000 A 
ATOM      6  N   UNL     1      -2.549  12.321  20.517  0.00  0.00    +0.000 NA
ATOM      7  C   UNL     1      -2.217  11.569  19.365  0.00  0.00    +0.000 A 
ATOM      8  C   UNL     1      -3.004  11.760  18.227  0.00  0.00    +0.000 A 
ATOM      9  C   UNL     1      -2.738  11.059  17.051  0.00  0.00    +0.000 A 
ATOM     10  C   UNL     1      -1.672  10.162  17.003  0.00  0.00    +0.000 A 
ATOM     11  C   UNL     1      -0.861   9.963  18.125  0.00  0.00    +0.000 A 
ATOM     12  C   UNL     1      -1.138  10.656  19.306  0.00  0.00    +0.000 A 
ATOM     13  N   UNL     1      -0.396  10.517  20.498  0.00  0.00    +0.000 N 
ENDROOT
BRANCH   5  14
ATOM     14  C   UNL     1      -2.145  12.989  22.811  0.00  0.00    +0.000 A 
ATOM     15  C   UNL     1      -3.319  12.758  23.543  0.00  0.00    +0.000 A 
ATOM     16  C   UNL     1      -3.630  13.553  24.646  0.00  0.00    +0.000 A 
ATOM     17  C   UNL     1      -2.762  14.571  25.035  0.00  0.00    +0.000 A 
ATOM     18  C   UNL     1      -1.577  14.787  24.334  0.00  0.00    +0.000 A 
ATOM     19  C   UNL     1      -1.264  13.992  23.225  0.00  0.00    +0.000 A 
ENDBRANCH   5  14
BRANCH   1  20
ATOM     20  C   UNL     1       1.447   8.752  20.125  0.00  0.00    +0.000 C 
BRANCH  20  21
ATOM     21  N   UNL     1       1.762   7.534  20.870  0.00  0.00    +0.000 N 
ATOM     22  H   UNL     1       1.100   7.384  21.632  0.00  0.00    +0.000 HD
BRANCH  21  27
ATOM     23  C   UNL     1       2.363   2.793  17.699  0.00  0.00    +0.000 C 
ATOM     24  C   UNL     1       2.222   4.019  18.549  0.00  0.00    +0.000 A 
ATOM     25  C   UNL     1       1.679   3.939  19.833  0.00  0.00    +0.000 A 
ATOM     26  C   UNL     1       1.534   5.088  20.616  0.00  0.00    +0.000 A 
ATOM     27  C   UNL     1       1.952   6.340  20.157  0.00  0.00    +0.000 A 
ATOM     28  C   UNL     1       2.472   6.413  18.855  0.00  0.00    +0.000 A 
ATOM     29  C   UNL     1       2.613   5.268  18.062  0.00  0.00    +0.000 A 
ENDBRANCH  21  27
ENDBRANCH  20  21
ENDBRANCH   1  20
TORSDOF 4
ENDMDL
MODEL 8
REMARK VINA RESULT:      -8.5      2.094      8.075
REMARK  Name = 
REMARK  5 active torsions:
REMARK  status: ('A' for Active; 'I' for Inactive)
REMARK    1  A    between atoms: C_1  and  C_2
REMARK    2  A    between atoms: C_5  and  N_6
REMARK    3  A    between atoms: N_6  and  C_7
REMARK    4  A    between atoms: C_7  and  C_8
REMARK    5  A    between atoms: C_12  and  C_13
REMARK                            x       y       z     vdW  Elec       q    Type
REMARK                         _______ _______ _______ _____ _____    ______ ____
ROOT
ATOM      1  C   UNL     1       5.855   5.582  17.359  0.00  0.00    +0.000 A 
ATOM      2  N   UNL     1       5.987   6.898  17.350  0.00  0.00    +0.000 NA
ATOM      3  N   UNL     1       4.833   7.452  17.813  0.00  0.00    +0.000 NA
ATOM      4  C   UNL     1       3.998   6.471  18.065  0.00  0.00    +0.000 A 
ATOM      5  C   UNL     1       2.657   6.571  18.573  0.00  0.00    +0.000 A 
ATOM      6  N   UNL     1       1.985   5.485  18.838  0.00  0.00    +0.000 NA
ATOM      7  C   UNL     1       2.577   4.226  18.578  0.00  0.00    +0.000 A 
ATOM      8  C   UNL     1       1.810   3.090  18.850  0.00  0.00    +0.000 A 
ATOM      9  C   UNL     1       2.321   1.813  18.617  0.00  0.00    +0.000 A 
ATOM     10  C   UNL     1       3.607   1.663  18.100  0.00  0.00    +0.000 A 
ATOM     11  C   UNL     1       4.390   2.786  17.808  0.00  0.00    +0.000 A 
ATOM     12  C   UNL     1       3.881   4.062  18.055  0.00  0.00    +0.000 A 
ATOM     13  N   UNL     1       4.590   5.258  17.814  0.00  0.00    +0.000 N 
ENDROOT
BRANCH   5  14
ATOM     14  C   UNL     1       2.044   7.907  18.823  0.00  0.00    +0.000 A 
ATOM     15  C   UNL     1       1.932   8.861  17.801  0.00  0.00    +0.000 A 
ATOM     16  C   UNL     1       1.407  10.125  18.071  0.00  0.00    +0.000 A 
ATOM     17  C   UNL     1       0.975  10.438  19.358  0.00  0.00    +0.000 A 
ATOM     18  C   UNL     1       1.052   9.485  20.373  0.00  0.00    +0.000 A 
ATOM     19  C   UNL     1       1.581   8.217  20.105  0.00  0.00    +0.000 A 
ENDBRANCH   5  14
BRANCH   1  20
ATOM     20  C   UNL     1       6.942   4.663  16.938  0.00  0.00    +0.000 C 
BRANCH  20  21
ATOM     21  N   UNL     1       7.443   4.924  15.589  0.00  0.00    +0.000 N 
ATOM     22  H   UNL     1       8.435   4.697  15.513  0.00  0.00    +0.000 HD
BRANCH  21  27
ATOM     23  C   UNL     1       4.644   3.044  10.950  0.00  0.00    +0.000 C 
ATOM     24  C   UNL     1       5.370   3.510  12.176  0.00  0.00    +0.000 A 
ATOM     25  C   UNL     1       4.731   3.534  13.417  0.00  0.00    +0.000 A 
ATOM     26  C   UNL     1       5.407   3.985  14.555  0.00  0.00    +0.000 A 
ATOM     27  C   UNL     1       6.742   4.393  14.496  0.00  0.00    +0.000 A 
ATOM     28  C   UNL     1       7.367   4.389  13.238  0.00  0.00    +0.000 A 
ATOM     29  C   UNL     1       6.694   3.947  12.093  0.00  0.00    +0.000 A 
ENDBRANCH  21  27
ENDBRANCH  20  21
ENDBRANCH   1  20
TORSDOF 4
ENDMDL
MODEL 9
REMARK VINA RESULT:      -8.3      0.778      1.186
REMARK  Name = 
REMARK  5 active torsions:
REMARK  status: ('A' for Active; 'I' for Inactive)
REMARK    1  A    between atoms: C_1  and  C_2
REMARK    2  A    between atoms: C_5  and  N_6
REMARK    3  A    between atoms: N_6  and  C_7
REMARK    4  A    between atoms: C_7  and  C_8
REMARK    5  A    between atoms: C_12  and  C_13
REMARK                            x       y       z     vdW  Elec       q    Type
REMARK                         _______ _______ _______ _____ _____    ______ ____
ROOT
ATOM      1  C   UNL     1       2.513   7.169  19.111  0.00  0.00    +0.000 A 
ATOM      2  N   UNL     1       2.993   7.827  18.069  0.00  0.00    +0.000 NA
ATOM      3  N   UNL     1       3.808   6.991  17.368  0.00  0.00    +0.000 NA
ATOM      4  C   UNL     1       3.845   5.846  18.010  0.00  0.00    +0.000 A 
ATOM      5  C   UNL     1       4.573   4.662  17.647  0.00  0.00    +0.000 A 
ATOM      6  N   UNL     1       4.440   3.579  18.361  0.00  0.00    +0.000 NA
ATOM      7  C   UNL     1       3.612   3.605  19.508  0.00  0.00    +0.000 A 
ATOM      8  C   UNL     1       3.522   2.431  20.260  0.00  0.00    +0.000 A 
ATOM      9  C   UNL     1       2.730   2.378  21.407  0.00  0.00    +0.000 A 
ATOM     10  C   UNL     1       2.024   3.508  21.816  0.00  0.00    +0.000 A 
ATOM     11  C   UNL     1       2.109   4.700  21.088  0.00  0.00    +0.000 A 
ATOM     12  C   UNL     1       2.891   4.746  19.932  0.00  0.00    +0.000 A 
ATOM     13  N   UNL     1       3.031   5.888  19.116  0.00  0.00    +0.000 N 
ENDROOT
BRANCH   5  14
ATOM     14  C   UNL     1       5.454   4.659  16.444  0.00  0.00    +0.000 A 
ATOM     15  C   UNL     1       6.787   5.089  16.516  0.00  0.00    +0.000 A 
ATOM     16  C   UNL     1       7.577   5.132  15.367  0.00  0.00    +0.000 A 
ATOM     17  C   UNL     1       7.047   4.729  14.144  0.00  0.00    +0.000 A 
ATOM     18  C   UNL     1       5.734   4.268  14.069  0.00  0.00    +0.000 A 
ATOM     19  C   UNL     1       4.938   4.227  15.219  0.00  0.00    +0.000 A 
ENDBRANCH   5  14
BRANCH   1  20
ATOM     20  C   UNL     1       1.565   7.779  20.078  0.00  0.00    +0.000 C 
BRANCH  20  21
ATOM     21  N   UNL     1       1.716   9.227  20.217  0.00  0.00    +0.000 N 
ATOM     22  H   UNL     1       2.505   9.570  19.669  0.00  0.00    +0.000 HD
BRANCH  21  27
ATOM     23  C   UNL     1      -3.019  12.410  19.637  0.00  0.00    +0.000 C 
ATOM     24  C   UNL     1      -1.769  11.593  19.765  0.00  0.00    +0.000 A 
ATOM     25  C   UNL     1      -1.286  10.853  18.685  0.00  0.00    +0.000 A 
ATOM     26  C   UNL     1      -0.129  10.078  18.814  0.00  0.00    +0.000 A 
ATOM     27  C   UNL     1       0.594  10.043  20.010  0.00  0.00    +0.000 A 
ATOM     28  C   UNL     1       0.085  10.770  21.098  0.00  0.00    +0.000 A 
ATOM     29  C   UNL     1      -1.077  11.541  20.977  0.00  0.00    +0.000 A 
ENDBRANCH  21  27
ENDBRANCH  20  21
ENDBRANCH   1  20
TORSDOF 4
ENDMDL
