MODEL 1
REMARK VINA RESULT:      -6.4      0.000      0.000
REMARK  Name = 
REMARK  10 active torsions:
REMARK  status: ('A' for Active; 'I' for Inactive)
REMARK    1  A    between atoms: C_1  and  C_2
REMARK    2  A    between atoms: C_2  and  N_3
REMARK    3  A    between atoms: N_5  and  C_6
REMARK    4  A    between atoms: C_7  and  C_8
REMARK    5  A    between atoms: C_10  and  C_11
REMARK    6  A    between atoms: C_13  and  C_14
REMARK    7  A    between atoms: C_24  and  O_25
REMARK    8  A    between atoms: O_25  and  C_26
REMARK    9  A    between atoms: C_27  and  O_28
REMARK   10  A    between atoms: O_28  and  C_29
REMARK                            x       y       z     vdW  Elec       q    Type
REMARK                         _______ _______ _______ _____ _____    ______ ____
ROOT
ATOM      1  N   UNL     1      -2.291  12.055  19.307  0.00  0.00    +0.000 N 
ATOM      2  C   UNL     1      -1.381  12.319  20.354  0.00  0.00    +0.000 A 
ATOM      3  N   UNL     1      -0.178  11.858  20.486  0.00  0.00    +0.000 NA
ATOM      4  C   UNL     1      -1.781  13.162  21.425  0.00  0.00    +0.000 A 
ATOM      5  C   UNL     1      -3.085  13.659  21.531  0.00  0.00    +0.000 A 
ATOM      6  N   UNL     1      -3.982  13.274  20.571  0.00  0.00    +0.000 N 
ATOM      7  C   UNL     1      -3.595  12.504  19.482  0.00  0.00    +0.000 A 
ATOM      8  O   UNL     1      -4.461  12.198  18.671  0.00  0.00    +0.000 OA
ATOM      9  C   UNL     1      -5.416  13.611  20.611  0.00  0.00    +0.000 C 
ATOM     10  C   UNL     1      -5.888  14.546  21.706  0.00  0.00    +0.000 C 
ATOM     11  C   UNL     1      -4.875  14.964  22.704  0.00  0.00    +0.000 A 
ATOM     12  C   UNL     1      -5.350  15.836  23.678  0.00  0.00    +0.000 A 
ATOM     13  C   UNL     1      -4.526  16.352  24.673  0.00  0.00    +0.000 A 
ATOM     14  C   UNL     1      -3.164  15.954  24.698  0.00  0.00    +0.000 A 
ATOM     15  C   UNL     1      -2.682  15.057  23.703  0.00  0.00    +0.000 A 
ATOM     16  C   UNL     1      -3.532  14.555  22.670  0.00  0.00    +0.000 A 
ENDROOT
BRANCH   3  17
ATOM     17  C   UNL     1       0.580  10.855  19.815  0.00  0.00    +0.000 A 
ATOM     18  C   UNL     1       1.428  11.236  18.734  0.00  0.00    +0.000 A 
ATOM     19  C   UNL     1       1.589  12.665  18.277  0.00  0.00    +0.000 C 
ATOM     20  C   UNL     1       2.181  10.262  18.061  0.00  0.00    +0.000 A 
ATOM     21  C   UNL     1       2.117   8.920  18.442  0.00  0.00    +0.000 A 
ATOM     22  C   UNL     1       2.929   7.875  17.732  0.00  0.00    +0.000 C 
ATOM     23  C   UNL     1       1.333   8.555  19.536  0.00  0.00    +0.000 A 
ATOM     24  C   UNL     1       0.595   9.510  20.255  0.00  0.00    +0.000 A 
ATOM     25  C   UNL     1      -0.035   9.059  21.550  0.00  0.00    +0.000 C 
ENDBRANCH   3  17
BRANCH   1  27
ATOM     26  C   UNL     1      -2.366   9.780  17.981  0.00  0.00    +0.000 C 
ATOM     27  C   UNL     1      -2.081  11.274  18.017  0.00  0.00    +0.000 C 
ENDBRANCH   1  27
BRANCH  13  28
ATOM     28  O   UNL     1      -5.028  17.232  25.584  0.00  0.00    +0.000 OA
ATOM     29  C   UNL     1      -5.031  18.612  25.462  0.00  0.00    +0.000 C 
ENDBRANCH  13  28
BRANCH  14  30
ATOM     30  O   UNL     1      -2.279  16.414  25.632  0.00  0.00    +0.000 OA
ATOM     31  C   UNL     1      -0.897  16.348  25.575  0.00  0.00    +0.000 C 
ENDBRANCH  14  30
TORSDOF 4
ENDMDL
MODEL 2
REMARK VINA RESULT:      -6.3      4.409     10.005
REMARK  Name = 
REMARK  10 active torsions:
REMARK  status: ('A' for Active; 'I' for Inactive)
REMARK    1  A    between atoms: C_1  and  C_2
REMARK    2  A    between atoms: C_2  and  N_3
REMARK    3  A    between atoms: N_5  and  C_6
REMARK    4  A    between atoms: C_7  and  C_8
REMARK    5  A    between atoms: C_10  and  C_11
REMARK    6  A    between atoms: C_13  and  C_14
REMARK    7  A    between atoms: C_24  and  O_25
REMARK    8  A    between atoms: O_25  and  C_26
REMARK    9  A    between atoms: C_27  and  O_28
REMARK   10  A    between atoms: O_28  and  C_29
REMARK                            x       y       z     vdW  Elec       q    Type
REMARK                         _______ _______ _______ _____ _____    ______ ____
ROOT
ATOM      1  N   UNL     1       0.885  10.670  20.674  0.00  0.00    +0.000 N 
ATOM      2  C   UNL     1       1.516  10.740  19.413  0.00  0.00    +0.000 A 
ATOM      3  N   UNL     1       1.632  11.778  18.648  0.00  0.00    +0.000 NA
ATOM      4  C   UNL     1       2.089   9.564  18.857  0.00  0.00    +0.000 A 
ATOM      5  C   UNL     1       1.958   8.314  19.472  0.00  0.00    +0.000 A 
ATOM      6  N   UNL     1       1.224   8.257  20.626  0.00  0.00    +0.000 N 
ATOM      7  C   UNL     1       0.712   9.402  21.219  0.00  0.00    +0.000 A 
ATOM      8  O   UNL     1       0.060   9.263  22.248  0.00  0.00    +0.000 OA
ATOM      9  C   UNL     1       0.893   7.000  21.322  0.00  0.00    +0.000 C 
ATOM     10  C   UNL     1       1.516   5.722  20.798  0.00  0.00    +0.000 C 
ATOM     11  C   UNL     1       2.330   5.836  19.566  0.00  0.00    +0.000 A 
ATOM     12  C   UNL     1       2.897   4.641  19.134  0.00  0.00    +0.000 A 
ATOM     13  C   UNL     1       3.717   4.575  18.013  0.00  0.00    +0.000 A 
ATOM     14  C   UNL     1       3.961   5.766  17.280  0.00  0.00    +0.000 A 
ATOM     15  C   UNL     1       3.375   6.987  17.721  0.00  0.00    +0.000 A 
ATOM     16  C   UNL     1       2.557   7.047  18.891  0.00  0.00    +0.000 A 
ENDROOT
BRANCH   3  17
ATOM     17  C   UNL     1       1.072  13.088  18.660  0.00  0.00    +0.000 A 
ATOM     18  C   UNL     1       1.934  14.208  18.841  0.00  0.00    +0.000 A 
ATOM     19  C   UNL     1       3.430  14.080  18.993  0.00  0.00    +0.000 C 
ATOM     20  C   UNL     1       1.401  15.506  18.857  0.00  0.00    +0.000 A 
ATOM     21  C   UNL     1       0.031  15.716  18.689  0.00  0.00    +0.000 A 
ATOM     22  C   UNL     1      -0.546  17.103  18.694  0.00  0.00    +0.000 C 
ATOM     23  C   UNL     1      -0.806  14.625  18.454  0.00  0.00    +0.000 A 
ATOM     24  C   UNL     1      -0.299  13.317  18.396  0.00  0.00    +0.000 A 
ATOM     25  C   UNL     1      -1.238  12.237  17.913  0.00  0.00    +0.000 C 
ENDBRANCH   3  17
BRANCH   1  27
ATOM     26  C   UNL     1      -1.221  11.995  21.540  0.00  0.00    +0.000 C 
ATOM     27  C   UNL     1       0.286  11.786  21.520  0.00  0.00    +0.000 C 
ENDBRANCH   1  27
BRANCH  13  28
ATOM     28  O   UNL     1       4.278   3.387  17.649  0.00  0.00    +0.000 OA
ATOM     29  C   UNL     1       3.695   2.139  17.788  0.00  0.00    +0.000 C 
ENDBRANCH  13  28
BRANCH  14  30
ATOM     30  O   UNL     1       4.757   5.799  16.170  0.00  0.00    +0.000 OA
ATOM     31  C   UNL     1       6.141   5.850  16.138  0.00  0.00    +0.000 C 
ENDBRANCH  14  30
TORSDOF 4
ENDMDL
MODEL 3
REMARK VINA RESULT:      -6.1      0.246      1.587
REMARK  Name = 
REMARK  10 active torsions:
REMARK  status: ('A' for Active; 'I' for Inactive)
REMARK    1  A    between atoms: C_1  and  C_2
REMARK    2  A    between atoms: C_2  and  N_3
REMARK    3  A    between atoms: N_5  and  C_6
REMARK    4  A    between atoms: C_7  and  C_8
REMARK    5  A    between atoms: C_10  and  C_11
REMARK    6  A    between atoms: C_13  and  C_14
REMARK    7  A    between atoms: C_24  and  O_25
REMARK    8  A    between atoms: O_25  and  C_26
REMARK    9  A    between atoms: C_27  and  O_28
REMARK   10  A    between atoms: O_28  and  C_29
REMARK                            x       y       z     vdW  Elec       q    Type
REMARK                         _______ _______ _______ _____ _____    ______ ____
ROOT
ATOM      1  N   UNL     1      -2.249  12.110  19.398  0.00  0.00    +0.000 N 
ATOM      2  C   UNL     1      -1.309  12.410  20.408  0.00  0.00    +0.000 A 
ATOM      3  N   UNL     1      -0.091  11.980  20.501  0.00  0.00    +0.000 NA
ATOM      4  C   UNL     1      -1.691  13.255  21.484  0.00  0.00    +0.000 A 
ATOM      5  C   UNL     1      -3.003  13.720  21.632  0.00  0.00    +0.000 A 
ATOM      6  N   UNL     1      -3.924  13.302  20.709  0.00  0.00    +0.000 N 
ATOM      7  C   UNL     1      -3.558  12.530  19.615  0.00  0.00    +0.000 A 
ATOM      8  O   UNL     1      -4.445  12.192  18.840  0.00  0.00    +0.000 OA
ATOM      9  C   UNL     1      -5.364  13.604  20.798  0.00  0.00    +0.000 C 
ATOM     10  C   UNL     1      -5.819  14.539  21.899  0.00  0.00    +0.000 C 
ATOM     11  C   UNL     1      -4.782  14.994  22.855  0.00  0.00    +0.000 A 
ATOM     12  C   UNL     1      -5.243  15.866  23.837  0.00  0.00    +0.000 A 
ATOM     13  C   UNL     1      -4.397  16.414  24.794  0.00  0.00    +0.000 A 
ATOM     14  C   UNL     1      -3.025  16.051  24.774  0.00  0.00    +0.000 A 
ATOM     15  C   UNL     1      -2.557  15.153  23.772  0.00  0.00    +0.000 A 
ATOM     16  C   UNL     1      -3.431  14.619  22.777  0.00  0.00    +0.000 A 
ENDROOT
BRANCH   3  17
ATOM     17  C   UNL     1       0.668  10.988  19.814  0.00  0.00    +0.000 A 
ATOM     18  C   UNL     1       0.546   9.625  20.212  0.00  0.00    +0.000 A 
ATOM     19  C   UNL     1      -0.376   9.168  21.316  0.00  0.00    +0.000 C 
ATOM     20  C   UNL     1       1.286   8.635  19.548  0.00  0.00    +0.000 A 
ATOM     21  C   UNL     1       2.138   8.967  18.493  0.00  0.00    +0.000 A 
ATOM     22  C   UNL     1       2.924   7.911  17.771  0.00  0.00    +0.000 C 
ATOM     23  C   UNL     1       2.214  10.293  18.065  0.00  0.00    +0.000 A 
ATOM     24  C   UNL     1       1.459  11.303  18.684  0.00  0.00    +0.000 A 
ATOM     25  C   UNL     1       1.434  12.653  18.009  0.00  0.00    +0.000 C 
ENDBRANCH   3  17
BRANCH   1  27
ATOM     26  C   UNL     1      -2.338   9.823  18.095  0.00  0.00    +0.000 C 
ATOM     27  C   UNL     1      -2.067  11.320  18.109  0.00  0.00    +0.000 C 
ENDBRANCH   1  27
BRANCH  13  28
ATOM     28  O   UNL     1      -4.888  17.292  25.714  0.00  0.00    +0.000 OA
ATOM     29  C   UNL     1      -5.403  18.548  25.441  0.00  0.00    +0.000 C 
ENDBRANCH  13  28
BRANCH  14  30
ATOM     30  O   UNL     1      -2.118  16.543  25.670  0.00  0.00    +0.000 OA
ATOM     31  C   UNL     1      -1.111  15.841  26.309  0.00  0.00    +0.000 C 
ENDBRANCH  14  30
TORSDOF 4
ENDMDL
MODEL 4
REMARK VINA RESULT:      -6.1      4.382     10.020
REMARK  Name = 
REMARK  10 active torsions:
REMARK  status: ('A' for Active; 'I' for Inactive)
REMARK    1  A    between atoms: C_1  and  C_2
REMARK    2  A    between atoms: C_2  and  N_3
REMARK    3  A    between atoms: N_5  and  C_6
REMARK    4  A    between atoms: C_7  and  C_8
REMARK    5  A    between atoms: C_10  and  C_11
REMARK    6  A    between atoms: C_13  and  C_14
REMARK    7  A    between atoms: C_24  and  O_25
REMARK    8  A    between atoms: O_25  and  C_26
REMARK    9  A    between atoms: C_27  and  O_28
REMARK   10  A    between atoms: O_28  and  C_29
REMARK                            x       y       z     vdW  Elec       q    Type
REMARK                         _______ _______ _______ _____ _____    ______ ____
ROOT
ATOM      1  N   UNL     1       0.881  10.682  20.756  0.00  0.00    +0.000 N 
ATOM      2  C   UNL     1       1.530  10.771  19.505  0.00  0.00    +0.000 A 
ATOM      3  N   UNL     1       1.668  11.824  18.763  0.00  0.00    +0.000 NA
ATOM      4  C   UNL     1       2.098   9.602  18.932  0.00  0.00    +0.000 A 
ATOM      5  C   UNL     1       1.945   8.340  19.519  0.00  0.00    +0.000 A 
ATOM      6  N   UNL     1       1.195   8.267  20.662  0.00  0.00    +0.000 N 
ATOM      7  C   UNL     1       0.687   9.406  21.272  0.00  0.00    +0.000 A 
ATOM      8  O   UNL     1       0.021   9.252  22.289  0.00  0.00    +0.000 OA
ATOM      9  C   UNL     1       0.842   7.000  21.326  0.00  0.00    +0.000 C 
ATOM     10  C   UNL     1       1.458   5.726  20.785  0.00  0.00    +0.000 C 
ATOM     11  C   UNL     1       2.290   5.857  19.565  0.00  0.00    +0.000 A 
ATOM     12  C   UNL     1       2.849   4.665  19.116  0.00  0.00    +0.000 A 
ATOM     13  C   UNL     1       3.683   4.613  18.005  0.00  0.00    +0.000 A 
ATOM     14  C   UNL     1       3.949   5.816  17.301  0.00  0.00    +0.000 A 
ATOM     15  C   UNL     1       3.371   7.034  17.759  0.00  0.00    +0.000 A 
ATOM     16  C   UNL     1       2.538   7.079  18.919  0.00  0.00    +0.000 A 
ENDROOT
BRANCH   3  17
ATOM     17  C   UNL     1       1.121  13.140  18.795  0.00  0.00    +0.000 A 
ATOM     18  C   UNL     1      -0.236  13.335  18.404  0.00  0.00    +0.000 A 
ATOM     19  C   UNL     1      -1.143  12.205  17.982  0.00  0.00    +0.000 C 
ATOM     20  C   UNL     1      -0.792  14.623  18.428  0.00  0.00    +0.000 A 
ATOM     21  C   UNL     1      -0.032  15.721  18.838  0.00  0.00    +0.000 A 
ATOM     22  C   UNL     1      -0.623  17.101  18.876  0.00  0.00    +0.000 C 
ATOM     23  C   UNL     1       1.278  15.522  19.275  0.00  0.00    +0.000 A 
ATOM     24  C   UNL     1       1.852  14.240  19.299  0.00  0.00    +0.000 A 
ATOM     25  C   UNL     1       3.183  14.097  19.997  0.00  0.00    +0.000 C 
ENDBRANCH   3  17
BRANCH   1  27
ATOM     26  C   UNL     1      -1.215  12.047  21.581  0.00  0.00    +0.000 C 
ATOM     27  C   UNL     1       0.283  11.787  21.617  0.00  0.00    +0.000 C 
ENDBRANCH   1  27
BRANCH  13  28
ATOM     28  O   UNL     1       4.237   3.427  17.624  0.00  0.00    +0.000 OA
ATOM     29  C   UNL     1       3.708   2.171  17.868  0.00  0.00    +0.000 C 
ENDBRANCH  13  28
BRANCH  14  30
ATOM     30  O   UNL     1       4.761   5.864  16.202  0.00  0.00    +0.000 OA
ATOM     31  C   UNL     1       6.145   5.902  16.189  0.00  0.00    +0.000 C 
ENDBRANCH  14  30
TORSDOF 4
ENDMDL
MODEL 5
REMARK VINA RESULT:      -6.1      2.394      3.592
REMARK  Name = 
REMARK  10 active torsions:
REMARK  status: ('A' for Active; 'I' for Inactive)
REMARK    1  A    between atoms: C_1  and  C_2
REMARK    2  A    between atoms: C_2  and  N_3
REMARK    3  A    between atoms: N_5  and  C_6
REMARK    4  A    between atoms: C_7  and  C_8
REMARK    5  A    between atoms: C_10  and  C_11
REMARK    6  A    between atoms: C_13  and  C_14
REMARK    7  A    between atoms: C_24  and  O_25
REMARK    8  A    between atoms: O_25  and  C_26
REMARK    9  A    between atoms: C_27  and  O_28
REMARK   10  A    between atoms: O_28  and  C_29
REMARK                            x       y       z     vdW  Elec       q    Type
REMARK                         _______ _______ _______ _____ _____    ______ ____
ROOT
ATOM      1  N   UNL     1       0.118  12.851  20.390  0.00  0.00    +0.000 N 
ATOM      2  C   UNL     1      -0.847  11.860  20.671  0.00  0.00    +0.000 A 
ATOM      3  N   UNL     1      -0.738  10.581  20.492  0.00  0.00    +0.000 NA
ATOM      4  C   UNL     1      -2.112  12.248  21.189  0.00  0.00    +0.000 A 
ATOM      5  C   UNL     1      -2.471  13.593  21.335  0.00  0.00    +0.000 A 
ATOM      6  N   UNL     1      -1.562  14.533  20.927  0.00  0.00    +0.000 N 
ATOM      7  C   UNL     1      -0.298  14.174  20.479  0.00  0.00    +0.000 A 
ATOM      8  O   UNL     1       0.453  15.077  20.126  0.00  0.00    +0.000 OA
ATOM      9  C   UNL     1      -1.840  15.980  20.901  0.00  0.00    +0.000 C 
ATOM     10  C   UNL     1      -3.155  16.454  21.486  0.00  0.00    +0.000 C 
ATOM     11  C   UNL     1      -4.094  15.404  21.946  0.00  0.00    +0.000 A 
ATOM     12  C   UNL     1      -5.279  15.887  22.492  0.00  0.00    +0.000 A 
ATOM     13  C   UNL     1      -6.257  15.040  23.002  0.00  0.00    +0.000 A 
ATOM     14  C   UNL     1      -6.038  13.639  22.941  0.00  0.00    +0.000 A 
ATOM     15  C   UNL     1      -4.827  13.147  22.376  0.00  0.00    +0.000 A 
ATOM     16  C   UNL     1      -3.818  14.029  21.881  0.00  0.00    +0.000 A 
ENDROOT
BRANCH   3  17
ATOM     17  C   UNL     1       0.213   9.748  19.834  0.00  0.00    +0.000 A 
ATOM     18  C   UNL     1       1.092   8.947  20.621  0.00  0.00    +0.000 A 
ATOM     19  C   UNL     1       1.047   8.913  22.128  0.00  0.00    +0.000 C 
ATOM     20  C   UNL     1       2.036   8.122  19.991  0.00  0.00    +0.000 A 
ATOM     21  C   UNL     1       2.121   8.068  18.598  0.00  0.00    +0.000 A 
ATOM     22  C   UNL     1       3.123   7.179  17.918  0.00  0.00    +0.000 C 
ATOM     23  C   UNL     1       1.224   8.808  17.828  0.00  0.00    +0.000 A 
ATOM     24  C   UNL     1       0.243   9.616  18.426  0.00  0.00    +0.000 A 
ATOM     25  C   UNL     1      -0.818  10.192  17.520  0.00  0.00    +0.000 C 
ENDBRANCH   3  17
BRANCH   1  27
ATOM     26  C   UNL     1       1.878  12.673  18.438  0.00  0.00    +0.000 C 
ATOM     27  C   UNL     1       1.560  12.693  19.926  0.00  0.00    +0.000 C 
ENDBRANCH   1  27
BRANCH  13  28
ATOM     28  O   UNL     1      -7.386  15.561  23.560  0.00  0.00    +0.000 OA
ATOM     29  C   UNL     1      -7.917  16.813  23.296  0.00  0.00    +0.000 C 
ENDBRANCH  13  28
BRANCH  14  30
ATOM     30  O   UNL     1      -6.939  12.730  23.422  0.00  0.00    +0.000 OA
ATOM     31  C   UNL     1      -7.888  12.031  22.697  0.00  0.00    +0.000 C 
ENDBRANCH  14  30
TORSDOF 4
ENDMDL
MODEL 6
REMARK VINA RESULT:      -5.8      3.194      8.523
REMARK  Name = 
REMARK  10 active torsions:
REMARK  status: ('A' for Active; 'I' for Inactive)
REMARK    1  A    between atoms: C_1  and  C_2
REMARK    2  A    between atoms: C_2  and  N_3
REMARK    3  A    between atoms: N_5  and  C_6
REMARK    4  A    between atoms: C_7  and  C_8
REMARK    5  A    between atoms: C_10  and  C_11
REMARK    6  A    between atoms: C_13  and  C_14
REMARK    7  A    between atoms: C_24  and  O_25
REMARK    8  A    between atoms: O_25  and  C_26
REMARK    9  A    between atoms: C_27  and  O_28
REMARK   10  A    between atoms: O_28  and  C_29
REMARK                            x       y       z     vdW  Elec       q    Type
REMARK                         _______ _______ _______ _____ _____    ______ ____
ROOT
ATOM      1  N   UNL     1      -5.105  13.069  19.468  0.00  0.00    +0.000 N 
ATOM      2  C   UNL     1      -4.165  13.190  20.514  0.00  0.00    +0.000 A 
ATOM      3  N   UNL     1      -4.262  13.922  21.578  0.00  0.00    +0.000 NA
ATOM      4  C   UNL     1      -2.944  12.468  20.438  0.00  0.00    +0.000 A 
ATOM      5  C   UNL     1      -2.596  11.719  19.308  0.00  0.00    +0.000 A 
ATOM      6  N   UNL     1      -3.469  11.731  18.254  0.00  0.00    +0.000 N 
ATOM      7  C   UNL     1      -4.695  12.376  18.334  0.00  0.00    +0.000 A 
ATOM      8  O   UNL     1      -5.416  12.345  17.343  0.00  0.00    +0.000 OA
ATOM      9  C   UNL     1      -3.189  11.095  16.954  0.00  0.00    +0.000 C 
ATOM     10  C   UNL     1      -1.923  10.273  16.832  0.00  0.00    +0.000 C 
ATOM     11  C   UNL     1      -1.023  10.261  18.010  0.00  0.00    +0.000 A 
ATOM     12  C   UNL     1       0.117   9.478  17.858  0.00  0.00    +0.000 A 
ATOM     13  C   UNL     1       1.052   9.329  18.877  0.00  0.00    +0.000 A 
ATOM     14  C   UNL     1       0.838  10.018  20.099  0.00  0.00    +0.000 A 
ATOM     15  C   UNL     1      -0.327  10.823  20.249  0.00  0.00    +0.000 A 
ATOM     16  C   UNL     1      -1.294  10.946  19.205  0.00  0.00    +0.000 A 
ENDROOT
BRANCH   3  17
ATOM     17  C   UNL     1      -5.160  14.944  22.003  0.00  0.00    +0.000 A 
ATOM     18  C   UNL     1      -6.049  14.678  23.086  0.00  0.00    +0.000 A 
ATOM     19  C   UNL     1      -6.067  13.367  23.833  0.00  0.00    +0.000 C 
ATOM     20  C   UNL     1      -6.942  15.670  23.517  0.00  0.00    +0.000 A 
ATOM     21  C   UNL     1      -6.967  16.924  22.902  0.00  0.00    +0.000 A 
ATOM     22  C   UNL     1      -7.913  17.994  23.365  0.00  0.00    +0.000 C 
ATOM     23  C   UNL     1      -6.059  17.204  21.881  0.00  0.00    +0.000 A 
ATOM     24  C   UNL     1      -5.127  16.245  21.450  0.00  0.00    +0.000 A 
ATOM     25  C   UNL     1      -4.045  16.714  20.507  0.00  0.00    +0.000 C 
ENDBRANCH   3  17
BRANCH   1  27
ATOM     26  C   UNL     1      -7.650  13.037  20.147  0.00  0.00    +0.000 C 
ATOM     27  C   UNL     1      -6.507  13.653  19.354  0.00  0.00    +0.000 C 
ENDBRANCH   1  27
BRANCH  13  28
ATOM     28  O   UNL     1       2.136   8.522  18.694  0.00  0.00    +0.000 OA
ATOM     29  C   UNL     1       2.317   7.270  19.257  0.00  0.00    +0.000 C 
ENDBRANCH  13  28
BRANCH  14  30
ATOM     30  O   UNL     1       1.697   9.926  21.158  0.00  0.00    +0.000 OA
ATOM     31  C   UNL     1       1.428   9.394  22.407  0.00  0.00    +0.000 C 
ENDBRANCH  14  30
TORSDOF 4
ENDMDL
MODEL 7
REMARK VINA RESULT:      -5.8      4.910      8.486
REMARK  Name = 
REMARK  10 active torsions:
REMARK  status: ('A' for Active; 'I' for Inactive)
REMARK    1  A    between atoms: C_1  and  C_2
REMARK    2  A    between atoms: C_2  and  N_3
REMARK    3  A    between atoms: N_5  and  C_6
REMARK    4  A    between atoms: C_7  and  C_8
REMARK    5  A    between atoms: C_10  and  C_11
REMARK    6  A    between atoms: C_13  and  C_14
REMARK    7  A    between atoms: C_24  and  O_25
REMARK    8  A    between atoms: O_25  and  C_26
REMARK    9  A    between atoms: C_27  and  O_28
REMARK   10  A    between atoms: O_28  and  C_29
REMARK                            x       y       z     vdW  Elec       q    Type
REMARK                         _______ _______ _______ _____ _____    ______ ____
ROOT
ATOM      1  N   UNL     1       0.034  14.395  20.187  0.00  0.00    +0.000 N 
ATOM      2  C   UNL     1       0.800  14.059  21.324  0.00  0.00    +0.000 A 
ATOM      3  N   UNL     1       0.376  13.542  22.433  0.00  0.00    +0.000 NA
ATOM      4  C   UNL     1       2.198  14.312  21.320  0.00  0.00    +0.000 A 
ATOM      5  C   UNL     1       2.827  14.982  20.264  0.00  0.00    +0.000 A 
ATOM      6  N   UNL     1       2.033  15.416  19.236  0.00  0.00    +0.000 N 
ATOM      7  C   UNL     1       0.677  15.121  19.190  0.00  0.00    +0.000 A 
ATOM      8  O   UNL     1       0.038  15.553  18.238  0.00  0.00    +0.000 OA
ATOM      9  C   UNL     1       2.525  16.239  18.117  0.00  0.00    +0.000 C 
ATOM     10  C   UNL     1       4.015  16.501  18.038  0.00  0.00    +0.000 C 
ATOM     11  C   UNL     1       4.840  15.984  19.156  0.00  0.00    +0.000 A 
ATOM     12  C   UNL     1       6.203  16.232  19.031  0.00  0.00    +0.000 A 
ATOM     13  C   UNL     1       7.124  15.787  19.973  0.00  0.00    +0.000 A 
ATOM     14  C   UNL     1       6.646  15.077  21.105  0.00  0.00    +0.000 A 
ATOM     15  C   UNL     1       5.250  14.830  21.233  0.00  0.00    +0.000 A 
ATOM     16  C   UNL     1       4.317  15.268  20.244  0.00  0.00    +0.000 A 
ENDROOT
BRANCH   3  17
ATOM     17  C   UNL     1      -0.915  13.301  22.988  0.00  0.00    +0.000 A 
ATOM     18  C   UNL     1      -1.439  11.976  22.971  0.00  0.00    +0.000 A 
ATOM     19  C   UNL     1      -0.678  10.796  22.417  0.00  0.00    +0.000 C 
ATOM     20  C   UNL     1      -2.709  11.720  23.510  0.00  0.00    +0.000 A 
ATOM     21  C   UNL     1      -3.466  12.749  24.074  0.00  0.00    +0.000 A 
ATOM     22  C   UNL     1      -4.821  12.480  24.662  0.00  0.00    +0.000 C 
ATOM     23  C   UNL     1      -2.930  14.035  24.142  0.00  0.00    +0.000 A 
ATOM     24  C   UNL     1      -1.647  14.318  23.644  0.00  0.00    +0.000 A 
ATOM     25  C   UNL     1      -1.068  15.674  23.968  0.00  0.00    +0.000 C 
ENDBRANCH   3  17
BRANCH   1  27
ATOM     26  C   UNL     1      -1.901  12.764  19.457  0.00  0.00    +0.000 C 
ATOM     27  C   UNL     1      -1.441  14.144  19.904  0.00  0.00    +0.000 C 
ENDBRANCH   1  27
BRANCH  13  28
ATOM     28  O   UNL     1       8.454  16.023  19.789  0.00  0.00    +0.000 OA
ATOM     29  C   UNL     1       9.323  15.233  19.056  0.00  0.00    +0.000 C 
ENDBRANCH  13  28
BRANCH  14  30
ATOM     30  O   UNL     1       7.476  14.596  22.078  0.00  0.00    +0.000 OA
ATOM     31  C   UNL     1       7.447  13.337  22.653  0.00  0.00    +0.000 C 
ENDBRANCH  14  30
TORSDOF 4
ENDMDL
MODEL 8
REMARK VINA RESULT:      -5.7      3.107      8.418
REMARK  Name = 
REMARK  10 active torsions:
REMARK  status: ('A' for Active; 'I' for Inactive)
REMARK    1  A    between atoms: C_1  and  C_2
REMARK    2  A    between atoms: C_2  and  N_3
REMARK    3  A    between atoms: N_5  and  C_6
REMARK    4  A    between atoms: C_7  and  C_8
REMARK    5  A    between atoms: C_10  and  C_11
REMARK    6  A    between atoms: C_13  and  C_14
REMARK    7  A    between atoms: C_24  and  O_25
REMARK    8  A    between atoms: O_25  and  C_26
REMARK    9  A    between atoms: C_27  and  O_28
REMARK   10  A    between atoms: O_28  and  C_29
REMARK                            x       y       z     vdW  Elec       q    Type
REMARK                         _______ _______ _______ _____ _____    ______ ____
ROOT
ATOM      1  N   UNL     1      -5.326  13.263  19.735  0.00  0.00    +0.000 N 
ATOM      2  C   UNL     1      -4.356  13.390  20.752  0.00  0.00    +0.000 A 
ATOM      3  N   UNL     1      -4.415  14.140  21.807  0.00  0.00    +0.000 NA
ATOM      4  C   UNL     1      -3.146  12.653  20.654  0.00  0.00    +0.000 A 
ATOM      5  C   UNL     1      -2.837  11.882  19.528  0.00  0.00    +0.000 A 
ATOM      6  N   UNL     1      -3.739  11.887  18.498  0.00  0.00    +0.000 N 
ATOM      7  C   UNL     1      -4.956  12.548  18.601  0.00  0.00    +0.000 A 
ATOM      8  O   UNL     1      -5.703  12.508  17.631  0.00  0.00    +0.000 OA
ATOM      9  C   UNL     1      -3.502  11.228  17.202  0.00  0.00    +0.000 C 
ATOM     10  C   UNL     1      -2.248  10.389  17.059  0.00  0.00    +0.000 C 
ATOM     11  C   UNL     1      -1.316  10.386  18.211  0.00  0.00    +0.000 A 
ATOM     12  C   UNL     1      -0.189   9.588  18.041  0.00  0.00    +0.000 A 
ATOM     13  C   UNL     1       0.772   9.445  19.036  0.00  0.00    +0.000 A 
ATOM     14  C   UNL     1       0.599  10.155  20.252  0.00  0.00    +0.000 A 
ATOM     15  C   UNL     1      -0.553  10.976  20.421  0.00  0.00    +0.000 A 
ATOM     16  C   UNL     1      -1.547  11.093  19.402  0.00  0.00    +0.000 A 
ENDROOT
BRANCH   3  17
ATOM     17  C   UNL     1      -5.291  15.178  22.239  0.00  0.00    +0.000 A 
ATOM     18  C   UNL     1      -5.134  16.487  21.696  0.00  0.00    +0.000 A 
ATOM     19  C   UNL     1      -4.097  16.828  20.654  0.00  0.00    +0.000 C 
ATOM     20  C   UNL     1      -5.985  17.522  22.110  0.00  0.00    +0.000 A 
ATOM     21  C   UNL     1      -6.995  17.285  23.046  0.00  0.00    +0.000 A 
ATOM     22  C   UNL     1      -7.916  18.386  23.485  0.00  0.00    +0.000 C 
ATOM     23  C   UNL     1      -7.186  15.993  23.534  0.00  0.00    +0.000 A 
ATOM     24  C   UNL     1      -6.375  14.926  23.113  0.00  0.00    +0.000 A 
ATOM     25  C   UNL     1      -6.801  13.536  23.518  0.00  0.00    +0.000 C 
ENDBRANCH   3  17
BRANCH   1  27
ATOM     26  C   UNL     1      -6.961  15.119  18.827  0.00  0.00    +0.000 C 
ATOM     27  C   UNL     1      -6.724  13.861  19.650  0.00  0.00    +0.000 C 
ENDBRANCH   1  27
BRANCH  13  28
ATOM     28  O   UNL     1       1.841   8.623  18.837  0.00  0.00    +0.000 OA
ATOM     29  C   UNL     1       2.583   8.527  17.672  0.00  0.00    +0.000 C 
ENDBRANCH  13  28
BRANCH  14  30
ATOM     30  O   UNL     1       1.486  10.071  21.288  0.00  0.00    +0.000 OA
ATOM     31  C   UNL     1       1.374   9.283  22.421  0.00  0.00    +0.000 C 
ENDBRANCH  14  30
TORSDOF 4
ENDMDL
MODEL 9
REMARK VINA RESULT:      -5.7      2.262      3.416
REMARK  Name = 
REMARK  10 active torsions:
REMARK  status: ('A' for Active; 'I' for Inactive)
REMARK    1  A    between atoms: C_1  and  C_2
REMARK    2  A    between atoms: C_2  and  N_3
REMARK    3  A    between atoms: N_5  and  C_6
REMARK    4  A    between atoms: C_7  and  C_8
REMARK    5  A    between atoms: C_10  and  C_11
REMARK    6  A    between atoms: C_13  and  C_14
REMARK    7  A    between atoms: C_24  and  O_25
REMARK    8  A    between atoms: O_25  and  C_26
REMARK    9  A    between atoms: C_27  and  O_28
REMARK   10  A    between atoms: O_28  and  C_29
REMARK                            x       y       z     vdW  Elec       q    Type
REMARK                         _______ _______ _______ _____ _____    ______ ____
ROOT
ATOM      1  N   UNL     1       0.201  13.012  21.020  0.00  0.00    +0.000 N 
ATOM      2  C   UNL     1      -0.890  12.119  21.071  0.00  0.00    +0.000 A 
ATOM      3  N   UNL     1      -0.898  10.866  20.742  0.00  0.00    +0.000 NA
ATOM      4  C   UNL     1      -2.158  12.594  21.502  0.00  0.00    +0.000 A 
ATOM      5  C   UNL     1      -2.386  13.947  21.781  0.00  0.00    +0.000 A 
ATOM      6  N   UNL     1      -1.341  14.811  21.592  0.00  0.00    +0.000 N 
ATOM      7  C   UNL     1      -0.079  14.358  21.235  0.00  0.00    +0.000 A 
ATOM      8  O   UNL     1       0.800  15.198  21.080  0.00  0.00    +0.000 OA
ATOM      9  C   UNL     1      -1.458  16.274  21.724  0.00  0.00    +0.000 C 
ATOM     10  C   UNL     1      -2.773  16.832  22.227  0.00  0.00    +0.000 C 
ATOM     11  C   UNL     1      -3.867  15.856  22.449  0.00  0.00    +0.000 A 
ATOM     12  C   UNL     1      -5.049  16.412  22.928  0.00  0.00    +0.000 A 
ATOM     13  C   UNL     1      -6.164  15.636  23.222  0.00  0.00    +0.000 A 
ATOM     14  C   UNL     1      -6.091  14.235  23.004  0.00  0.00    +0.000 A 
ATOM     15  C   UNL     1      -4.882  13.670  22.509  0.00  0.00    +0.000 A 
ATOM     16  C   UNL     1      -3.734  14.475  22.237  0.00  0.00    +0.000 A 
ENDROOT
BRANCH   3  17
ATOM     17  C   UNL     1       0.029  10.006  20.084  0.00  0.00    +0.000 A 
ATOM     18  C   UNL     1       0.133  10.058  18.663  0.00  0.00    +0.000 A 
ATOM     19  C   UNL     1      -0.675  11.007  17.812  0.00  0.00    +0.000 C 
ATOM     20  C   UNL     1       1.039   9.219  17.998  0.00  0.00    +0.000 A 
ATOM     21  C   UNL     1       1.850   8.335  18.713  0.00  0.00    +0.000 A 
ATOM     22  C   UNL     1       2.829   7.441  18.007  0.00  0.00    +0.000 C 
ATOM     23  C   UNL     1       1.790   8.324  20.106  0.00  0.00    +0.000 A 
ATOM     24  C   UNL     1       0.920   9.178  20.805  0.00  0.00    +0.000 A 
ATOM     25  C   UNL     1       1.091   9.256  22.303  0.00  0.00    +0.000 C 
ENDBRANCH   3  17
BRANCH   1  27
ATOM     26  C   UNL     1       2.166  12.929  19.267  0.00  0.00    +0.000 C 
ATOM     27  C   UNL     1       1.663  12.738  20.690  0.00  0.00    +0.000 C 
ENDBRANCH   1  27
BRANCH  13  28
ATOM     28  O   UNL     1      -7.289  16.221  23.723  0.00  0.00    +0.000 OA
ATOM     29  C   UNL     1      -7.915  17.344  23.209  0.00  0.00    +0.000 C 
ENDBRANCH  13  28
BRANCH  14  30
ATOM     30  O   UNL     1      -7.133  13.392  23.271  0.00  0.00    +0.000 OA
ATOM     31  C   UNL     1      -7.518  12.283  22.537  0.00  0.00    +0.000 C 
ENDBRANCH  14  30
TORSDOF 4
ENDMDL
