MODEL 1
REMARK VINA RESULT:      -8.5      0.000      0.000
REMARK  Name = 
REMARK  3 active torsions:
REMARK  status: ('A' for Active; 'I' for Inactive)
REMARK    1  A    between atoms: C_2  and  C_22
REMARK    2  A    between atoms: C_9  and  C_10
REMARK    3  A    between atoms: C_17  and  O_18
REMARK                            x       y       z     vdW  Elec       q    Type
REMARK                         _______ _______ _______ _____ _____    ______ ____
ROOT
ATOM      1  O   UNL     1      -0.507  10.228  23.637  0.00  0.00    +0.000 OA
ATOM      2  C   UNL     1      -0.834  10.946  22.704  0.00  0.00    +0.000 C 
ATOM      3  N   UNL     1      -0.576  10.778  21.363  0.00  0.00    +0.000 N 
ATOM      4  C   UNL     1       0.167   9.715  20.832  0.00  0.00    +0.000 A 
ATOM      5  C   UNL     1       0.619   9.832  19.523  0.00  0.00    +0.000 A 
ATOM      6  C   UNL     1       1.495   8.854  19.017  0.00  0.00    +0.000 A 
ATOM      7  C   UNL     1       2.052   8.923  17.744  0.00  0.00    +0.000 A 
ATOM      8  N   UNL     1       2.936   8.024  17.247  0.00  0.00    +0.000 NA
ATOM      9  C   UNL     1       3.360   7.015  18.050  0.00  0.00    +0.000 A 
ATOM     10  C   UNL     1       2.825   6.851  19.335  0.00  0.00    +0.000 A 
ATOM     11  C   UNL     1       1.871   7.772  19.816  0.00  0.00    +0.000 A 
ATOM     12  C   UNL     1       1.291   7.711  21.082  0.00  0.00    +0.000 A 
ATOM     13  N   UNL     1       0.461   8.652  21.592  0.00  0.00    +0.000 NA
ATOM     14  H   UNL     1      -0.817  11.534  20.743  0.00  0.00    +0.000 HD
ENDROOT
BRANCH   9  15
ATOM     15  C   UNL     1       4.414   6.147  17.452  0.00  0.00    +0.000 A 
ATOM     16  C   UNL     1       5.698   6.675  17.187  0.00  0.00    +0.000 A 
ATOM     17  C   UNL     1       6.697   5.925  16.556  0.00  0.00    +0.000 A 
ATOM     18  C   UNL     1       6.463   4.597  16.226  0.00  0.00    +0.000 A 
ATOM     19  C   UNL     1       5.230   4.025  16.521  0.00  0.00    +0.000 A 
ATOM     20  C   UNL     1       4.209   4.789  17.111  0.00  0.00    +0.000 A 
ATOM     21 CL   UNL     1       2.700   3.958  17.324  0.00  0.00    +0.000 Cl
ENDBRANCH   9  15
BRANCH   2  22
ATOM     22  C   UNL     1      -1.533  12.238  22.991  0.00  0.00    +0.000 C 
ATOM     23  C   UNL     1      -2.605  12.757  22.060  0.00  0.00    +0.000 C 
ATOM     24  C   UNL     1      -2.990  12.205  23.401  0.00  0.00    +0.000 C 
ENDBRANCH   2  22
BRANCH  10  25
ATOM     25  O   UNL     1       3.210   5.857  20.203  0.00  0.00    +0.000 OA
ATOM     26  H   UNL     1       4.055   5.477  19.906  0.00  0.00    +0.000 HD
ENDBRANCH  10  25
TORSDOF 3
ENDMDL
MODEL 2
REMARK VINA RESULT:      -8.1      1.170      1.523
REMARK  Name = 
REMARK  3 active torsions:
REMARK  status: ('A' for Active; 'I' for Inactive)
REMARK    1  A    between atoms: C_2  and  C_22
REMARK    2  A    between atoms: C_9  and  C_10
REMARK    3  A    between atoms: C_17  and  O_18
REMARK                            x       y       z     vdW  Elec       q    Type
REMARK                         _______ _______ _______ _____ _____    ______ ____
ROOT
ATOM      1  O   UNL     1      -0.311  10.054  23.544  0.00  0.00    +0.000 OA
ATOM      2  C   UNL     1      -0.620  10.800  22.627  0.00  0.00    +0.000 C 
ATOM      3  N   UNL     1      -0.356  10.659  21.283  0.00  0.00    +0.000 N 
ATOM      4  C   UNL     1       0.373   9.596  20.732  0.00  0.00    +0.000 A 
ATOM      5  C   UNL     1       0.835   9.737  19.429  0.00  0.00    +0.000 A 
ATOM      6  C   UNL     1       1.697   8.756  18.905  0.00  0.00    +0.000 A 
ATOM      7  C   UNL     1       2.265   8.847  17.638  0.00  0.00    +0.000 A 
ATOM      8  N   UNL     1       3.137   7.944  17.125  0.00  0.00    +0.000 NA
ATOM      9  C   UNL     1       3.538   6.910  17.906  0.00  0.00    +0.000 A 
ATOM     10  C   UNL     1       2.992   6.724  19.183  0.00  0.00    +0.000 A 
ATOM     11  C   UNL     1       2.050   7.649  19.680  0.00  0.00    +0.000 A 
ATOM     12  C   UNL     1       1.461   7.569  20.941  0.00  0.00    +0.000 A 
ATOM     13  N   UNL     1       0.643   8.511  21.468  0.00  0.00    +0.000 NA
ATOM     14  H   UNL     1      -0.579  11.434  20.680  0.00  0.00    +0.000 HD
ENDROOT
BRANCH   9  15
ATOM     15  C   UNL     1       4.581   6.038  17.294  0.00  0.00    +0.000 A 
ATOM     16  C   UNL     1       4.246   4.734  16.861  0.00  0.00    +0.000 A 
ATOM     17  C   UNL     1       5.204   3.849  16.352  0.00  0.00    +0.000 A 
ATOM     18  C   UNL     1       6.519   4.263  16.201  0.00  0.00    +0.000 A 
ATOM     19  C   UNL     1       6.876   5.557  16.563  0.00  0.00    +0.000 A 
ATOM     20  C   UNL     1       5.928   6.433  17.118  0.00  0.00    +0.000 A 
ATOM     21 CL   UNL     1       6.552   7.976  17.610  0.00  0.00    +0.000 Cl
ENDBRANCH   9  15
BRANCH   2  22
ATOM     22  C   UNL     1      -1.299  12.096  22.940  0.00  0.00    +0.000 C 
ATOM     23  C   UNL     1      -2.351  12.658  22.012  0.00  0.00    +0.000 C 
ATOM     24  C   UNL     1      -2.760  12.079  23.334  0.00  0.00    +0.000 C 
ENDBRANCH   2  22
BRANCH  10  25
ATOM     25  O   UNL     1       3.353   5.703  20.030  0.00  0.00    +0.000 OA
ATOM     26  H   UNL     1       2.779   4.934  19.873  0.00  0.00    +0.000 HD
ENDBRANCH  10  25
TORSDOF 3
ENDMDL
MODEL 3
REMARK VINA RESULT:      -8.0      1.087      1.261
REMARK  Name = 
REMARK  3 active torsions:
REMARK  status: ('A' for Active; 'I' for Inactive)
REMARK    1  A    between atoms: C_2  and  C_22
REMARK    2  A    between atoms: C_9  and  C_10
REMARK    3  A    between atoms: C_17  and  O_18
REMARK                            x       y       z     vdW  Elec       q    Type
REMARK                         _______ _______ _______ _____ _____    ______ ____
ROOT
ATOM      1  O   UNL     1      -0.667  11.483  23.410  0.00  0.00    +0.000 OA
ATOM      2  C   UNL     1      -0.894  12.138  22.403  0.00  0.00    +0.000 C 
ATOM      3  N   UNL     1      -0.647  11.803  21.091  0.00  0.00    +0.000 N 
ATOM      4  C   UNL     1      -0.035  10.609  20.685  0.00  0.00    +0.000 A 
ATOM      5  C   UNL     1       0.440  10.536  19.381  0.00  0.00    +0.000 A 
ATOM      6  C   UNL     1       1.194   9.412  18.995  0.00  0.00    +0.000 A 
ATOM      7  C   UNL     1       1.767   9.283  17.734  0.00  0.00    +0.000 A 
ATOM      8  N   UNL     1       2.539   8.238  17.349  0.00  0.00    +0.000 NA
ATOM      9  C   UNL     1       2.828   7.272  18.257  0.00  0.00    +0.000 A 
ATOM     10  C   UNL     1       2.265   7.306  19.541  0.00  0.00    +0.000 A 
ATOM     11  C   UNL     1       1.427   8.380  19.906  0.00  0.00    +0.000 A 
ATOM     12  C   UNL     1       0.832   8.520  21.159  0.00  0.00    +0.000 A 
ATOM     13  N   UNL     1       0.119   9.601  21.555  0.00  0.00    +0.000 NA
ATOM     14  H   UNL     1      -0.786  12.516  20.393  0.00  0.00    +0.000 HD
ENDROOT
BRANCH   9  15
ATOM     15  C   UNL     1       3.772   6.226  17.773  0.00  0.00    +0.000 A 
ATOM     16  C   UNL     1       5.119   6.561  17.501  0.00  0.00    +0.000 A 
ATOM     17  C   UNL     1       6.025   5.635  16.971  0.00  0.00    +0.000 A 
ATOM     18  C   UNL     1       5.628   4.323  16.754  0.00  0.00    +0.000 A 
ATOM     19  C   UNL     1       4.327   3.941  17.061  0.00  0.00    +0.000 A 
ATOM     20  C   UNL     1       3.401   4.879  17.549  0.00  0.00    +0.000 A 
ATOM     21 CL   UNL     1       1.794   4.269  17.789  0.00  0.00    +0.000 Cl
ENDBRANCH   9  15
BRANCH   2  22
ATOM     22  C   UNL     1      -1.432  13.527  22.544  0.00  0.00    +0.000 C 
ATOM     23  C   UNL     1      -1.409  14.229  23.882  0.00  0.00    +0.000 C 
ATOM     24  C   UNL     1      -0.465  14.662  22.799  0.00  0.00    +0.000 C 
ENDBRANCH   2  22
BRANCH  10  25
ATOM     25  O   UNL     1       2.516   6.366  20.512  0.00  0.00    +0.000 OA
ATOM     26  H   UNL     1       3.114   5.686  20.157  0.00  0.00    +0.000 HD
ENDBRANCH  10  25
TORSDOF 3
ENDMDL
MODEL 4
REMARK VINA RESULT:      -7.3      1.930      2.358
REMARK  Name = 
REMARK  3 active torsions:
REMARK  status: ('A' for Active; 'I' for Inactive)
REMARK    1  A    between atoms: C_2  and  C_22
REMARK    2  A    between atoms: C_9  and  C_10
REMARK    3  A    between atoms: C_17  and  O_18
REMARK                            x       y       z     vdW  Elec       q    Type
REMARK                         _______ _______ _______ _____ _____    ______ ____
ROOT
ATOM      1  O   UNL     1      -1.921  12.666  19.261  0.00  0.00    +0.000 OA
ATOM      2  C   UNL     1      -1.972  12.253  20.410  0.00  0.00    +0.000 C 
ATOM      3  N   UNL     1      -1.196  11.284  21.006  0.00  0.00    +0.000 N 
ATOM      4  C   UNL     1      -0.194  10.561  20.345  0.00  0.00    +0.000 A 
ATOM      5  C   UNL     1       0.286   9.412  20.960  0.00  0.00    +0.000 A 
ATOM      6  C   UNL     1       1.178   8.585  20.252  0.00  0.00    +0.000 A 
ATOM      7  C   UNL     1       1.658   7.381  20.758  0.00  0.00    +0.000 A 
ATOM      8  N   UNL     1       2.477   6.540  20.080  0.00  0.00    +0.000 NA
ATOM      9  C   UNL     1       2.816   6.849  18.803  0.00  0.00    +0.000 A 
ATOM     10  C   UNL     1       2.405   8.058  18.226  0.00  0.00    +0.000 A 
ATOM     11  C   UNL     1       1.590   8.941  18.966  0.00  0.00    +0.000 A 
ATOM     12  C   UNL     1       1.111  10.158  18.481  0.00  0.00    +0.000 A 
ATOM     13  N   UNL     1       0.239  10.957  19.141  0.00  0.00    +0.000 NA
ATOM     14  H   UNL     1      -1.457  10.981  21.931  0.00  0.00    +0.000 HD
ENDROOT
BRANCH   9  15
ATOM     15  C   UNL     1       3.627   5.809  18.107  0.00  0.00    +0.000 A 
ATOM     16  C   UNL     1       5.008   6.019  17.890  0.00  0.00    +0.000 A 
ATOM     17  C   UNL     1       5.796   5.111  17.173  0.00  0.00    +0.000 A 
ATOM     18  C   UNL     1       5.240   3.929  16.705  0.00  0.00    +0.000 A 
ATOM     19  C   UNL     1       3.897   3.661  16.948  0.00  0.00    +0.000 A 
ATOM     20  C   UNL     1       3.091   4.592  17.625  0.00  0.00    +0.000 A 
ATOM     21 CL   UNL     1       1.417   4.154  17.760  0.00  0.00    +0.000 Cl
ENDBRANCH   9  15
BRANCH   2  22
ATOM     22  C   UNL     1      -3.049  12.758  21.318  0.00  0.00    +0.000 C 
ATOM     23  C   UNL     1      -2.974  12.519  22.809  0.00  0.00    +0.000 C 
ATOM     24  C   UNL     1      -2.733  13.896  22.265  0.00  0.00    +0.000 C 
ENDBRANCH   2  22
BRANCH  10  25
ATOM     25  O   UNL     1       2.706   8.434  16.939  0.00  0.00    +0.000 OA
ATOM     26  H   UNL     1       3.631   8.733  16.898  0.00  0.00    +0.000 HD
ENDBRANCH  10  25
TORSDOF 3
ENDMDL
MODEL 5
REMARK VINA RESULT:      -7.1      3.020      9.021
REMARK  Name = 
REMARK  3 active torsions:
REMARK  status: ('A' for Active; 'I' for Inactive)
REMARK    1  A    between atoms: C_2  and  C_22
REMARK    2  A    between atoms: C_9  and  C_10
REMARK    3  A    between atoms: C_17  and  O_18
REMARK                            x       y       z     vdW  Elec       q    Type
REMARK                         _______ _______ _______ _____ _____    ______ ____
ROOT
ATOM      1  O   UNL     1       2.631   5.290  20.106  0.00  0.00    +0.000 OA
ATOM      2  C   UNL     1       2.633   5.870  19.030  0.00  0.00    +0.000 C 
ATOM      3  N   UNL     1       2.266   7.168  18.757  0.00  0.00    +0.000 N 
ATOM      4  C   UNL     1       1.779   8.067  19.715  0.00  0.00    +0.000 A 
ATOM      5  C   UNL     1       1.154   9.221  19.260  0.00  0.00    +0.000 A 
ATOM      6  C   UNL     1       0.521  10.063  20.194  0.00  0.00    +0.000 A 
ATOM      7  C   UNL     1      -0.188  11.202  19.826  0.00  0.00    +0.000 A 
ATOM      8  N   UNL     1      -0.849  12.004  20.696  0.00  0.00    +0.000 NA
ATOM      9  C   UNL     1      -0.881  11.658  22.007  0.00  0.00    +0.000 A 
ATOM     10  C   UNL     1      -0.166  10.544  22.470  0.00  0.00    +0.000 A 
ATOM     11  C   UNL     1       0.554   9.749  21.554  0.00  0.00    +0.000 A 
ATOM     12  C   UNL     1       1.281   8.612  21.905  0.00  0.00    +0.000 A 
ATOM     13  N   UNL     1       1.882   7.781  21.020  0.00  0.00    +0.000 NA
ATOM     14  H   UNL     1       2.214   7.444  17.789  0.00  0.00    +0.000 HD
ENDROOT
BRANCH   9  15
ATOM     15  C   UNL     1      -1.725  12.539  22.862  0.00  0.00    +0.000 A 
ATOM     16  C   UNL     1      -2.944  12.054  23.391  0.00  0.00    +0.000 A 
ATOM     17  C   UNL     1      -3.809  12.865  24.134  0.00  0.00    +0.000 A 
ATOM     18  C   UNL     1      -3.452  14.174  24.427  0.00  0.00    +0.000 A 
ATOM     19  C   UNL     1      -2.235  14.670  23.973  0.00  0.00    +0.000 A 
ATOM     20  C   UNL     1      -1.385  13.874  23.186  0.00  0.00    +0.000 A 
ATOM     21 CL   UNL     1       0.047  14.671  22.615  0.00  0.00    +0.000 Cl
ENDBRANCH   9  15
BRANCH   2  22
ATOM     22  C   UNL     1       2.985   5.106  17.793  0.00  0.00    +0.000 C 
ATOM     23  C   UNL     1       3.639   3.746  17.887  0.00  0.00    +0.000 C 
ATOM     24  C   UNL     1       2.205   3.853  17.460  0.00  0.00    +0.000 C 
ENDBRANCH   2  22
BRANCH  10  25
ATOM     25  O   UNL     1      -0.156  10.131  23.781  0.00  0.00    +0.000 OA
ATOM     26  H   UNL     1       0.437   9.367  23.874  0.00  0.00    +0.000 HD
ENDBRANCH  10  25
TORSDOF 3
ENDMDL
MODEL 6
REMARK VINA RESULT:      -7.1      2.465      8.454
REMARK  Name = 
REMARK  3 active torsions:
REMARK  status: ('A' for Active; 'I' for Inactive)
REMARK    1  A    between atoms: C_2  and  C_22
REMARK    2  A    between atoms: C_9  and  C_10
REMARK    3  A    between atoms: C_17  and  O_18
REMARK                            x       y       z     vdW  Elec       q    Type
REMARK                         _______ _______ _______ _____ _____    ______ ____
ROOT
ATOM      1  O   UNL     1       3.490   4.061  18.439  0.00  0.00    +0.000 OA
ATOM      2  C   UNL     1       3.951   4.759  17.549  0.00  0.00    +0.000 C 
ATOM      3  N   UNL     1       3.845   6.122  17.388  0.00  0.00    +0.000 N 
ATOM      4  C   UNL     1       3.127   6.962  18.250  0.00  0.00    +0.000 A 
ATOM      5  C   UNL     1       2.835   8.246  17.806  0.00  0.00    +0.000 A 
ATOM      6  C   UNL     1       1.986   9.057  18.582  0.00  0.00    +0.000 A 
ATOM      7  C   UNL     1       1.584  10.328  18.186  0.00  0.00    +0.000 A 
ATOM      8  N   UNL     1       0.728  11.112  18.888  0.00  0.00    +0.000 NA
ATOM      9  C   UNL     1       0.175  10.618  20.024  0.00  0.00    +0.000 A 
ATOM     10  C   UNL     1       0.550   9.359  20.513  0.00  0.00    +0.000 A 
ATOM     11  C   UNL     1       1.477   8.578  19.791  0.00  0.00    +0.000 A 
ATOM     12  C   UNL     1       1.903   7.309  20.179  0.00  0.00    +0.000 A 
ATOM     13  N   UNL     1       2.705   6.508  19.437  0.00  0.00    +0.000 NA
ATOM     14  H   UNL     1       4.185   6.518  16.527  0.00  0.00    +0.000 HD
ENDROOT
BRANCH   9  15
ATOM     15  C   UNL     1      -0.836  11.509  20.661  0.00  0.00    +0.000 A 
ATOM     16  C   UNL     1      -0.609  12.018  21.960  0.00  0.00    +0.000 A 
ATOM     17  C   UNL     1      -1.560  12.795  22.633  0.00  0.00    +0.000 A 
ATOM     18  C   UNL     1      -2.745  13.141  22.000  0.00  0.00    +0.000 A 
ATOM     19  C   UNL     1      -2.981  12.706  20.701  0.00  0.00    +0.000 A 
ATOM     20  C   UNL     1      -2.050  11.887  20.039  0.00  0.00    +0.000 A 
ATOM     21 CL   UNL     1      -2.535  11.347  18.463  0.00  0.00    +0.000 Cl
ENDBRANCH   9  15
BRANCH   2  22
ATOM     22  C   UNL     1       4.663   4.105  16.406  0.00  0.00    +0.000 C 
ATOM     23  C   UNL     1       5.404   4.936  15.384  0.00  0.00    +0.000 C 
ATOM     24  C   UNL     1       6.175   4.123  16.381  0.00  0.00    +0.000 C 
ENDBRANCH   2  22
BRANCH  10  25
ATOM     25  O   UNL     1       0.028   8.794  21.653  0.00  0.00    +0.000 OA
ATOM     26  H   UNL     1       0.641   8.936  22.394  0.00  0.00    +0.000 HD
ENDBRANCH  10  25
TORSDOF 3
ENDMDL
MODEL 7
REMARK VINA RESULT:      -7.1      3.050      9.308
REMARK  Name = 
REMARK  3 active torsions:
REMARK  status: ('A' for Active; 'I' for Inactive)
REMARK    1  A    between atoms: C_2  and  C_22
REMARK    2  A    between atoms: C_9  and  C_10
REMARK    3  A    between atoms: C_17  and  O_18
REMARK                            x       y       z     vdW  Elec       q    Type
REMARK                         _______ _______ _______ _____ _____    ______ ____
ROOT
ATOM      1  O   UNL     1       2.962   8.289  17.115  0.00  0.00    +0.000 OA
ATOM      2  C   UNL     1       3.149   7.493  18.023  0.00  0.00    +0.000 C 
ATOM      3  N   UNL     1       2.521   7.428  19.247  0.00  0.00    +0.000 N 
ATOM      4  C   UNL     1       1.540   8.332  19.677  0.00  0.00    +0.000 A 
ATOM      5  C   UNL     1       1.224   8.348  21.030  0.00  0.00    +0.000 A 
ATOM      6  C   UNL     1       0.358   9.347  21.513  0.00  0.00    +0.000 A 
ATOM      7  C   UNL     1       0.039   9.484  22.860  0.00  0.00    +0.000 A 
ATOM      8  N   UNL     1      -0.750  10.465  23.362  0.00  0.00    +0.000 NA
ATOM      9  C   UNL     1      -1.224  11.416  22.518  0.00  0.00    +0.000 A 
ATOM     10  C   UNL     1      -0.979  11.336  21.140  0.00  0.00    +0.000 A 
ATOM     11  C   UNL     1      -0.192  10.281  20.632  0.00  0.00    +0.000 A 
ATOM     12  C   UNL     1       0.127  10.118  19.285  0.00  0.00    +0.000 A 
ATOM     13  N   UNL     1       0.972   9.175  18.804  0.00  0.00    +0.000 NA
ATOM     14  H   UNL     1       2.887   6.780  19.925  0.00  0.00    +0.000 HD
ENDROOT
BRANCH   9  15
ATOM     15  C   UNL     1      -1.987  12.511  23.181  0.00  0.00    +0.000 A 
ATOM     16  C   UNL     1      -3.241  12.238  23.775  0.00  0.00    +0.000 A 
ATOM     17  C   UNL     1      -4.032  13.244  24.341  0.00  0.00    +0.000 A 
ATOM     18  C   UNL     1      -3.565  14.550  24.388  0.00  0.00    +0.000 A 
ATOM     19  C   UNL     1      -2.312  14.848  23.864  0.00  0.00    +0.000 A 
ATOM     20  C   UNL     1      -1.535  13.850  23.253  0.00  0.00    +0.000 A 
ATOM     21 CL   UNL     1      -0.042  14.401  22.560  0.00  0.00    +0.000 Cl
ENDBRANCH   9  15
BRANCH   2  22
ATOM     22  C   UNL     1       4.245   6.483  17.892  0.00  0.00    +0.000 C 
ATOM     23  C   UNL     1       3.974   5.127  17.281  0.00  0.00    +0.000 C 
ATOM     24  C   UNL     1       4.766   6.144  16.512  0.00  0.00    +0.000 C 
ENDBRANCH   2  22
BRANCH  10  25
ATOM     25  O   UNL     1      -1.421  12.264  20.228  0.00  0.00    +0.000 OA
ATOM     26  H   UNL     1      -0.716  12.912  20.058  0.00  0.00    +0.000 HD
ENDBRANCH  10  25
TORSDOF 3
ENDMDL
MODEL 8
REMARK VINA RESULT:      -7.1      2.607      8.690
REMARK  Name = 
REMARK  3 active torsions:
REMARK  status: ('A' for Active; 'I' for Inactive)
REMARK    1  A    between atoms: C_2  and  C_22
REMARK    2  A    between atoms: C_9  and  C_10
REMARK    3  A    between atoms: C_17  and  O_18
REMARK                            x       y       z     vdW  Elec       q    Type
REMARK                         _______ _______ _______ _____ _____    ______ ____
ROOT
ATOM      1  O   UNL     1       5.327   6.748  16.599  0.00  0.00    +0.000 OA
ATOM      2  C   UNL     1       5.080   5.910  17.454  0.00  0.00    +0.000 C 
ATOM      3  N   UNL     1       4.068   5.912  18.387  0.00  0.00    +0.000 N 
ATOM      4  C   UNL     1       3.131   6.945  18.530  0.00  0.00    +0.000 A 
ATOM      5  C   UNL     1       2.375   6.975  19.695  0.00  0.00    +0.000 A 
ATOM      6  C   UNL     1       1.541   8.083  19.934  0.00  0.00    +0.000 A 
ATOM      7  C   UNL     1       0.800   8.234  21.103  0.00  0.00    +0.000 A 
ATOM      8  N   UNL     1       0.027   9.311  21.383  0.00  0.00    +0.000 NA
ATOM      9  C   UNL     1       0.007  10.345  20.504  0.00  0.00    +0.000 A 
ATOM     10  C   UNL     1       0.697  10.263  19.287  0.00  0.00    +0.000 A 
ATOM     11  C   UNL     1       1.459   9.112  18.994  0.00  0.00    +0.000 A 
ATOM     12  C   UNL     1       2.196   8.936  17.824  0.00  0.00    +0.000 A 
ATOM     13  N   UNL     1       3.017   7.887  17.584  0.00  0.00    +0.000 NA
ATOM     14  H   UNL     1       4.086   5.198  19.097  0.00  0.00    +0.000 HD
ENDROOT
BRANCH   9  15
ATOM     15  C   UNL     1      -0.782  11.527  20.954  0.00  0.00    +0.000 A 
ATOM     16  C   UNL     1      -0.419  12.209  22.138  0.00  0.00    +0.000 A 
ATOM     17  C   UNL     1      -1.172  13.275  22.644  0.00  0.00    +0.000 A 
ATOM     18  C   UNL     1      -2.279  13.735  21.947  0.00  0.00    +0.000 A 
ATOM     19  C   UNL     1      -2.636  13.126  20.749  0.00  0.00    +0.000 A 
ATOM     20  C   UNL     1      -1.911  12.025  20.261  0.00  0.00    +0.000 A 
ATOM     21 CL   UNL     1      -2.541  11.315  18.808  0.00  0.00    +0.000 Cl
ENDBRANCH   9  15
BRANCH   2  22
ATOM     22  C   UNL     1       6.006   4.747  17.622  0.00  0.00    +0.000 C 
ATOM     23  C   UNL     1       7.082   4.466  16.598  0.00  0.00    +0.000 C 
ATOM     24  C   UNL     1       7.461   5.012  17.943  0.00  0.00    +0.000 C 
ENDBRANCH   2  22
BRANCH  10  25
ATOM     25  O   UNL     1       0.725  11.271  18.353  0.00  0.00    +0.000 OA
ATOM     26  H   UNL     1       0.293  12.062  18.718  0.00  0.00    +0.000 HD
ENDBRANCH  10  25
TORSDOF 3
ENDMDL
MODEL 9
REMARK VINA RESULT:      -7.0      1.437      1.847
REMARK  Name = 
REMARK  3 active torsions:
REMARK  status: ('A' for Active; 'I' for Inactive)
REMARK    1  A    between atoms: C_2  and  C_22
REMARK    2  A    between atoms: C_9  and  C_10
REMARK    3  A    between atoms: C_17  and  O_18
REMARK                            x       y       z     vdW  Elec       q    Type
REMARK                         _______ _______ _______ _____ _____    ______ ____
ROOT
ATOM      1  O   UNL     1      -0.540  11.301  23.295  0.00  0.00    +0.000 OA
ATOM      2  C   UNL     1      -0.762  11.962  22.292  0.00  0.00    +0.000 C 
ATOM      3  N   UNL     1      -0.505  11.637  20.979  0.00  0.00    +0.000 N 
ATOM      4  C   UNL     1       0.113  10.448  20.569  0.00  0.00    +0.000 A 
ATOM      5  C   UNL     1       0.596  10.386  19.268  0.00  0.00    +0.000 A 
ATOM      6  C   UNL     1       1.355   9.267  18.878  0.00  0.00    +0.000 A 
ATOM      7  C   UNL     1       1.938   9.148  17.620  0.00  0.00    +0.000 A 
ATOM      8  N   UNL     1       2.714   8.107  17.233  0.00  0.00    +0.000 NA
ATOM      9  C   UNL     1       3.000   7.136  18.137  0.00  0.00    +0.000 A 
ATOM     10  C   UNL     1       2.429   7.159  19.416  0.00  0.00    +0.000 A 
ATOM     11  C   UNL     1       1.585   8.229  19.784  0.00  0.00    +0.000 A 
ATOM     12  C   UNL     1       0.982   8.358  21.034  0.00  0.00    +0.000 A 
ATOM     13  N   UNL     1       0.263   9.435  21.432  0.00  0.00    +0.000 NA
ATOM     14  H   UNL     1      -0.642  12.355  20.285  0.00  0.00    +0.000 HD
ENDROOT
BRANCH   9  15
ATOM     15  C   UNL     1       3.950   6.095  17.651  0.00  0.00    +0.000 A 
ATOM     16  C   UNL     1       3.502   4.770  17.445  0.00  0.00    +0.000 A 
ATOM     17  C   UNL     1       4.371   3.740  17.066  0.00  0.00    +0.000 A 
ATOM     18  C   UNL     1       5.707   4.017  16.816  0.00  0.00    +0.000 A 
ATOM     19  C   UNL     1       6.174   5.320  16.953  0.00  0.00    +0.000 A 
ATOM     20  C   UNL     1       5.316   6.347  17.380  0.00  0.00    +0.000 A 
ATOM     21 CL   UNL     1       6.073   7.894  17.597  0.00  0.00    +0.000 Cl
ENDBRANCH   9  15
BRANCH   2  22
ATOM     22  C   UNL     1      -1.304  13.349  22.439  0.00  0.00    +0.000 C 
ATOM     23  C   UNL     1      -1.242  14.063  23.770  0.00  0.00    +0.000 C 
ATOM     24  C   UNL     1      -0.337  14.493  22.653  0.00  0.00    +0.000 C 
ENDBRANCH   2  22
BRANCH  10  25
ATOM     25  O   UNL     1       2.676   6.213  20.383  0.00  0.00    +0.000 OA
ATOM     26  H   UNL     1       2.123   6.395  21.162  0.00  0.00    +0.000 HD
ENDBRANCH  10  25
TORSDOF 3
ENDMDL
