MODEL 1
REMARK VINA RESULT:      -7.8      0.000      0.000
REMARK  Name = 
REMARK  10 active torsions:
REMARK  status: ('A' for Active; 'I' for Inactive)
REMARK    1  A    between atoms: C_1  and  N_2
REMARK    2  A    between atoms: N_2  and  C_3
REMARK    3  A    between atoms: N_2  and  C_4
REMARK    4  A    between atoms: C_4  and  C_5
REMARK    5  A    between atoms: C_4  and  C_17
REMARK    6  A    between atoms: C_5  and  N_6
REMARK    7  A    between atoms: N_9  and  C_10
REMARK    8  A    between atoms: C_10  and  C_11
REMARK    9  A    between atoms: C_11  and  C_12
REMARK   10  A    between atoms: C_17  and  C_18
REMARK                            x       y       z     vdW  Elec       q    Type
REMARK                         _______ _______ _______ _____ _____    ______ ____
ROOT
ATOM      1  C   UNL     1       2.615   4.361  19.381  0.00  0.00    +0.000 C 
ENDROOT
BRANCH   1   3
ATOM      2  C   UNL     1       0.642   3.124  20.169  0.00  0.00    +0.000 C 
ATOM      3  N   UNL     1       1.447   3.503  19.005  0.00  0.00    +0.000 NA
ATOM      4  C   UNL     1       1.796   2.311  18.231  0.00  0.00    +0.000 C 
ENDBRANCH   1   3
BRANCH   1   5
ATOM      5  C   UNL     1       3.762   3.514  20.004  0.00  0.00    +0.000 C 
BRANCH   5   6
ATOM      6  N   UNL     1       4.971   3.404  19.201  0.00  0.00    +0.000 N 
ATOM      7  C   UNL     1       5.802   4.498  19.179  0.00  0.00    +0.000 C 
ATOM      8  O   UNL     1       5.557   5.551  19.758  0.00  0.00    +0.000 OA
ATOM      9  N   UNL     1       6.926   4.297  18.414  0.00  0.00    +0.000 N 
ATOM     10  H   UNL     1       5.422   2.499  19.211  0.00  0.00    +0.000 HD
ATOM     11  H   UNL     1       6.768   3.675  17.634  0.00  0.00    +0.000 HD
BRANCH   9  12
ATOM     12  C   UNL     1       7.797   5.447  18.198  0.00  0.00    +0.000 C 
BRANCH  12  13
ATOM     13  C   UNL     1       7.358   6.345  17.042  0.00  0.00    +0.000 C 
BRANCH  13  14
ATOM     14  C   UNL     1       6.769   5.540  15.914  0.00  0.00    +0.000 A 
ATOM     15  C   UNL     1       7.432   4.796  14.957  0.00  0.00    +0.000 A 
ATOM     16  C   UNL     1       6.540   4.192  14.024  0.00  0.00    +0.000 A 
ATOM     17  C   UNL     1       5.225   4.489  14.303  0.00  0.00    +0.000 A 
ATOM     18  S   UNL     1       5.071   5.483  15.685  0.00  0.00    +0.000 S 
ENDBRANCH  13  14
ENDBRANCH  12  13
ENDBRANCH   9  12
ENDBRANCH   5   6
ENDBRANCH   1   5
BRANCH   1  19
ATOM     19  C   UNL     1       2.283   5.565  20.326  0.00  0.00    +0.000 C 
BRANCH  19  20
ATOM     20  C   UNL     1       2.213   6.909  19.610  0.00  0.00    +0.000 A 
ATOM     21  C   UNL     1       2.766   6.989  18.320  0.00  0.00    +0.000 A 
ATOM     22  C   UNL     1       2.628   8.138  17.547  0.00  0.00    +0.000 A 
ATOM     23  C   UNL     1       1.930   9.229  18.053  0.00  0.00    +0.000 A 
ATOM     24  C   UNL     1       1.387   9.200  19.346  0.00  0.00    +0.000 A 
ATOM     25  C   UNL     1       0.681  10.315  19.825  0.00  0.00    +0.000 A 
ATOM     26  C   UNL     1       0.152  10.327  21.113  0.00  0.00    +0.000 A 
ATOM     27  C   UNL     1       0.340   9.231  21.943  0.00  0.00    +0.000 A 
ATOM     28  C   UNL     1       1.024   8.105  21.472  0.00  0.00    +0.000 A 
ATOM     29  C   UNL     1       1.546   8.047  20.160  0.00  0.00    +0.000 A 
ENDBRANCH  19  20
ENDBRANCH   1  19
TORSDOF 8
ENDMDL
MODEL 2
REMARK VINA RESULT:      -7.6      0.874      1.165
REMARK  Name = 
REMARK  10 active torsions:
REMARK  status: ('A' for Active; 'I' for Inactive)
REMARK    1  A    between atoms: C_1  and  N_2
REMARK    2  A    between atoms: N_2  and  C_3
REMARK    3  A    between atoms: N_2  and  C_4
REMARK    4  A    between atoms: C_4  and  C_5
REMARK    5  A    between atoms: C_4  and  C_17
REMARK    6  A    between atoms: C_5  and  N_6
REMARK    7  A    between atoms: N_9  and  C_10
REMARK    8  A    between atoms: C_10  and  C_11
REMARK    9  A    between atoms: C_11  and  C_12
REMARK   10  A    between atoms: C_17  and  C_18
REMARK                            x       y       z     vdW  Elec       q    Type
REMARK                         _______ _______ _______ _____ _____    ______ ____
ROOT
ATOM      1  C   UNL     1       2.802   3.813  19.806  0.00  0.00    +0.000 C 
ENDROOT
BRANCH   1   3
ATOM      2  C   UNL     1       0.779   2.854  18.789  0.00  0.00    +0.000 C 
ATOM      3  N   UNL     1       1.737   2.764  19.895  0.00  0.00    +0.000 NA
ATOM      4  C   UNL     1       1.022   2.734  21.172  0.00  0.00    +0.000 C 
ENDBRANCH   1   3
BRANCH   1   5
ATOM      5  C   UNL     1       4.185   3.253  20.251  0.00  0.00    +0.000 C 
BRANCH   5   6
ATOM      6  N   UNL     1       5.216   3.235  19.224  0.00  0.00    +0.000 N 
ATOM      7  C   UNL     1       5.994   4.362  19.107  0.00  0.00    +0.000 C 
ATOM      8  O   UNL     1       5.836   5.372  19.784  0.00  0.00    +0.000 OA
ATOM      9  N   UNL     1       6.953   4.247  18.129  0.00  0.00    +0.000 N 
ATOM     10  H   UNL     1       5.687   2.350  19.093  0.00  0.00    +0.000 HD
ATOM     11  H   UNL     1       6.664   3.661  17.359  0.00  0.00    +0.000 HD
BRANCH   9  12
ATOM     12  C   UNL     1       7.730   5.441  17.818  0.00  0.00    +0.000 C 
BRANCH  12  13
ATOM     13  C   UNL     1       7.122   6.303  16.712  0.00  0.00    +0.000 C 
BRANCH  13  14
ATOM     14  C   UNL     1       6.525   5.455  15.620  0.00  0.00    +0.000 A 
ATOM     15  C   UNL     1       5.213   5.052  15.470  0.00  0.00    +0.000 A 
ATOM     16  C   UNL     1       5.025   4.224  14.324  0.00  0.00    +0.000 A 
ATOM     17  C   UNL     1       6.200   4.028  13.634  0.00  0.00    +0.000 A 
ATOM     18  S   UNL     1       7.515   4.844  14.360  0.00  0.00    +0.000 S 
ENDBRANCH  13  14
ENDBRANCH  12  13
ENDBRANCH   9  12
ENDBRANCH   5   6
ENDBRANCH   1   5
BRANCH   1  19
ATOM     19  C   UNL     1       2.501   5.139  20.582  0.00  0.00    +0.000 C 
BRANCH  19  20
ATOM     20  C   UNL     1       2.471   6.378  19.696  0.00  0.00    +0.000 A 
ATOM     21  C   UNL     1       3.084   6.291  18.434  0.00  0.00    +0.000 A 
ATOM     22  C   UNL     1       2.989   7.331  17.514  0.00  0.00    +0.000 A 
ATOM     23  C   UNL     1       2.274   8.477  17.842  0.00  0.00    +0.000 A 
ATOM     24  C   UNL     1       1.672   8.615  19.100  0.00  0.00    +0.000 A 
ATOM     25  C   UNL     1       0.950   9.782  19.398  0.00  0.00    +0.000 A 
ATOM     26  C   UNL     1       0.362   9.961  20.648  0.00  0.00    +0.000 A 
ATOM     27  C   UNL     1       0.506   8.981  21.620  0.00  0.00    +0.000 A 
ATOM     28  C   UNL     1       1.204   7.805  21.331  0.00  0.00    +0.000 A 
ATOM     29  C   UNL     1       1.786   7.577  20.063  0.00  0.00    +0.000 A 
ENDBRANCH  19  20
ENDBRANCH   1  19
TORSDOF 8
ENDMDL
MODEL 3
REMARK VINA RESULT:      -7.5      4.247      6.403
REMARK  Name = 
REMARK  10 active torsions:
REMARK  status: ('A' for Active; 'I' for Inactive)
REMARK    1  A    between atoms: C_1  and  N_2
REMARK    2  A    between atoms: N_2  and  C_3
REMARK    3  A    between atoms: N_2  and  C_4
REMARK    4  A    between atoms: C_4  and  C_5
REMARK    5  A    between atoms: C_4  and  C_17
REMARK    6  A    between atoms: C_5  and  N_6
REMARK    7  A    between atoms: N_9  and  C_10
REMARK    8  A    between atoms: C_10  and  C_11
REMARK    9  A    between atoms: C_11  and  C_12
REMARK   10  A    between atoms: C_17  and  C_18
REMARK                            x       y       z     vdW  Elec       q    Type
REMARK                         _______ _______ _______ _____ _____    ______ ____
ROOT
ATOM      1  C   UNL     1       5.868   5.298  15.870  0.00  0.00    +0.000 C 
ENDROOT
BRANCH   1   3
ATOM      2  C   UNL     1       7.548   5.182  14.079  0.00  0.00    +0.000 C 
ATOM      3  N   UNL     1       6.602   4.423  14.901  0.00  0.00    +0.000 NA
ATOM      4  C   UNL     1       5.737   3.611  14.045  0.00  0.00    +0.000 C 
ENDBRANCH   1   3
BRANCH   1   5
ATOM      5  C   UNL     1       6.824   5.856  16.965  0.00  0.00    +0.000 C 
BRANCH   5   6
ATOM      6  N   UNL     1       7.090   7.286  16.897  0.00  0.00    +0.000 N 
ATOM      7  C   UNL     1       7.896   7.813  17.878  0.00  0.00    +0.000 C 
ATOM      8  O   UNL     1       8.356   7.158  18.806  0.00  0.00    +0.000 OA
ATOM      9  N   UNL     1       8.109   9.162  17.722  0.00  0.00    +0.000 N 
ATOM     10  H   UNL     1       7.209   7.665  15.967  0.00  0.00    +0.000 HD
ATOM     11  H   UNL     1       7.328   9.639  17.297  0.00  0.00    +0.000 HD
BRANCH   9  12
ATOM     12  C   UNL     1       8.822   9.848  18.793  0.00  0.00    +0.000 C 
BRANCH  12  13
ATOM     13  C   UNL     1       9.767  10.945  18.302  0.00  0.00    +0.000 C 
BRANCH  13  14
ATOM     14  C   UNL     1      10.000  11.986  19.365  0.00  0.00    +0.000 A 
ATOM     15  C   UNL     1       9.794  11.879  20.726  0.00  0.00    +0.000 A 
ATOM     16  C   UNL     1      10.096  13.088  21.419  0.00  0.00    +0.000 A 
ATOM     17  C   UNL     1      10.529  14.076  20.563  0.00  0.00    +0.000 A 
ATOM     18  S   UNL     1      10.577  13.543  18.940  0.00  0.00    +0.000 S 
ENDBRANCH  13  14
ENDBRANCH  12  13
ENDBRANCH   9  12
ENDBRANCH   5   6
ENDBRANCH   1   5
BRANCH   1  19
ATOM     19  C   UNL     1       4.622   4.639  16.553  0.00  0.00    +0.000 C 
BRANCH  19  20
ATOM     20  C   UNL     1       3.886   5.564  17.515  0.00  0.00    +0.000 A 
ATOM     21  C   UNL     1       3.727   6.907  17.133  0.00  0.00    +0.000 A 
ATOM     22  C   UNL     1       2.956   7.785  17.889  0.00  0.00    +0.000 A 
ATOM     23  C   UNL     1       2.327   7.330  19.043  0.00  0.00    +0.000 A 
ATOM     24  C   UNL     1       2.482   6.005  19.473  0.00  0.00    +0.000 A 
ATOM     25  C   UNL     1       1.828   5.574  20.638  0.00  0.00    +0.000 A 
ATOM     26  C   UNL     1       1.982   4.271  21.106  0.00  0.00    +0.000 A 
ATOM     27  C   UNL     1       2.809   3.391  20.423  0.00  0.00    +0.000 A 
ATOM     28  C   UNL     1       3.452   3.800  19.250  0.00  0.00    +0.000 A 
ATOM     29  C   UNL     1       3.292   5.104  18.730  0.00  0.00    +0.000 A 
ENDBRANCH  19  20
ENDBRANCH   1  19
TORSDOF 8
ENDMDL
MODEL 4
REMARK VINA RESULT:      -7.5      2.879      7.438
REMARK  Name = 
REMARK  10 active torsions:
REMARK  status: ('A' for Active; 'I' for Inactive)
REMARK    1  A    between atoms: C_1  and  N_2
REMARK    2  A    between atoms: N_2  and  C_3
REMARK    3  A    between atoms: N_2  and  C_4
REMARK    4  A    between atoms: C_4  and  C_5
REMARK    5  A    between atoms: C_4  and  C_17
REMARK    6  A    between atoms: C_5  and  N_6
REMARK    7  A    between atoms: N_9  and  C_10
REMARK    8  A    between atoms: C_10  and  C_11
REMARK    9  A    between atoms: C_11  and  C_12
REMARK   10  A    between atoms: C_17  and  C_18
REMARK                            x       y       z     vdW  Elec       q    Type
REMARK                         _______ _______ _______ _____ _____    ______ ____
ROOT
ATOM      1  C   UNL     1       2.942   4.489  19.923  0.00  0.00    +0.000 C 
ENDROOT
BRANCH   1   3
ATOM      2  C   UNL     1       2.571   2.664  21.528  0.00  0.00    +0.000 C 
ATOM      3  N   UNL     1       1.944   3.584  20.577  0.00  0.00    +0.000 NA
ATOM      4  C   UNL     1       1.102   2.837  19.642  0.00  0.00    +0.000 C 
ENDBRANCH   1   3
BRANCH   1   5
ATOM      5  C   UNL     1       2.316   5.873  19.587  0.00  0.00    +0.000 C 
BRANCH   5   6
ATOM      6  N   UNL     1       1.851   6.648  20.729  0.00  0.00    +0.000 N 
ATOM      7  C   UNL     1       1.587   7.978  20.510  0.00  0.00    +0.000 C 
ATOM      8  O   UNL     1       1.759   8.538  19.432  0.00  0.00    +0.000 OA
ATOM      9  N   UNL     1       1.135   8.623  21.636  0.00  0.00    +0.000 N 
ATOM     10  H   UNL     1       1.226   6.165  21.360  0.00  0.00    +0.000 HD
ATOM     11  H   UNL     1       1.516   8.243  22.490  0.00  0.00    +0.000 HD
BRANCH   9  12
ATOM     12  C   UNL     1       0.972  10.070  21.552  0.00  0.00    +0.000 C 
BRANCH  12  13
ATOM     13  C   UNL     1      -0.486  10.526  21.494  0.00  0.00    +0.000 C 
BRANCH  13  14
ATOM     14  C   UNL     1      -0.855  11.012  20.117  0.00  0.00    +0.000 A 
ATOM     15  C   UNL     1      -1.245  10.265  19.022  0.00  0.00    +0.000 A 
ATOM     16  C   UNL     1      -1.485  11.071  17.872  0.00  0.00    +0.000 A 
ATOM     17  C   UNL     1      -1.277  12.408  18.128  0.00  0.00    +0.000 A 
ATOM     18  S   UNL     1      -0.803  12.685  19.747  0.00  0.00    +0.000 S 
ENDBRANCH  13  14
ENDBRANCH  12  13
ENDBRANCH   9  12
ENDBRANCH   5   6
ENDBRANCH   1   5
BRANCH   1  19
ATOM     19  C   UNL     1       3.636   3.906  18.646  0.00  0.00    +0.000 C 
BRANCH  19  20
ATOM     20  C   UNL     1       4.973   4.559  18.319  0.00  0.00    +0.000 A 
ATOM     21  C   UNL     1       5.727   5.071  19.390  0.00  0.00    +0.000 A 
ATOM     22  C   UNL     1       7.014   5.563  19.195  0.00  0.00    +0.000 A 
ATOM     23  C   UNL     1       7.571   5.549  17.921  0.00  0.00    +0.000 A 
ATOM     24  C   UNL     1       6.842   5.073  16.822  0.00  0.00    +0.000 A 
ATOM     25  C   UNL     1       7.435   5.065  15.549  0.00  0.00    +0.000 A 
ATOM     26  C   UNL     1       6.730   4.623  14.433  0.00  0.00    +0.000 A 
ATOM     27  C   UNL     1       5.415   4.201  14.575  0.00  0.00    +0.000 A 
ATOM     28  C   UNL     1       4.818   4.184  15.840  0.00  0.00    +0.000 A 
ATOM     29  C   UNL     1       5.516   4.597  16.998  0.00  0.00    +0.000 A 
ENDBRANCH  19  20
ENDBRANCH   1  19
TORSDOF 8
ENDMDL
MODEL 5
REMARK VINA RESULT:      -7.4      3.386      8.534
REMARK  Name = 
REMARK  10 active torsions:
REMARK  status: ('A' for Active; 'I' for Inactive)
REMARK    1  A    between atoms: C_1  and  N_2
REMARK    2  A    between atoms: N_2  and  C_3
REMARK    3  A    between atoms: N_2  and  C_4
REMARK    4  A    between atoms: C_4  and  C_5
REMARK    5  A    between atoms: C_4  and  C_17
REMARK    6  A    between atoms: C_5  and  N_6
REMARK    7  A    between atoms: N_9  and  C_10
REMARK    8  A    between atoms: C_10  and  C_11
REMARK    9  A    between atoms: C_11  and  C_12
REMARK   10  A    between atoms: C_17  and  C_18
REMARK                            x       y       z     vdW  Elec       q    Type
REMARK                         _______ _______ _______ _____ _____    ______ ____
ROOT
ATOM      1  C   UNL     1       2.984   5.074  19.956  0.00  0.00    +0.000 C 
ENDROOT
BRANCH   1   3
ATOM      2  C   UNL     1       2.886   2.828  20.950  0.00  0.00    +0.000 C 
ATOM      3  N   UNL     1       2.165   4.082  20.724  0.00  0.00    +0.000 NA
ATOM      4  C   UNL     1       0.851   3.804  20.142  0.00  0.00    +0.000 C 
ENDBRANCH   1   3
BRANCH   1   5
ATOM      5  C   UNL     1       2.245   6.438  19.826  0.00  0.00    +0.000 C 
BRANCH   5   6
ATOM      6  N   UNL     1       1.888   7.082  21.082  0.00  0.00    +0.000 N 
ATOM      7  C   UNL     1       1.255   8.299  20.996  0.00  0.00    +0.000 C 
ATOM      8  O   UNL     1       1.019   8.871  19.937  0.00  0.00    +0.000 OA
ATOM      9  N   UNL     1       0.938   8.822  22.227  0.00  0.00    +0.000 N 
ATOM     10  H   UNL     1       1.572   6.464  21.816  0.00  0.00    +0.000 HD
ATOM     11  H   UNL     1       1.595   8.561  22.948  0.00  0.00    +0.000 HD
BRANCH   9  12
ATOM     12  C   UNL     1       0.404  10.178  22.254  0.00  0.00    +0.000 C 
BRANCH  12  13
ATOM     13  C   UNL     1      -0.924  10.304  22.999  0.00  0.00    +0.000 C 
BRANCH  13  14
ATOM     14  C   UNL     1      -1.486  11.698  22.890  0.00  0.00    +0.000 A 
ATOM     15  C   UNL     1      -2.706  12.166  23.336  0.00  0.00    +0.000 A 
ATOM     16  C   UNL     1      -2.907  13.542  23.026  0.00  0.00    +0.000 A 
ATOM     17  C   UNL     1      -1.831  14.081  22.357  0.00  0.00    +0.000 A 
ATOM     18  S   UNL     1      -0.586  12.935  22.115  0.00  0.00    +0.000 S 
ENDBRANCH  13  14
ENDBRANCH  12  13
ENDBRANCH   9  12
ENDBRANCH   5   6
ENDBRANCH   1   5
BRANCH   1  19
ATOM     19  C   UNL     1       3.455   4.598  18.541  0.00  0.00    +0.000 C 
BRANCH  19  20
ATOM     20  C   UNL     1       4.911   4.926  18.234  0.00  0.00    +0.000 A 
ATOM     21  C   UNL     1       5.736   5.297  19.310  0.00  0.00    +0.000 A 
ATOM     22  C   UNL     1       7.104   5.485  19.138  0.00  0.00    +0.000 A 
ATOM     23  C   UNL     1       7.672   5.301  17.882  0.00  0.00    +0.000 A 
ATOM     24  C   UNL     1       6.880   4.958  16.777  0.00  0.00    +0.000 A 
ATOM     25  C   UNL     1       7.484   4.773  15.524  0.00  0.00    +0.000 A 
ATOM     26  C   UNL     1       6.722   4.457  14.401  0.00  0.00    +0.000 A 
ATOM     27  C   UNL     1       5.344   4.343  14.517  0.00  0.00    +0.000 A 
ATOM     28  C   UNL     1       4.730   4.506  15.763  0.00  0.00    +0.000 A 
ATOM     29  C   UNL     1       5.477   4.795  16.929  0.00  0.00    +0.000 A 
ENDBRANCH  19  20
ENDBRANCH   1  19
TORSDOF 8
ENDMDL
MODEL 6
REMARK VINA RESULT:      -7.2      2.667      6.913
REMARK  Name = 
REMARK  10 active torsions:
REMARK  status: ('A' for Active; 'I' for Inactive)
REMARK    1  A    between atoms: C_1  and  N_2
REMARK    2  A    between atoms: N_2  and  C_3
REMARK    3  A    between atoms: N_2  and  C_4
REMARK    4  A    between atoms: C_4  and  C_5
REMARK    5  A    between atoms: C_4  and  C_17
REMARK    6  A    between atoms: C_5  and  N_6
REMARK    7  A    between atoms: N_9  and  C_10
REMARK    8  A    between atoms: C_10  and  C_11
REMARK    9  A    between atoms: C_11  and  C_12
REMARK   10  A    between atoms: C_17  and  C_18
REMARK                            x       y       z     vdW  Elec       q    Type
REMARK                         _______ _______ _______ _____ _____    ______ ____
ROOT
ATOM      1  C   UNL     1       3.208   3.850  19.601  0.00  0.00    +0.000 C 
ENDROOT
BRANCH   1   3
ATOM      2  C   UNL     1       1.379   3.994  17.964  0.00  0.00    +0.000 C 
ATOM      3  N   UNL     1       1.986   3.196  19.032  0.00  0.00    +0.000 NA
ATOM      4  C   UNL     1       0.972   2.840  20.026  0.00  0.00    +0.000 C 
ENDBRANCH   1   3
BRANCH   1   5
ATOM      5  C   UNL     1       3.161   5.394  19.415  0.00  0.00    +0.000 C 
BRANCH   5   6
ATOM      6  N   UNL     1       2.561   6.142  20.510  0.00  0.00    +0.000 N 
ATOM      7  C   UNL     1       2.066   7.389  20.212  0.00  0.00    +0.000 C 
ATOM      8  O   UNL     1       2.141   7.903  19.101  0.00  0.00    +0.000 OA
ATOM      9  N   UNL     1       1.500   8.011  21.299  0.00  0.00    +0.000 N 
ATOM     10  H   UNL     1       2.028   5.595  21.173  0.00  0.00    +0.000 HD
ATOM     11  H   UNL     1       1.939   7.757  22.173  0.00  0.00    +0.000 HD
BRANCH   9  12
ATOM     12  C   UNL     1       1.084   9.398  21.128  0.00  0.00    +0.000 C 
BRANCH  12  13
ATOM     13  C   UNL     1      -0.393   9.560  20.771  0.00  0.00    +0.000 C 
BRANCH  13  14
ATOM     14  C   UNL     1      -0.604  10.700  19.810  0.00  0.00    +0.000 A 
ATOM     15  C   UNL     1      -1.620  10.867  18.889  0.00  0.00    +0.000 A 
ATOM     16  C   UNL     1      -1.472  12.062  18.127  0.00  0.00    +0.000 A 
ATOM     17  C   UNL     1      -0.352  12.771  18.494  0.00  0.00    +0.000 A 
ATOM     18  S   UNL     1       0.509  12.004  19.756  0.00  0.00    +0.000 S 
ENDBRANCH  13  14
ENDBRANCH  12  13
ENDBRANCH   9  12
ENDBRANCH   5   6
ENDBRANCH   1   5
BRANCH   1  19
ATOM     19  C   UNL     1       4.571   3.300  19.062  0.00  0.00    +0.000 C 
BRANCH  19  20
ATOM     20  C   UNL     1       5.143   4.102  17.899  0.00  0.00    +0.000 A 
ATOM     21  C   UNL     1       4.572   3.904  16.629  0.00  0.00    +0.000 A 
ATOM     22  C   UNL     1       4.945   4.688  15.542  0.00  0.00    +0.000 A 
ATOM     23  C   UNL     1       5.894   5.690  15.708  0.00  0.00    +0.000 A 
ATOM     24  C   UNL     1       6.507   5.901  16.952  0.00  0.00    +0.000 A 
ATOM     25  C   UNL     1       7.457   6.926  17.089  0.00  0.00    +0.000 A 
ATOM     26  C   UNL     1       8.103   7.145  18.303  0.00  0.00    +0.000 A 
ATOM     27  C   UNL     1       7.818   6.329  19.389  0.00  0.00    +0.000 A 
ATOM     28  C   UNL     1       6.859   5.318  19.273  0.00  0.00    +0.000 A 
ATOM     29  C   UNL     1       6.162   5.089  18.064  0.00  0.00    +0.000 A 
ENDBRANCH  19  20
ENDBRANCH   1  19
TORSDOF 8
ENDMDL
MODEL 7
REMARK VINA RESULT:      -7.2      4.500      6.629
REMARK  Name = 
REMARK  10 active torsions:
REMARK  status: ('A' for Active; 'I' for Inactive)
REMARK    1  A    between atoms: C_1  and  N_2
REMARK    2  A    between atoms: N_2  and  C_3
REMARK    3  A    between atoms: N_2  and  C_4
REMARK    4  A    between atoms: C_4  and  C_5
REMARK    5  A    between atoms: C_4  and  C_17
REMARK    6  A    between atoms: C_5  and  N_6
REMARK    7  A    between atoms: N_9  and  C_10
REMARK    8  A    between atoms: C_10  and  C_11
REMARK    9  A    between atoms: C_11  and  C_12
REMARK   10  A    between atoms: C_17  and  C_18
REMARK                            x       y       z     vdW  Elec       q    Type
REMARK                         _______ _______ _______ _____ _____    ______ ____
ROOT
ATOM      1  C   UNL     1       6.031   5.770  18.196  0.00  0.00    +0.000 C 
ENDROOT
BRANCH   1   3
ATOM      2  C   UNL     1       6.150   5.520  15.752  0.00  0.00    +0.000 C 
ATOM      3  N   UNL     1       5.274   5.750  16.903  0.00  0.00    +0.000 NA
ATOM      4  C   UNL     1       4.444   6.933  16.670  0.00  0.00    +0.000 C 
ENDBRANCH   1   3
BRANCH   1   5
ATOM      5  C   UNL     1       7.562   5.908  17.952  0.00  0.00    +0.000 C 
BRANCH   5   6
ATOM      6  N   UNL     1       8.234   6.933  18.738  0.00  0.00    +0.000 N 
ATOM      7  C   UNL     1       8.230   8.209  18.228  0.00  0.00    +0.000 C 
ATOM      8  O   UNL     1       7.734   8.508  17.147  0.00  0.00    +0.000 OA
ATOM      9  N   UNL     1       8.867   9.111  19.045  0.00  0.00    +0.000 N 
ATOM     10  H   UNL     1       8.131   6.851  19.741  0.00  0.00    +0.000 HD
ATOM     11  H   UNL     1       9.625   8.701  19.572  0.00  0.00    +0.000 HD
BRANCH   9  12
ATOM     12  C   UNL     1       9.055  10.460  18.526  0.00  0.00    +0.000 C 
BRANCH  12  13
ATOM     13  C   UNL     1      10.358  11.119  18.974  0.00  0.00    +0.000 C 
BRANCH  13  14
ATOM     14  C   UNL     1      10.303  12.615  18.808  0.00  0.00    +0.000 A 
ATOM     15  C   UNL     1       9.852  13.339  17.721  0.00  0.00    +0.000 A 
ATOM     16  C   UNL     1       9.982  14.745  17.912  0.00  0.00    +0.000 A 
ATOM     17  C   UNL     1      10.524  15.049  19.141  0.00  0.00    +0.000 A 
ATOM     18  S   UNL     1      10.863  13.647  20.057  0.00  0.00    +0.000 S 
ENDBRANCH  13  14
ENDBRANCH  12  13
ENDBRANCH   9  12
ENDBRANCH   5   6
ENDBRANCH   1   5
BRANCH   1  19
ATOM     19  C   UNL     1       5.762   4.555  19.146  0.00  0.00    +0.000 C 
BRANCH  19  20
ATOM     20  C   UNL     1       4.478   3.797  18.829  0.00  0.00    +0.000 A 
ATOM     21  C   UNL     1       4.581   2.652  18.020  0.00  0.00    +0.000 A 
ATOM     22  C   UNL     1       3.481   1.831  17.791  0.00  0.00    +0.000 A 
ATOM     23  C   UNL     1       2.257   2.141  18.371  0.00  0.00    +0.000 A 
ATOM     24  C   UNL     1       2.106   3.289  19.162  0.00  0.00    +0.000 A 
ATOM     25  C   UNL     1       0.858   3.571  19.741  0.00  0.00    +0.000 A 
ATOM     26  C   UNL     1       0.668   4.717  20.510  0.00  0.00    +0.000 A 
ATOM     27  C   UNL     1       1.721   5.603  20.693  0.00  0.00    +0.000 A 
ATOM     28  C   UNL     1       2.974   5.325  20.139  0.00  0.00    +0.000 A 
ATOM     29  C   UNL     1       3.210   4.156  19.380  0.00  0.00    +0.000 A 
ENDBRANCH  19  20
ENDBRANCH   1  19
TORSDOF 8
ENDMDL
MODEL 8
REMARK VINA RESULT:      -7.2      4.238      6.533
REMARK  Name = 
REMARK  10 active torsions:
REMARK  status: ('A' for Active; 'I' for Inactive)
REMARK    1  A    between atoms: C_1  and  N_2
REMARK    2  A    between atoms: N_2  and  C_3
REMARK    3  A    between atoms: N_2  and  C_4
REMARK    4  A    between atoms: C_4  and  C_5
REMARK    5  A    between atoms: C_4  and  C_17
REMARK    6  A    between atoms: C_5  and  N_6
REMARK    7  A    between atoms: N_9  and  C_10
REMARK    8  A    between atoms: C_10  and  C_11
REMARK    9  A    between atoms: C_11  and  C_12
REMARK   10  A    between atoms: C_17  and  C_18
REMARK                            x       y       z     vdW  Elec       q    Type
REMARK                         _______ _______ _______ _____ _____    ______ ____
ROOT
ATOM      1  C   UNL     1       5.990   5.599  18.282  0.00  0.00    +0.000 C 
ENDROOT
BRANCH   1   3
ATOM      2  C   UNL     1       6.050   5.476  15.827  0.00  0.00    +0.000 C 
ATOM      3  N   UNL     1       5.209   5.691  17.007  0.00  0.00    +0.000 NA
ATOM      4  C   UNL     1       4.443   6.929  16.855  0.00  0.00    +0.000 C 
ENDBRANCH   1   3
BRANCH   1   5
ATOM      5  C   UNL     1       7.517   5.747  18.022  0.00  0.00    +0.000 C 
BRANCH   5   6
ATOM      6  N   UNL     1       8.183   6.806  18.766  0.00  0.00    +0.000 N 
ATOM      7  C   UNL     1       8.197   8.054  18.190  0.00  0.00    +0.000 C 
ATOM      8  O   UNL     1       7.722   8.299  17.086  0.00  0.00    +0.000 OA
ATOM      9  N   UNL     1       8.826   8.993  18.971  0.00  0.00    +0.000 N 
ATOM     10  H   UNL     1       8.063   6.777  19.769  0.00  0.00    +0.000 HD
ATOM     11  H   UNL     1       9.572   8.607  19.531  0.00  0.00    +0.000 HD
BRANCH   9  12
ATOM     12  C   UNL     1       9.032  10.313  18.385  0.00  0.00    +0.000 C 
BRANCH  12  13
ATOM     13  C   UNL     1      10.074  11.158  19.117  0.00  0.00    +0.000 C 
BRANCH  13  14
ATOM     14  C   UNL     1       9.438  12.010  20.185  0.00  0.00    +0.000 A 
ATOM     15  C   UNL     1       9.065  11.642  21.463  0.00  0.00    +0.000 A 
ATOM     16  C   UNL     1       8.461  12.714  22.183  0.00  0.00    +0.000 A 
ATOM     17  C   UNL     1       8.399  13.866  21.432  0.00  0.00    +0.000 A 
ATOM     18  S   UNL     1       9.072  13.655  19.875  0.00  0.00    +0.000 S 
ENDBRANCH  13  14
ENDBRANCH  12  13
ENDBRANCH   9  12
ENDBRANCH   5   6
ENDBRANCH   1   5
BRANCH   1  19
ATOM     19  C   UNL     1       5.728   4.312  19.135  0.00  0.00    +0.000 C 
BRANCH  19  20
ATOM     20  C   UNL     1       4.404   3.625  18.821  0.00  0.00    +0.000 A 
ATOM     21  C   UNL     1       4.441   2.483  18.002  0.00  0.00    +0.000 A 
ATOM     22  C   UNL     1       3.298   1.722  17.775  0.00  0.00    +0.000 A 
ATOM     23  C   UNL     1       2.096   2.091  18.368  0.00  0.00    +0.000 A 
ATOM     24  C   UNL     1       2.011   3.238  19.169  0.00  0.00    +0.000 A 
ATOM     25  C   UNL     1       0.784   3.580  19.760  0.00  0.00    +0.000 A 
ATOM     26  C   UNL     1       0.660   4.727  20.540  0.00  0.00    +0.000 A 
ATOM     27  C   UNL     1       1.758   5.555  20.721  0.00  0.00    +0.000 A 
ATOM     28  C   UNL     1       2.992   5.217  20.155  0.00  0.00    +0.000 A 
ATOM     29  C   UNL     1       3.160   4.044  19.385  0.00  0.00    +0.000 A 
ENDBRANCH  19  20
ENDBRANCH   1  19
TORSDOF 8
ENDMDL
MODEL 9
REMARK VINA RESULT:      -7.1      3.429      5.250
REMARK  Name = 
REMARK  10 active torsions:
REMARK  status: ('A' for Active; 'I' for Inactive)
REMARK    1  A    between atoms: C_1  and  N_2
REMARK    2  A    between atoms: N_2  and  C_3
REMARK    3  A    between atoms: N_2  and  C_4
REMARK    4  A    between atoms: C_4  and  C_5
REMARK    5  A    between atoms: C_4  and  C_17
REMARK    6  A    between atoms: C_5  and  N_6
REMARK    7  A    between atoms: N_9  and  C_10
REMARK    8  A    between atoms: C_10  and  C_11
REMARK    9  A    between atoms: C_11  and  C_12
REMARK   10  A    between atoms: C_17  and  C_18
REMARK                            x       y       z     vdW  Elec       q    Type
REMARK                         _______ _______ _______ _____ _____    ______ ____
ROOT
ATOM      1  C   UNL     1       0.323   9.563  19.743  0.00  0.00    +0.000 C 
ENDROOT
BRANCH   1   3
ATOM      2  C   UNL     1      -0.402   8.900  21.997  0.00  0.00    +0.000 C 
ATOM      3  N   UNL     1       0.500   9.753  21.219  0.00  0.00    +0.000 NA
ATOM      4  C   UNL     1       0.384  11.141  21.668  0.00  0.00    +0.000 C 
ENDBRANCH   1   3
BRANCH   1   5
ATOM      5  C   UNL     1       1.564   8.869  19.110  0.00  0.00    +0.000 C 
BRANCH   5   6
ATOM      6  N   UNL     1       2.138   7.777  19.885  0.00  0.00    +0.000 N 
ATOM      7  C   UNL     1       2.629   6.707  19.178  0.00  0.00    +0.000 C 
ATOM      8  O   UNL     1       2.571   6.613  17.956  0.00  0.00    +0.000 OA
ATOM      9  N   UNL     1       3.169   5.737  19.987  0.00  0.00    +0.000 N 
ATOM     10  H   UNL     1       2.662   8.052  20.705  0.00  0.00    +0.000 HD
ATOM     11  H   UNL     1       2.715   5.676  20.888  0.00  0.00    +0.000 HD
BRANCH   9  12
ATOM     12  C   UNL     1       3.578   4.491  19.349  0.00  0.00    +0.000 C 
BRANCH  12  13
ATOM     13  C   UNL     1       5.092   4.334  19.215  0.00  0.00    +0.000 C 
BRANCH  13  14
ATOM     14  C   UNL     1       5.526   4.404  17.774  0.00  0.00    +0.000 A 
ATOM     15  C   UNL     1       4.768   4.181  16.641  0.00  0.00    +0.000 A 
ATOM     16  C   UNL     1       5.530   4.307  15.443  0.00  0.00    +0.000 A 
ATOM     17  C   UNL     1       6.844   4.628  15.701  0.00  0.00    +0.000 A 
ATOM     18  S   UNL     1       7.149   4.783  17.376  0.00  0.00    +0.000 S 
ENDBRANCH  13  14
ENDBRANCH  12  13
ENDBRANCH   9  12
ENDBRANCH   5   6
ENDBRANCH   1   5
BRANCH   1  19
ATOM     19  C   UNL     1      -0.015  10.863  18.938  0.00  0.00    +0.000 C 
BRANCH  19  20
ATOM     20  C   UNL     1      -1.405  10.856  18.313  0.00  0.00    +0.000 A 
ATOM     21  C   UNL     1      -1.609  10.038  17.188  0.00  0.00    +0.000 A 
ATOM     22  C   UNL     1      -2.876   9.873  16.638  0.00  0.00    +0.000 A 
ATOM     23  C   UNL     1      -3.964  10.524  17.208  0.00  0.00    +0.000 A 
ATOM     24  C   UNL     1      -3.799  11.371  18.313  0.00  0.00    +0.000 A 
ATOM     25  C   UNL     1      -4.919  12.008  18.871  0.00  0.00    +0.000 A 
ATOM     26  C   UNL     1      -4.785  12.875  19.952  0.00  0.00    +0.000 A 
ATOM     27  C   UNL     1      -3.525  13.129  20.476  0.00  0.00    +0.000 A 
ATOM     28  C   UNL     1      -2.403  12.486  19.944  0.00  0.00    +0.000 A 
ATOM     29  C   UNL     1      -2.507  11.576  18.867  0.00  0.00    +0.000 A 
ENDBRANCH  19  20
ENDBRANCH   1  19
TORSDOF 8
ENDMDL
