MODEL 1
REMARK VINA RESULT:      -7.6      0.000      0.000
REMARK  Name = 
REMARK  4 active torsions:
REMARK  status: ('A' for Active; 'I' for Inactive)
REMARK    1  A    between atoms: C_1  and  N_2
REMARK    2  A    between atoms: N_7  and  C_8
REMARK    3  A    between atoms: C_8  and  C_9
REMARK    4  A    between atoms: C_9  and  C_10
REMARK                            x       y       z     vdW  Elec       q    Type
REMARK                         _______ _______ _______ _____ _____    ______ ____
ROOT
ATOM      1  C   UNL     1       8.240   8.716  17.851  0.00  0.00    +0.000 C 
ATOM      2  N   UNL     1       7.706   7.392  18.058  0.00  0.00    +0.000 N 
ATOM      3  N   UNL     1       8.203   6.599  19.033  0.00  0.00    +0.000 NA
ATOM      4  C   UNL     1       7.458   5.493  18.931  0.00  0.00    +0.000 A 
ATOM      5  C   UNL     1       6.493   5.554  17.903  0.00  0.00    +0.000 A 
ATOM      6  C   UNL     1       5.464   4.758  17.360  0.00  0.00    +0.000 A 
ATOM      7  N   UNL     1       5.105   3.498  17.840  0.00  0.00    +0.000 N 
ATOM      8  N   UNL     1       4.762   5.293  16.328  0.00  0.00    +0.000 NA
ATOM      9  C   UNL     1       5.066   6.525  15.875  0.00  0.00    +0.000 A 
ATOM     10  N   UNL     1       6.011   7.361  16.329  0.00  0.00    +0.000 NA
ATOM     11  C   UNL     1       6.689   6.811  17.349  0.00  0.00    +0.000 A 
ATOM     12  H   UNL     1       5.805   2.983  18.357  0.00  0.00    +0.000 HD
ENDROOT
BRANCH   7  13
ATOM     13  C   UNL     1       4.074   2.777  17.091  0.00  0.00    +0.000 C 
BRANCH  13  14
ATOM     14  C   UNL     1       2.673   3.376  17.287  0.00  0.00    +0.000 C 
BRANCH  14  15
ATOM     15  C   UNL     1       2.306   3.550  18.752  0.00  0.00    +0.000 A 
ATOM     16  C   UNL     1       2.114   2.422  19.561  0.00  0.00    +0.000 A 
ATOM     17  F   UNL     1       2.255   1.196  19.037  0.00  0.00    +0.000 F 
ATOM     18  C   UNL     1       1.771   2.525  20.912  0.00  0.00    +0.000 A 
ATOM     19  C   UNL     1       1.616   3.779  21.494  0.00  0.00    +0.000 A 
ATOM     20  C   UNL     1       1.818   4.920  20.717  0.00  0.00    +0.000 A 
ATOM     21  C   UNL     1       2.165   4.808  19.362  0.00  0.00    +0.000 A 
ATOM     22 CL   UNL     1       2.404   6.277  18.485  0.00  0.00    +0.000 Cl
ENDBRANCH  14  15
ENDBRANCH  13  14
ENDBRANCH   7  13
TORSDOF 3
ENDMDL
MODEL 2
REMARK VINA RESULT:      -7.4      2.784      3.710
REMARK  Name = 
REMARK  4 active torsions:
REMARK  status: ('A' for Active; 'I' for Inactive)
REMARK    1  A    between atoms: C_1  and  N_2
REMARK    2  A    between atoms: N_7  and  C_8
REMARK    3  A    between atoms: C_8  and  C_9
REMARK    4  A    between atoms: C_9  and  C_10
REMARK                            x       y       z     vdW  Elec       q    Type
REMARK                         _______ _______ _______ _____ _____    ______ ____
ROOT
ATOM      1  C   UNL     1       8.568   5.758  12.896  0.00  0.00    +0.000 C 
ATOM      2  N   UNL     1       7.475   5.018  13.478  0.00  0.00    +0.000 N 
ATOM      3  N   UNL     1       6.785   4.122  12.740  0.00  0.00    +0.000 NA
ATOM      4  C   UNL     1       5.892   3.638  13.610  0.00  0.00    +0.000 A 
ATOM      5  C   UNL     1       5.986   4.213  14.896  0.00  0.00    +0.000 A 
ATOM      6  C   UNL     1       5.372   4.100  16.160  0.00  0.00    +0.000 A 
ATOM      7  N   UNL     1       4.350   3.201  16.463  0.00  0.00    +0.000 N 
ATOM      8  N   UNL     1       5.855   4.904  17.142  0.00  0.00    +0.000 NA
ATOM      9  C   UNL     1       6.869   5.752  16.882  0.00  0.00    +0.000 A 
ATOM     10  N   UNL     1       7.524   5.922  15.725  0.00  0.00    +0.000 NA
ATOM     11  C   UNL     1       7.031   5.117  14.770  0.00  0.00    +0.000 A 
ATOM     12  H   UNL     1       3.789   2.861  15.693  0.00  0.00    +0.000 HD
ENDROOT
BRANCH   7  13
ATOM     13  C   UNL     1       3.768   3.292  17.804  0.00  0.00    +0.000 C 
BRANCH  13  14
ATOM     14  C   UNL     1       2.351   3.885  17.794  0.00  0.00    +0.000 C 
BRANCH  14  15
ATOM     15  C   UNL     1       2.186   5.033  18.778  0.00  0.00    +0.000 A 
ATOM     16  C   UNL     1       2.583   6.327  18.411  0.00  0.00    +0.000 A 
ATOM     17  F   UNL     1       3.106   6.542  17.195  0.00  0.00    +0.000 F 
ATOM     18  C   UNL     1       2.459   7.416  19.276  0.00  0.00    +0.000 A 
ATOM     19  C   UNL     1       1.921   7.235  20.546  0.00  0.00    +0.000 A 
ATOM     20  C   UNL     1       1.502   5.961  20.932  0.00  0.00    +0.000 A 
ATOM     21  C   UNL     1       1.628   4.873  20.056  0.00  0.00    +0.000 A 
ATOM     22 CL   UNL     1       1.071   3.338  20.621  0.00  0.00    +0.000 Cl
ENDBRANCH  14  15
ENDBRANCH  13  14
ENDBRANCH   7  13
TORSDOF 3
ENDMDL
MODEL 3
REMARK VINA RESULT:      -7.4      5.188      6.493
REMARK  Name = 
REMARK  4 active torsions:
REMARK  status: ('A' for Active; 'I' for Inactive)
REMARK    1  A    between atoms: C_1  and  N_2
REMARK    2  A    between atoms: N_7  and  C_8
REMARK    3  A    between atoms: C_8  and  C_9
REMARK    4  A    between atoms: C_9  and  C_10
REMARK                            x       y       z     vdW  Elec       q    Type
REMARK                         _______ _______ _______ _____ _____    ______ ____
ROOT
ATOM      1  C   UNL     1      -1.110  12.838  21.742  0.00  0.00    +0.000 C 
ATOM      2  N   UNL     1      -0.515  11.535  21.912  0.00  0.00    +0.000 N 
ATOM      3  N   UNL     1      -0.522  10.933  23.122  0.00  0.00    +0.000 NA
ATOM      4  C   UNL     1       0.083   9.765  22.880  0.00  0.00    +0.000 A 
ATOM      5  C   UNL     1       0.489   9.605  21.538  0.00  0.00    +0.000 A 
ATOM      6  C   UNL     1       1.115   8.639  20.723  0.00  0.00    +0.000 A 
ATOM      7  N   UNL     1       1.527   7.382  21.164  0.00  0.00    +0.000 N 
ATOM      8  N   UNL     1       1.278   8.964  19.415  0.00  0.00    +0.000 NA
ATOM      9  C   UNL     1       0.852  10.158  18.958  0.00  0.00    +0.000 A 
ATOM     10  N   UNL     1       0.238  11.131  19.646  0.00  0.00    +0.000 NA
ATOM     11  C   UNL     1       0.086  10.787  20.935  0.00  0.00    +0.000 A 
ATOM     12  H   UNL     1       1.705   7.274  22.153  0.00  0.00    +0.000 HD
ENDROOT
BRANCH   7  13
ATOM     13  C   UNL     1       2.244   6.547  20.198  0.00  0.00    +0.000 C 
BRANCH  13  14
ATOM     14  C   UNL     1       2.518   5.133  20.729  0.00  0.00    +0.000 C 
BRANCH  14  15
ATOM     15  C   UNL     1       2.656   4.103  19.618  0.00  0.00    +0.000 A 
ATOM     16  C   UNL     1       1.577   3.264  19.307  0.00  0.00    +0.000 A 
ATOM     17  F   UNL     1       0.429   3.376  19.992  0.00  0.00    +0.000 F 
ATOM     18  C   UNL     1       1.650   2.299  18.301  0.00  0.00    +0.000 A 
ATOM     19  C   UNL     1       2.823   2.151  17.566  0.00  0.00    +0.000 A 
ATOM     20  C   UNL     1       3.908   2.984  17.842  0.00  0.00    +0.000 A 
ATOM     21  C   UNL     1       3.824   3.953  18.853  0.00  0.00    +0.000 A 
ATOM     22 CL   UNL     1       5.217   4.943  19.113  0.00  0.00    +0.000 Cl
ENDBRANCH  14  15
ENDBRANCH  13  14
ENDBRANCH   7  13
TORSDOF 3
ENDMDL
MODEL 4
REMARK VINA RESULT:      -7.4      5.061      6.258
REMARK  Name = 
REMARK  4 active torsions:
REMARK  status: ('A' for Active; 'I' for Inactive)
REMARK    1  A    between atoms: C_1  and  N_2
REMARK    2  A    between atoms: N_7  and  C_8
REMARK    3  A    between atoms: C_8  and  C_9
REMARK    4  A    between atoms: C_9  and  C_10
REMARK                            x       y       z     vdW  Elec       q    Type
REMARK                         _______ _______ _______ _____ _____    ______ ____
ROOT
ATOM      1  C   UNL     1      -1.359  12.397  21.635  0.00  0.00    +0.000 C 
ATOM      2  N   UNL     1      -0.508  11.233  21.637  0.00  0.00    +0.000 N 
ATOM      3  N   UNL     1      -0.190  10.620  22.799  0.00  0.00    +0.000 NA
ATOM      4  C   UNL     1       0.573   9.596  22.400  0.00  0.00    +0.000 A 
ATOM      5  C   UNL     1       0.763   9.542  21.003  0.00  0.00    +0.000 A 
ATOM      6  C   UNL     1       1.408   8.732  20.047  0.00  0.00    +0.000 A 
ATOM      7  N   UNL     1       2.121   7.572  20.348  0.00  0.00    +0.000 N 
ATOM      8  N   UNL     1       1.277   9.105  18.748  0.00  0.00    +0.000 NA
ATOM      9  C   UNL     1       0.559  10.200  18.430  0.00  0.00    +0.000 A 
ATOM     10  N   UNL     1      -0.098  11.023  19.260  0.00  0.00    +0.000 NA
ATOM     11  C   UNL     1       0.044  10.634  20.537  0.00  0.00    +0.000 A 
ATOM     12  H   UNL     1       2.486   7.484  21.287  0.00  0.00    +0.000 HD
ENDROOT
BRANCH   7  13
ATOM     13  C   UNL     1       2.804   6.910  19.235  0.00  0.00    +0.000 C 
BRANCH  13  14
ATOM     14  C   UNL     1       3.509   5.614  19.661  0.00  0.00    +0.000 C 
BRANCH  14  15
ATOM     15  C   UNL     1       2.747   4.365  19.247  0.00  0.00    +0.000 A 
ATOM     16  C   UNL     1       1.639   3.945  19.996  0.00  0.00    +0.000 A 
ATOM     17  F   UNL     1       1.258   4.648  21.072  0.00  0.00    +0.000 F 
ATOM     18  C   UNL     1       0.907   2.803  19.663  0.00  0.00    +0.000 A 
ATOM     19  C   UNL     1       1.269   2.046  18.554  0.00  0.00    +0.000 A 
ATOM     20  C   UNL     1       2.357   2.449  17.780  0.00  0.00    +0.000 A 
ATOM     21  C   UNL     1       3.086   3.599  18.119  0.00  0.00    +0.000 A 
ATOM     22 CL   UNL     1       4.411   4.023  17.095  0.00  0.00    +0.000 Cl
ENDBRANCH  14  15
ENDBRANCH  13  14
ENDBRANCH   7  13
TORSDOF 3
ENDMDL
MODEL 5
REMARK VINA RESULT:      -7.3      1.039      1.084
REMARK  Name = 
REMARK  4 active torsions:
REMARK  status: ('A' for Active; 'I' for Inactive)
REMARK    1  A    between atoms: C_1  and  N_2
REMARK    2  A    between atoms: N_7  and  C_8
REMARK    3  A    between atoms: C_8  and  C_9
REMARK    4  A    between atoms: C_9  and  C_10
REMARK                            x       y       z     vdW  Elec       q    Type
REMARK                         _______ _______ _______ _____ _____    ______ ____
ROOT
ATOM      1  C   UNL     1       8.317   8.782  17.960  0.00  0.00    +0.000 C 
ATOM      2  N   UNL     1       7.812   7.444  18.151  0.00  0.00    +0.000 N 
ATOM      3  N   UNL     1       8.337   6.645  19.106  0.00  0.00    +0.000 NA
ATOM      4  C   UNL     1       7.612   5.526  18.994  0.00  0.00    +0.000 A 
ATOM      5  C   UNL     1       6.635   5.584  17.977  0.00  0.00    +0.000 A 
ATOM      6  C   UNL     1       5.616   4.776  17.432  0.00  0.00    +0.000 A 
ATOM      7  N   UNL     1       5.288   3.501  17.894  0.00  0.00    +0.000 N 
ATOM      8  N   UNL     1       4.892   5.314  16.418  0.00  0.00    +0.000 NA
ATOM      9  C   UNL     1       5.166   6.560  15.982  0.00  0.00    +0.000 A 
ATOM     10  N   UNL     1       6.098   7.407  16.440  0.00  0.00    +0.000 NA
ATOM     11  C   UNL     1       6.799   6.854  17.443  0.00  0.00    +0.000 A 
ATOM     12  H   UNL     1       6.005   2.992  18.395  0.00  0.00    +0.000 HD
ENDROOT
BRANCH   7  13
ATOM     13  C   UNL     1       4.264   2.772  17.145  0.00  0.00    +0.000 C 
BRANCH  13  14
ATOM     14  C   UNL     1       3.306   1.993  18.058  0.00  0.00    +0.000 C 
BRANCH  14  15
ATOM     15  C   UNL     1       2.726   2.851  19.172  0.00  0.00    +0.000 A 
ATOM     16  C   UNL     1       3.171   2.677  20.489  0.00  0.00    +0.000 A 
ATOM     17  F   UNL     1       4.107   1.754  20.758  0.00  0.00    +0.000 F 
ATOM     18  C   UNL     1       2.669   3.434  21.551  0.00  0.00    +0.000 A 
ATOM     19  C   UNL     1       1.698   4.401  21.313  0.00  0.00    +0.000 A 
ATOM     20  C   UNL     1       1.248   4.608  20.009  0.00  0.00    +0.000 A 
ATOM     21  C   UNL     1       1.759   3.845  18.948  0.00  0.00    +0.000 A 
ATOM     22 CL   UNL     1       1.147   4.182  17.368  0.00  0.00    +0.000 Cl
ENDBRANCH  14  15
ENDBRANCH  13  14
ENDBRANCH   7  13
TORSDOF 3
ENDMDL
MODEL 6
REMARK VINA RESULT:      -7.1      1.675      1.982
REMARK  Name = 
REMARK  4 active torsions:
REMARK  status: ('A' for Active; 'I' for Inactive)
REMARK    1  A    between atoms: C_1  and  N_2
REMARK    2  A    between atoms: N_7  and  C_8
REMARK    3  A    between atoms: C_8  and  C_9
REMARK    4  A    between atoms: C_9  and  C_10
REMARK                            x       y       z     vdW  Elec       q    Type
REMARK                         _______ _______ _______ _____ _____    ______ ____
ROOT
ATOM      1  C   UNL     1       8.095   8.029  17.298  0.00  0.00    +0.000 C 
ATOM      2  N   UNL     1       7.503   6.824  17.826  0.00  0.00    +0.000 N 
ATOM      3  N   UNL     1       7.848   6.373  19.052  0.00  0.00    +0.000 NA
ATOM      4  C   UNL     1       7.093   5.278  19.194  0.00  0.00    +0.000 A 
ATOM      5  C   UNL     1       6.273   5.008  18.078  0.00  0.00    +0.000 A 
ATOM      6  C   UNL     1       5.303   4.068  17.672  0.00  0.00    +0.000 A 
ATOM      7  N   UNL     1       4.851   3.011  18.460  0.00  0.00    +0.000 N 
ATOM      8  N   UNL     1       4.757   4.253  16.442  0.00  0.00    +0.000 NA
ATOM      9  C   UNL     1       5.150   5.292  15.680  0.00  0.00    +0.000 A 
ATOM     10  N   UNL     1       6.049   6.241  15.979  0.00  0.00    +0.000 NA
ATOM     11  C   UNL     1       6.573   6.038  17.198  0.00  0.00    +0.000 A 
ATOM     12  H   UNL     1       5.464   2.688  19.197  0.00  0.00    +0.000 HD
ENDROOT
BRANCH   7  13
ATOM     13  C   UNL     1       3.909   2.080  17.836  0.00  0.00    +0.000 C 
BRANCH  13  14
ATOM     14  C   UNL     1       2.513   2.135  18.475  0.00  0.00    +0.000 C 
BRANCH  14  15
ATOM     15  C   UNL     1       2.261   3.433  19.228  0.00  0.00    +0.000 A 
ATOM     16  C   UNL     1       1.891   4.587  18.524  0.00  0.00    +0.000 A 
ATOM     17  F   UNL     1       1.761   4.538  17.190  0.00  0.00    +0.000 F 
ATOM     18  C   UNL     1       1.652   5.805  19.164  0.00  0.00    +0.000 A 
ATOM     19  C   UNL     1       1.776   5.897  20.546  0.00  0.00    +0.000 A 
ATOM     20  C   UNL     1       2.126   4.760  21.276  0.00  0.00    +0.000 A 
ATOM     21  C   UNL     1       2.362   3.540  20.625  0.00  0.00    +0.000 A 
ATOM     22 CL   UNL     1       2.781   2.187  21.615  0.00  0.00    +0.000 Cl
ENDBRANCH  14  15
ENDBRANCH  13  14
ENDBRANCH   7  13
TORSDOF 3
ENDMDL
MODEL 7
REMARK VINA RESULT:      -7.0      4.922      6.200
REMARK  Name = 
REMARK  4 active torsions:
REMARK  status: ('A' for Active; 'I' for Inactive)
REMARK    1  A    between atoms: C_1  and  N_2
REMARK    2  A    between atoms: N_7  and  C_8
REMARK    3  A    between atoms: C_8  and  C_9
REMARK    4  A    between atoms: C_9  and  C_10
REMARK                            x       y       z     vdW  Elec       q    Type
REMARK                         _______ _______ _______ _____ _____    ______ ____
ROOT
ATOM      1  C   UNL     1      -0.454  12.738  21.564  0.00  0.00    +0.000 C 
ATOM      2  N   UNL     1      -0.063  11.370  21.803  0.00  0.00    +0.000 N 
ATOM      3  N   UNL     1      -0.252  10.807  23.017  0.00  0.00    +0.000 NA
ATOM      4  C   UNL     1       0.201   9.560  22.844  0.00  0.00    +0.000 A 
ATOM      5  C   UNL     1       0.689   9.310  21.544  0.00  0.00    +0.000 A 
ATOM      6  C   UNL     1       1.238   8.247  20.798  0.00  0.00    +0.000 A 
ATOM      7  N   UNL     1       1.432   6.957  21.290  0.00  0.00    +0.000 N 
ATOM      8  N   UNL     1       1.550   8.512  19.504  0.00  0.00    +0.000 NA
ATOM      9  C   UNL     1       1.333   9.741  18.996  0.00  0.00    +0.000 A 
ATOM     10  N   UNL     1       0.808  10.807  19.615  0.00  0.00    +0.000 NA
ATOM     11  C   UNL     1       0.505  10.521  20.891  0.00  0.00    +0.000 A 
ATOM     12  H   UNL     1       1.513   6.852  22.293  0.00  0.00    +0.000 HD
ENDROOT
BRANCH   7  13
ATOM     13  C   UNL     1       2.103   6.006  20.401  0.00  0.00    +0.000 C 
BRANCH  13  14
ATOM     14  C   UNL     1       1.535   4.585  20.520  0.00  0.00    +0.000 C 
BRANCH  14  15
ATOM     15  C   UNL     1       2.268   3.581  19.643  0.00  0.00    +0.000 A 
ATOM     16  C   UNL     1       3.105   2.623  20.231  0.00  0.00    +0.000 A 
ATOM     17  F   UNL     1       3.253   2.597  21.564  0.00  0.00    +0.000 F 
ATOM     18  C   UNL     1       3.806   1.682  19.473  0.00  0.00    +0.000 A 
ATOM     19  C   UNL     1       3.679   1.675  18.088  0.00  0.00    +0.000 A 
ATOM     20  C   UNL     1       2.840   2.607  17.476  0.00  0.00    +0.000 A 
ATOM     21  C   UNL     1       2.138   3.547  18.245  0.00  0.00    +0.000 A 
ATOM     22 CL   UNL     1       1.116   4.653  17.398  0.00  0.00    +0.000 Cl
ENDBRANCH  14  15
ENDBRANCH  13  14
ENDBRANCH   7  13
TORSDOF 3
ENDMDL
MODEL 8
REMARK VINA RESULT:      -7.0      5.431      7.106
REMARK  Name = 
REMARK  4 active torsions:
REMARK  status: ('A' for Active; 'I' for Inactive)
REMARK    1  A    between atoms: C_1  and  N_2
REMARK    2  A    between atoms: N_7  and  C_8
REMARK    3  A    between atoms: C_8  and  C_9
REMARK    4  A    between atoms: C_9  and  C_10
REMARK                            x       y       z     vdW  Elec       q    Type
REMARK                         _______ _______ _______ _____ _____    ______ ____
ROOT
ATOM      1  C   UNL     1      -1.433  12.115  22.817  0.00  0.00    +0.000 C 
ATOM      2  N   UNL     1      -0.594  10.972  22.547  0.00  0.00    +0.000 N 
ATOM      3  N   UNL     1      -0.196  10.163  23.553  0.00  0.00    +0.000 NA
ATOM      4  C   UNL     1       0.526   9.231  22.922  0.00  0.00    +0.000 A 
ATOM      5  C   UNL     1       0.610   9.428  21.528  0.00  0.00    +0.000 A 
ATOM      6  C   UNL     1       1.175   8.804  20.396  0.00  0.00    +0.000 A 
ATOM      7  N   UNL     1       1.897   7.612  20.431  0.00  0.00    +0.000 N 
ATOM      8  N   UNL     1       0.949   9.403  19.198  0.00  0.00    +0.000 NA
ATOM      9  C   UNL     1       0.220  10.534  19.137  0.00  0.00    +0.000 A 
ATOM     10  N   UNL     1      -0.366  11.193  20.146  0.00  0.00    +0.000 NA
ATOM     11  C   UNL     1      -0.132  10.582  21.319  0.00  0.00    +0.000 A 
ATOM     12  H   UNL     1       2.331   7.360  21.309  0.00  0.00    +0.000 HD
ENDROOT
BRANCH   7  13
ATOM     13  C   UNL     1       2.489   7.163  19.169  0.00  0.00    +0.000 C 
BRANCH  13  14
ATOM     14  C   UNL     1       3.398   5.938  19.346  0.00  0.00    +0.000 C 
BRANCH  14  15
ATOM     15  C   UNL     1       4.055   5.499  18.046  0.00  0.00    +0.000 A 
ATOM     16  C   UNL     1       4.641   6.453  17.204  0.00  0.00    +0.000 A 
ATOM     17  F   UNL     1       4.619   7.749  17.551  0.00  0.00    +0.000 F 
ATOM     18  C   UNL     1       5.252   6.105  15.997  0.00  0.00    +0.000 A 
ATOM     19  C   UNL     1       5.296   4.773  15.602  0.00  0.00    +0.000 A 
ATOM     20  C   UNL     1       4.736   3.798  16.429  0.00  0.00    +0.000 A 
ATOM     21  C   UNL     1       4.126   4.156  17.640  0.00  0.00    +0.000 A 
ATOM     22 CL   UNL     1       3.469   2.878  18.600  0.00  0.00    +0.000 Cl
ENDBRANCH  14  15
ENDBRANCH  13  14
ENDBRANCH   7  13
TORSDOF 3
ENDMDL
MODEL 9
REMARK VINA RESULT:      -7.0      4.936      6.278
REMARK  Name = 
REMARK  4 active torsions:
REMARK  status: ('A' for Active; 'I' for Inactive)
REMARK    1  A    between atoms: C_1  and  N_2
REMARK    2  A    between atoms: N_7  and  C_8
REMARK    3  A    between atoms: C_8  and  C_9
REMARK    4  A    between atoms: C_9  and  C_10
REMARK                            x       y       z     vdW  Elec       q    Type
REMARK                         _______ _______ _______ _____ _____    ______ ____
ROOT
ATOM      1  C   UNL     1      -1.393  12.104  21.411  0.00  0.00    +0.000 C 
ATOM      2  N   UNL     1      -0.689  11.307  20.436  0.00  0.00    +0.000 N 
ATOM      3  N   UNL     1      -0.767  11.608  19.122  0.00  0.00    +0.000 NA
ATOM      4  C   UNL     1       0.015  10.684  18.554  0.00  0.00    +0.000 A 
ATOM      5  C   UNL     1       0.590   9.784  19.477  0.00  0.00    +0.000 A 
ATOM      6  C   UNL     1       1.467   8.680  19.483  0.00  0.00    +0.000 A 
ATOM      7  N   UNL     1       2.086   8.159  18.347  0.00  0.00    +0.000 N 
ATOM      8  N   UNL     1       1.745   8.133  20.694  0.00  0.00    +0.000 NA
ATOM      9  C   UNL     1       1.190   8.647  21.809  0.00  0.00    +0.000 A 
ATOM     10  N   UNL     1       0.359   9.695  21.908  0.00  0.00    +0.000 NA
ATOM     11  C   UNL     1       0.101  10.220  20.700  0.00  0.00    +0.000 A 
ATOM     12  H   UNL     1       1.643   8.337  17.456  0.00  0.00    +0.000 HD
ENDROOT
BRANCH   7  13
ATOM     13  C   UNL     1       2.891   6.950  18.532  0.00  0.00    +0.000 C 
BRANCH  13  14
ATOM     14  C   UNL     1       2.093   5.663  18.277  0.00  0.00    +0.000 C 
BRANCH  14  15
ATOM     15  C   UNL     1       2.421   4.559  19.270  0.00  0.00    +0.000 A 
ATOM     16  C   UNL     1       1.625   4.390  20.412  0.00  0.00    +0.000 A 
ATOM     17  F   UNL     1       0.579   5.204  20.620  0.00  0.00    +0.000 F 
ATOM     18  C   UNL     1       1.884   3.396  21.359  0.00  0.00    +0.000 A 
ATOM     19  C   UNL     1       2.958   2.532  21.180  0.00  0.00    +0.000 A 
ATOM     20  C   UNL     1       3.758   2.665  20.044  0.00  0.00    +0.000 A 
ATOM     21  C   UNL     1       3.490   3.664  19.096  0.00  0.00    +0.000 A 
ATOM     22 CL   UNL     1       4.529   3.744  17.719  0.00  0.00    +0.000 Cl
ENDBRANCH  14  15
ENDBRANCH  13  14
ENDBRANCH   7  13
TORSDOF 3
ENDMDL
