MODEL 1
REMARK VINA RESULT:      -7.4      0.000      0.000
REMARK  Name = 
REMARK  8 active torsions:
REMARK  status: ('A' for Active; 'I' for Inactive)
REMARK    1  A    between atoms: C_1  and  C_2
REMARK    2  A    between atoms: N_4  and  C_5
REMARK    3  A    between atoms: C_10  and  O_11
REMARK    4  A    between atoms: O_11  and  C_12
REMARK    5  A    between atoms: C_12  and  C_13
REMARK    6  A    between atoms: N_15  and  C_16
REMARK    7  A    between atoms: C_16  and  C_17
REMARK    8  A    between atoms: C_16  and  C_18
REMARK                            x       y       z     vdW  Elec       q    Type
REMARK                         _______ _______ _______ _____ _____    ______ ____
ROOT
ATOM      1  C   UNL     1       2.229   3.729  16.842  0.00  0.00    +0.000 C 
ENDROOT
BRANCH   1   2
ATOM      2  C   UNL     1       3.712   3.368  16.971  0.00  0.00    +0.000 C 
ATOM      3  O   UNL     1       4.101   2.321  17.480  0.00  0.00    +0.000 OA
ATOM      4  N   UNL     1       4.562   4.285  16.384  0.00  0.00    +0.000 N 
ATOM      5  H   UNL     1       4.199   5.162  16.032  0.00  0.00    +0.000 HD
BRANCH   4   6
ATOM      6  C   UNL     1       5.988   4.053  16.243  0.00  0.00    +0.000 C 
ATOM      7  C   UNL     1       6.359   3.986  14.756  0.00  0.00    +0.000 C 
BRANCH   6   8
ATOM      8  C   UNL     1       6.744   5.112  17.028  0.00  0.00    +0.000 A 
ATOM      9  C   UNL     1       7.330   4.750  18.257  0.00  0.00    +0.000 A 
ATOM     10  C   UNL     1       7.989   5.698  19.039  0.00  0.00    +0.000 A 
ATOM     11  C   UNL     1       8.071   7.021  18.614  0.00  0.00    +0.000 A 
ATOM     12  C   UNL     1       7.488   7.397  17.405  0.00  0.00    +0.000 A 
ATOM     13  C   UNL     1       6.824   6.450  16.621  0.00  0.00    +0.000 A 
ENDBRANCH   6   8
ENDBRANCH   4   6
ENDBRANCH   1   2
BRANCH   1  14
ATOM     14  O   UNL     1       1.392   3.161  17.827  0.00  0.00    +0.000 OA
BRANCH  14  20
ATOM     15  C   UNL     1       1.898   4.678  19.772  0.00  0.00    +0.000 A 
ATOM     16  C   UNL     1       2.160   4.716  21.155  0.00  0.00    +0.000 A 
ATOM     17  C   UNL     1       2.145   3.556  21.927  0.00  0.00    +0.000 A 
ATOM     18  C   UNL     1       1.897   2.336  21.318  0.00  0.00    +0.000 A 
ATOM     19  C   UNL     1       1.644   2.283  19.944  0.00  0.00    +0.000 A 
ATOM     20  C   UNL     1       1.628   3.445  19.151  0.00  0.00    +0.000 A 
BRANCH  15  24
ATOM     21  C   UNL     1       2.678   7.889  17.993  0.00  0.00    +0.000 C 
ATOM     22  C   UNL     1       2.983   6.605  18.716  0.00  0.00    +0.000 C 
ATOM     23  O   UNL     1       4.137   6.209  18.849  0.00  0.00    +0.000 OA
ATOM     24  N   UNL     1       1.845   5.921  19.104  0.00  0.00    +0.000 N 
ATOM     25  H   UNL     1       0.967   6.204  18.698  0.00  0.00    +0.000 HD
ENDBRANCH  15  24
ENDBRANCH  14  20
ENDBRANCH   1  14
TORSDOF 6
ENDMDL
MODEL 2
REMARK VINA RESULT:      -7.4      3.783      7.811
REMARK  Name = 
REMARK  8 active torsions:
REMARK  status: ('A' for Active; 'I' for Inactive)
REMARK    1  A    between atoms: C_1  and  C_2
REMARK    2  A    between atoms: N_4  and  C_5
REMARK    3  A    between atoms: C_10  and  O_11
REMARK    4  A    between atoms: O_11  and  C_12
REMARK    5  A    between atoms: C_12  and  C_13
REMARK    6  A    between atoms: N_15  and  C_16
REMARK    7  A    between atoms: C_16  and  C_17
REMARK    8  A    between atoms: C_16  and  C_18
REMARK                            x       y       z     vdW  Elec       q    Type
REMARK                         _______ _______ _______ _____ _____    ______ ____
ROOT
ATOM      1  C   UNL     1       2.561   8.083  17.553  0.00  0.00    +0.000 C 
ENDROOT
BRANCH   1   2
ATOM      2  C   UNL     1       1.625   8.806  18.528  0.00  0.00    +0.000 C 
ATOM      3  O   UNL     1       1.617   8.580  19.734  0.00  0.00    +0.000 OA
ATOM      4  N   UNL     1       0.861   9.794  17.938  0.00  0.00    +0.000 N 
ATOM      5  H   UNL     1       0.858   9.901  16.932  0.00  0.00    +0.000 HD
BRANCH   4   6
ATOM      6  C   UNL     1       0.038  10.711  18.705  0.00  0.00    +0.000 C 
ATOM      7  C   UNL     1       0.717  12.085  18.775  0.00  0.00    +0.000 C 
BRANCH   6   8
ATOM      8  C   UNL     1      -1.362  10.736  18.115  0.00  0.00    +0.000 A 
ATOM      9  C   UNL     1      -2.321  11.593  18.690  0.00  0.00    +0.000 A 
ATOM     10  C   UNL     1      -3.633  11.613  18.216  0.00  0.00    +0.000 A 
ATOM     11  C   UNL     1      -4.013  10.777  17.170  0.00  0.00    +0.000 A 
ATOM     12  C   UNL     1      -3.078   9.916  16.597  0.00  0.00    +0.000 A 
ATOM     13  C   UNL     1      -1.764   9.892  17.071  0.00  0.00    +0.000 A 
ENDBRANCH   6   8
ENDBRANCH   4   6
ENDBRANCH   1   2
BRANCH   1  14
ATOM     14  O   UNL     1       3.499   7.221  18.161  0.00  0.00    +0.000 OA
BRANCH  14  20
ATOM     15  C   UNL     1       3.891   4.790  17.638  0.00  0.00    +0.000 A 
ATOM     16  C   UNL     1       4.565   3.899  16.781  0.00  0.00    +0.000 A 
ATOM     17  C   UNL     1       5.349   4.362  15.726  0.00  0.00    +0.000 A 
ATOM     18  C   UNL     1       5.493   5.727  15.533  0.00  0.00    +0.000 A 
ATOM     19  C   UNL     1       4.836   6.623  16.381  0.00  0.00    +0.000 A 
ATOM     20  C   UNL     1       4.019   6.177  17.436  0.00  0.00    +0.000 A 
BRANCH  15  24
ATOM     21  C   UNL     1       1.018   3.338  19.566  0.00  0.00    +0.000 C 
ATOM     22  C   UNL     1       1.702   3.989  18.395  0.00  0.00    +0.000 C 
ATOM     23  O   UNL     1       1.102   4.201  17.346  0.00  0.00    +0.000 OA
ATOM     24  N   UNL     1       3.049   4.214  18.614  0.00  0.00    +0.000 N 
ATOM     25  H   UNL     1       3.481   3.749  19.397  0.00  0.00    +0.000 HD
ENDBRANCH  15  24
ENDBRANCH  14  20
ENDBRANCH   1  14
TORSDOF 6
ENDMDL
MODEL 3
REMARK VINA RESULT:      -7.4      3.803      7.830
REMARK  Name = 
REMARK  8 active torsions:
REMARK  status: ('A' for Active; 'I' for Inactive)
REMARK    1  A    between atoms: C_1  and  C_2
REMARK    2  A    between atoms: N_4  and  C_5
REMARK    3  A    between atoms: C_10  and  O_11
REMARK    4  A    between atoms: O_11  and  C_12
REMARK    5  A    between atoms: C_12  and  C_13
REMARK    6  A    between atoms: N_15  and  C_16
REMARK    7  A    between atoms: C_16  and  C_17
REMARK    8  A    between atoms: C_16  and  C_18
REMARK                            x       y       z     vdW  Elec       q    Type
REMARK                         _______ _______ _______ _____ _____    ______ ____
ROOT
ATOM      1  C   UNL     1       2.586   8.223  17.950  0.00  0.00    +0.000 C 
ENDROOT
BRANCH   1   2
ATOM      2  C   UNL     1       1.577   8.967  18.830  0.00  0.00    +0.000 C 
ATOM      3  O   UNL     1       1.440   8.737  20.027  0.00  0.00    +0.000 OA
ATOM      4  N   UNL     1       0.902   9.976  18.171  0.00  0.00    +0.000 N 
ATOM      5  H   UNL     1       1.003  10.087  17.170  0.00  0.00    +0.000 HD
BRANCH   4   6
ATOM      6  C   UNL     1       0.029  10.912  18.857  0.00  0.00    +0.000 C 
ATOM      7  C   UNL     1       0.633  12.321  18.802  0.00  0.00    +0.000 C 
BRANCH   6   8
ATOM      8  C   UNL     1      -1.369  10.809  18.271  0.00  0.00    +0.000 A 
ATOM      9  C   UNL     1      -1.583   9.934  17.188  0.00  0.00    +0.000 A 
ATOM     10  C   UNL     1      -2.837   9.843  16.582  0.00  0.00    +0.000 A 
ATOM     11  C   UNL     1      -3.893  10.625  17.039  0.00  0.00    +0.000 A 
ATOM     12  C   UNL     1      -3.695  11.503  18.103  0.00  0.00    +0.000 A 
ATOM     13  C   UNL     1      -2.440  11.599  18.710  0.00  0.00    +0.000 A 
ENDBRANCH   6   8
ENDBRANCH   4   6
ENDBRANCH   1   2
BRANCH   1  14
ATOM     14  O   UNL     1       3.073   7.015  18.497  0.00  0.00    +0.000 OA
BRANCH  14  20
ATOM     15  C   UNL     1       3.732   4.718  17.704  0.00  0.00    +0.000 A 
ATOM     16  C   UNL     1       4.533   4.011  16.786  0.00  0.00    +0.000 A 
ATOM     17  C   UNL     1       5.314   4.677  15.844  0.00  0.00    +0.000 A 
ATOM     18  C   UNL     1       5.327   6.063  15.827  0.00  0.00    +0.000 A 
ATOM     19  C   UNL     1       4.545   6.777  16.739  0.00  0.00    +0.000 A 
ATOM     20  C   UNL     1       3.729   6.125  17.681  0.00  0.00    +0.000 A 
BRANCH  15  24
ATOM     21  C   UNL     1       0.921   2.801  19.287  0.00  0.00    +0.000 C 
ATOM     22  C   UNL     1       1.587   3.667  18.253  0.00  0.00    +0.000 C 
ATOM     23  O   UNL     1       1.001   3.995  17.226  0.00  0.00    +0.000 OA
ATOM     24  N   UNL     1       2.909   3.946  18.552  0.00  0.00    +0.000 N 
ATOM     25  H   UNL     1       3.352   3.397  19.272  0.00  0.00    +0.000 HD
ENDBRANCH  15  24
ENDBRANCH  14  20
ENDBRANCH   1  14
TORSDOF 6
ENDMDL
MODEL 4
REMARK VINA RESULT:      -7.3      3.399      6.714
REMARK  Name = 
REMARK  8 active torsions:
REMARK  status: ('A' for Active; 'I' for Inactive)
REMARK    1  A    between atoms: C_1  and  C_2
REMARK    2  A    between atoms: N_4  and  C_5
REMARK    3  A    between atoms: C_10  and  O_11
REMARK    4  A    between atoms: O_11  and  C_12
REMARK    5  A    between atoms: C_12  and  C_13
REMARK    6  A    between atoms: N_15  and  C_16
REMARK    7  A    between atoms: C_16  and  C_17
REMARK    8  A    between atoms: C_16  and  C_18
REMARK                            x       y       z     vdW  Elec       q    Type
REMARK                         _______ _______ _______ _____ _____    ______ ____
ROOT
ATOM      1  C   UNL     1       2.955   6.904  18.648  0.00  0.00    +0.000 C 
ENDROOT
BRANCH   1   2
ATOM      2  C   UNL     1       2.320   8.267  18.355  0.00  0.00    +0.000 C 
ATOM      3  O   UNL     1       2.452   8.846  17.281  0.00  0.00    +0.000 OA
ATOM      4  N   UNL     1       1.517   8.738  19.375  0.00  0.00    +0.000 N 
ATOM      5  H   UNL     1       1.488   8.256  20.264  0.00  0.00    +0.000 HD
BRANCH   4   6
ATOM      6  C   UNL     1       0.689   9.923  19.236  0.00  0.00    +0.000 C 
ATOM      7  C   UNL     1      -0.345   9.708  18.123  0.00  0.00    +0.000 C 
BRANCH   6   8
ATOM      8  C   UNL     1       0.087  10.270  20.588  0.00  0.00    +0.000 A 
ATOM      9  C   UNL     1       0.204   9.337  21.637  0.00  0.00    +0.000 A 
ATOM     10  C   UNL     1      -0.376   9.586  22.881  0.00  0.00    +0.000 A 
ATOM     11  C   UNL     1      -1.087  10.763  23.098  0.00  0.00    +0.000 A 
ATOM     12  C   UNL     1      -1.220  11.692  22.067  0.00  0.00    +0.000 A 
ATOM     13  C   UNL     1      -0.642  11.443  20.819  0.00  0.00    +0.000 A 
ENDBRANCH   6   8
ENDBRANCH   4   6
ENDBRANCH   1   2
BRANCH   1  14
ATOM     14  O   UNL     1       3.026   6.032  17.539  0.00  0.00    +0.000 OA
BRANCH  14  20
ATOM     15  C   UNL     1       3.920   3.679  17.569  0.00  0.00    +0.000 A 
ATOM     16  C   UNL     1       3.584   2.331  17.799  0.00  0.00    +0.000 A 
ATOM     17  C   UNL     1       2.304   1.964  18.211  0.00  0.00    +0.000 A 
ATOM     18  C   UNL     1       1.333   2.940  18.370  0.00  0.00    +0.000 A 
ATOM     19  C   UNL     1       1.651   4.281  18.137  0.00  0.00    +0.000 A 
ATOM     20  C   UNL     1       2.943   4.677  17.745  0.00  0.00    +0.000 A 
BRANCH  15  24
ATOM     21  C   UNL     1       7.546   4.644  17.601  0.00  0.00    +0.000 C 
ATOM     22  C   UNL     1       6.161   4.472  18.164  0.00  0.00    +0.000 C 
ATOM     23  O   UNL     1       5.921   4.705  19.344  0.00  0.00    +0.000 OA
ATOM     24  N   UNL     1       5.267   3.949  17.246  0.00  0.00    +0.000 N 
ATOM     25  H   UNL     1       5.644   3.542  16.404  0.00  0.00    +0.000 HD
ENDBRANCH  15  24
ENDBRANCH  14  20
ENDBRANCH   1  14
TORSDOF 6
ENDMDL
MODEL 5
REMARK VINA RESULT:      -7.3      3.522      6.712
REMARK  Name = 
REMARK  8 active torsions:
REMARK  status: ('A' for Active; 'I' for Inactive)
REMARK    1  A    between atoms: C_1  and  C_2
REMARK    2  A    between atoms: N_4  and  C_5
REMARK    3  A    between atoms: C_10  and  O_11
REMARK    4  A    between atoms: O_11  and  C_12
REMARK    5  A    between atoms: C_12  and  C_13
REMARK    6  A    between atoms: N_15  and  C_16
REMARK    7  A    between atoms: C_16  and  C_17
REMARK    8  A    between atoms: C_16  and  C_18
REMARK                            x       y       z     vdW  Elec       q    Type
REMARK                         _______ _______ _______ _____ _____    ______ ____
ROOT
ATOM      1  C   UNL     1       2.622   7.255  18.075  0.00  0.00    +0.000 C 
ENDROOT
BRANCH   1   2
ATOM      2  C   UNL     1       2.072   8.684  18.116  0.00  0.00    +0.000 C 
ATOM      3  O   UNL     1       2.424   9.557  17.328  0.00  0.00    +0.000 OA
ATOM      4  N   UNL     1       1.082   8.873  19.060  0.00  0.00    +0.000 N 
ATOM      5  H   UNL     1       0.869   8.143  19.727  0.00  0.00    +0.000 HD
BRANCH   4   6
ATOM      6  C   UNL     1       0.309  10.099  19.150  0.00  0.00    +0.000 C 
ATOM      7  C   UNL     1      -0.844  10.062  18.139  0.00  0.00    +0.000 C 
BRANCH   6   8
ATOM      8  C   UNL     1      -0.130  10.305  20.590  0.00  0.00    +0.000 A 
ATOM      9  C   UNL     1      -0.013   9.228  21.491  0.00  0.00    +0.000 A 
ATOM     10  C   UNL     1      -0.450   9.352  22.810  0.00  0.00    +0.000 A 
ATOM     11  C   UNL     1      -1.017  10.544  23.250  0.00  0.00    +0.000 A 
ATOM     12  C   UNL     1      -1.150  11.615  22.369  0.00  0.00    +0.000 A 
ATOM     13  C   UNL     1      -0.715  11.494  21.046  0.00  0.00    +0.000 A 
ENDBRANCH   6   8
ENDBRANCH   4   6
ENDBRANCH   1   2
BRANCH   1  14
ATOM     14  O   UNL     1       3.175   6.798  19.291  0.00  0.00    +0.000 OA
BRANCH  14  20
ATOM     15  C   UNL     1       3.755   4.353  19.135  0.00  0.00    +0.000 A 
ATOM     16  C   UNL     1       3.418   3.066  19.599  0.00  0.00    +0.000 A 
ATOM     17  C   UNL     1       2.413   2.877  20.545  0.00  0.00    +0.000 A 
ATOM     18  C   UNL     1       1.709   3.973  21.019  0.00  0.00    +0.000 A 
ATOM     19  C   UNL     1       2.027   5.255  20.561  0.00  0.00    +0.000 A 
ATOM     20  C   UNL     1       3.055   5.471  19.626  0.00  0.00    +0.000 A 
BRANCH  15  24
ATOM     21  C   UNL     1       7.116   4.850  17.543  0.00  0.00    +0.000 C 
ATOM     22  C   UNL     1       6.101   4.871  18.653  0.00  0.00    +0.000 C 
ATOM     23  O   UNL     1       6.420   5.166  19.801  0.00  0.00    +0.000 OA
ATOM     24  N   UNL     1       4.850   4.440  18.249  0.00  0.00    +0.000 N 
ATOM     25  H   UNL     1       4.782   3.965  17.363  0.00  0.00    +0.000 HD
ENDBRANCH  15  24
ENDBRANCH  14  20
ENDBRANCH   1  14
TORSDOF 6
ENDMDL
MODEL 6
REMARK VINA RESULT:      -7.3      4.005      7.753
REMARK  Name = 
REMARK  8 active torsions:
REMARK  status: ('A' for Active; 'I' for Inactive)
REMARK    1  A    between atoms: C_1  and  C_2
REMARK    2  A    between atoms: N_4  and  C_5
REMARK    3  A    between atoms: C_10  and  O_11
REMARK    4  A    between atoms: O_11  and  C_12
REMARK    5  A    between atoms: C_12  and  C_13
REMARK    6  A    between atoms: N_15  and  C_16
REMARK    7  A    between atoms: C_16  and  C_17
REMARK    8  A    between atoms: C_16  and  C_18
REMARK                            x       y       z     vdW  Elec       q    Type
REMARK                         _______ _______ _______ _____ _____    ______ ____
ROOT
ATOM      1  C   UNL     1       2.295   8.290  17.819  0.00  0.00    +0.000 C 
ENDROOT
BRANCH   1   2
ATOM      2  C   UNL     1       1.285   9.019  18.710  0.00  0.00    +0.000 C 
ATOM      3  O   UNL     1       1.283   8.922  19.933  0.00  0.00    +0.000 OA
ATOM      4  N   UNL     1       0.437   9.861  18.017  0.00  0.00    +0.000 N 
ATOM      5  H   UNL     1       0.435   9.860  17.005  0.00  0.00    +0.000 HD
BRANCH   4   6
ATOM      6  C   UNL     1      -0.479  10.771  18.681  0.00  0.00    +0.000 C 
ATOM      7  C   UNL     1       0.162  12.160  18.797  0.00  0.00    +0.000 C 
BRANCH   6   8
ATOM      8  C   UNL     1      -1.811  10.758  17.950  0.00  0.00    +0.000 A 
ATOM      9  C   UNL     1      -1.932   9.976  16.784  0.00  0.00    +0.000 A 
ATOM     10  C   UNL     1      -3.118   9.971  16.049  0.00  0.00    +0.000 A 
ATOM     11  C   UNL     1      -4.197  10.749  16.458  0.00  0.00    +0.000 A 
ATOM     12  C   UNL     1      -4.090  11.537  17.603  0.00  0.00    +0.000 A 
ATOM     13  C   UNL     1      -2.902  11.545  18.340  0.00  0.00    +0.000 A 
ENDBRANCH   6   8
ENDBRANCH   4   6
ENDBRANCH   1   2
BRANCH   1  14
ATOM     14  O   UNL     1       3.140   7.385  18.498  0.00  0.00    +0.000 OA
BRANCH  14  20
ATOM     15  C   UNL     1       4.296   5.323  17.630  0.00  0.00    +0.000 A 
ATOM     16  C   UNL     1       4.099   3.997  17.199  0.00  0.00    +0.000 A 
ATOM     17  C   UNL     1       2.836   3.409  17.222  0.00  0.00    +0.000 A 
ATOM     18  C   UNL     1       1.746   4.151  17.648  0.00  0.00    +0.000 A 
ATOM     19  C   UNL     1       1.926   5.472  18.069  0.00  0.00    +0.000 A 
ATOM     20  C   UNL     1       3.196   6.077  18.080  0.00  0.00    +0.000 A 
BRANCH  15  24
ATOM     21  C   UNL     1       7.839   6.168  18.533  0.00  0.00    +0.000 C 
ATOM     22  C   UNL     1       6.456   5.617  18.750  0.00  0.00    +0.000 C 
ATOM     23  O   UNL     1       6.167   5.012  19.777  0.00  0.00    +0.000 OA
ATOM     24  N   UNL     1       5.628   5.789  17.654  0.00  0.00    +0.000 N 
ATOM     25  H   UNL     1       6.057   6.047  16.779  0.00  0.00    +0.000 HD
ENDBRANCH  15  24
ENDBRANCH  14  20
ENDBRANCH   1  14
TORSDOF 6
ENDMDL
MODEL 7
REMARK VINA RESULT:      -7.3      3.509      6.756
REMARK  Name = 
REMARK  8 active torsions:
REMARK  status: ('A' for Active; 'I' for Inactive)
REMARK    1  A    between atoms: C_1  and  C_2
REMARK    2  A    between atoms: N_4  and  C_5
REMARK    3  A    between atoms: C_10  and  O_11
REMARK    4  A    between atoms: O_11  and  C_12
REMARK    5  A    between atoms: C_12  and  C_13
REMARK    6  A    between atoms: N_15  and  C_16
REMARK    7  A    between atoms: C_16  and  C_17
REMARK    8  A    between atoms: C_16  and  C_18
REMARK                            x       y       z     vdW  Elec       q    Type
REMARK                         _______ _______ _______ _____ _____    ______ ____
ROOT
ATOM      1  C   UNL     1       2.692   7.205  18.107  0.00  0.00    +0.000 C 
ENDROOT
BRANCH   1   2
ATOM      2  C   UNL     1       2.112   8.623  18.124  0.00  0.00    +0.000 C 
ATOM      3  O   UNL     1       2.424   9.480  17.302  0.00  0.00    +0.000 OA
ATOM      4  N   UNL     1       1.145   8.818  19.089  0.00  0.00    +0.000 N 
ATOM      5  H   UNL     1       0.966   8.102  19.782  0.00  0.00    +0.000 HD
BRANCH   4   6
ATOM      6  C   UNL     1       0.348  10.029  19.168  0.00  0.00    +0.000 C 
ATOM      7  C   UNL     1      -0.756   9.995  18.104  0.00  0.00    +0.000 C 
BRANCH   6   8
ATOM      8  C   UNL     1      -0.160  10.199  20.589  0.00  0.00    +0.000 A 
ATOM      9  C   UNL     1      -0.761  11.422  20.949  0.00  0.00    +0.000 A 
ATOM     10  C   UNL     1      -1.196  11.645  22.255  0.00  0.00    +0.000 A 
ATOM     11  C   UNL     1      -1.035  10.659  23.225  0.00  0.00    +0.000 A 
ATOM     12  C   UNL     1      -0.433   9.448  22.887  0.00  0.00    +0.000 A 
ATOM     13  C   UNL     1       0.006   9.223  21.580  0.00  0.00    +0.000 A 
ENDBRANCH   6   8
ENDBRANCH   4   6
ENDBRANCH   1   2
BRANCH   1  14
ATOM     14  O   UNL     1       3.169   6.745  19.354  0.00  0.00    +0.000 OA
BRANCH  14  20
ATOM     15  C   UNL     1       3.718   4.295  19.162  0.00  0.00    +0.000 A 
ATOM     16  C   UNL     1       3.372   3.007  19.612  0.00  0.00    +0.000 A 
ATOM     17  C   UNL     1       2.374   2.817  20.566  0.00  0.00    +0.000 A 
ATOM     18  C   UNL     1       1.688   3.915  21.061  0.00  0.00    +0.000 A 
ATOM     19  C   UNL     1       2.015   5.199  20.616  0.00  0.00    +0.000 A 
ATOM     20  C   UNL     1       3.037   5.415  19.673  0.00  0.00    +0.000 A 
BRANCH  15  24
ATOM     21  C   UNL     1       7.064   4.796  17.538  0.00  0.00    +0.000 C 
ATOM     22  C   UNL     1       6.059   4.819  18.656  0.00  0.00    +0.000 C 
ATOM     23  O   UNL     1       6.386   5.124  19.799  0.00  0.00    +0.000 OA
ATOM     24  N   UNL     1       4.806   4.381  18.265  0.00  0.00    +0.000 N 
ATOM     25  H   UNL     1       4.732   3.900  17.383  0.00  0.00    +0.000 HD
ENDBRANCH  15  24
ENDBRANCH  14  20
ENDBRANCH   1  14
TORSDOF 6
ENDMDL
MODEL 8
REMARK VINA RESULT:      -7.2      3.895      7.619
REMARK  Name = 
REMARK  8 active torsions:
REMARK  status: ('A' for Active; 'I' for Inactive)
REMARK    1  A    between atoms: C_1  and  C_2
REMARK    2  A    between atoms: N_4  and  C_5
REMARK    3  A    between atoms: C_10  and  O_11
REMARK    4  A    between atoms: O_11  and  C_12
REMARK    5  A    between atoms: C_12  and  C_13
REMARK    6  A    between atoms: N_15  and  C_16
REMARK    7  A    between atoms: C_16  and  C_17
REMARK    8  A    between atoms: C_16  and  C_18
REMARK                            x       y       z     vdW  Elec       q    Type
REMARK                         _______ _______ _______ _____ _____    ______ ____
ROOT
ATOM      1  C   UNL     1       2.407   8.070  18.243  0.00  0.00    +0.000 C 
ENDROOT
BRANCH   1   2
ATOM      2  C   UNL     1       1.433   8.954  19.029  0.00  0.00    +0.000 C 
ATOM      3  O   UNL     1       1.279   8.860  20.242  0.00  0.00    +0.000 OA
ATOM      4  N   UNL     1       0.814   9.920  18.260  0.00  0.00    +0.000 N 
ATOM      5  H   UNL     1       0.925   9.919  17.254  0.00  0.00    +0.000 HD
BRANCH   4   6
ATOM      6  C   UNL     1      -0.013  10.967  18.834  0.00  0.00    +0.000 C 
ATOM      7  C   UNL     1       0.664  12.329  18.639  0.00  0.00    +0.000 C 
BRANCH   6   8
ATOM      8  C   UNL     1      -1.411  10.875  18.247  0.00  0.00    +0.000 A 
ATOM      9  C   UNL     1      -2.432  11.665  18.810  0.00  0.00    +0.000 A 
ATOM     10  C   UNL     1      -3.743  11.577  18.340  0.00  0.00    +0.000 A 
ATOM     11  C   UNL     1      -4.058  10.699  17.308  0.00  0.00    +0.000 A 
ATOM     12  C   UNL     1      -3.061   9.903  16.746  0.00  0.00    +0.000 A 
ATOM     13  C   UNL     1      -1.748   9.987  17.217  0.00  0.00    +0.000 A 
ENDBRANCH   6   8
ENDBRANCH   4   6
ENDBRANCH   1   2
BRANCH   1  14
ATOM     14  O   UNL     1       3.001   7.031  18.992  0.00  0.00    +0.000 OA
BRANCH  14  20
ATOM     15  C   UNL     1       4.419   5.255  17.909  0.00  0.00    +0.000 A 
ATOM     16  C   UNL     1       4.392   3.995  17.280  0.00  0.00    +0.000 A 
ATOM     17  C   UNL     1       3.203   3.283  17.138  0.00  0.00    +0.000 A 
ATOM     18  C   UNL     1       2.018   3.836  17.598  0.00  0.00    +0.000 A 
ATOM     19  C   UNL     1       2.030   5.090  18.216  0.00  0.00    +0.000 A 
ATOM     20  C   UNL     1       3.222   5.815  18.393  0.00  0.00    +0.000 A 
BRANCH  15  24
ATOM     21  C   UNL     1       7.595   7.223  17.560  0.00  0.00    +0.000 C 
ATOM     22  C   UNL     1       6.254   6.688  17.141  0.00  0.00    +0.000 C 
ATOM     23  O   UNL     1       5.720   7.055  16.098  0.00  0.00    +0.000 OA
ATOM     24  N   UNL     1       5.689   5.847  18.084  0.00  0.00    +0.000 N 
ATOM     25  H   UNL     1       6.090   5.844  19.008  0.00  0.00    +0.000 HD
ENDBRANCH  15  24
ENDBRANCH  14  20
ENDBRANCH   1  14
TORSDOF 6
ENDMDL
MODEL 9
REMARK VINA RESULT:      -7.2      3.626      7.409
REMARK  Name = 
REMARK  8 active torsions:
REMARK  status: ('A' for Active; 'I' for Inactive)
REMARK    1  A    between atoms: C_1  and  C_2
REMARK    2  A    between atoms: N_4  and  C_5
REMARK    3  A    between atoms: C_10  and  O_11
REMARK    4  A    between atoms: O_11  and  C_12
REMARK    5  A    between atoms: C_12  and  C_13
REMARK    6  A    between atoms: N_15  and  C_16
REMARK    7  A    between atoms: C_16  and  C_17
REMARK    8  A    between atoms: C_16  and  C_18
REMARK                            x       y       z     vdW  Elec       q    Type
REMARK                         _______ _______ _______ _____ _____    ______ ____
ROOT
ATOM      1  C   UNL     1       2.277   8.004  17.362  0.00  0.00    +0.000 C 
ENDROOT
BRANCH   1   2
ATOM      2  C   UNL     1       1.839   9.368  17.906  0.00  0.00    +0.000 C 
ATOM      3  O   UNL     1       2.471  10.400  17.702  0.00  0.00    +0.000 OA
ATOM      4  N   UNL     1       0.628   9.340  18.569  0.00  0.00    +0.000 N 
ATOM      5  H   UNL     1       0.176   8.457  18.766  0.00  0.00    +0.000 HD
BRANCH   4   6
ATOM      6  C   UNL     1      -0.050  10.546  19.011  0.00  0.00    +0.000 C 
ATOM      7  C   UNL     1      -1.275  10.808  18.126  0.00  0.00    +0.000 C 
BRANCH   6   8
ATOM      8  C   UNL     1      -0.365  10.423  20.493  0.00  0.00    +0.000 A 
ATOM      9  C   UNL     1      -0.849  11.557  21.175  0.00  0.00    +0.000 A 
ATOM     10  C   UNL     1      -1.103  11.509  22.546  0.00  0.00    +0.000 A 
ATOM     11  C   UNL     1      -0.874  10.336  23.260  0.00  0.00    +0.000 A 
ATOM     12  C   UNL     1      -0.386   9.209  22.601  0.00  0.00    +0.000 A 
ATOM     13  C   UNL     1      -0.128   9.255  21.228  0.00  0.00    +0.000 A 
ENDBRANCH   6   8
ENDBRANCH   4   6
ENDBRANCH   1   2
BRANCH   1  14
ATOM     14  O   UNL     1       3.426   7.461  17.978  0.00  0.00    +0.000 OA
BRANCH  14  20
ATOM     15  C   UNL     1       3.898   4.991  17.843  0.00  0.00    +0.000 A 
ATOM     16  C   UNL     1       4.635   4.003  17.163  0.00  0.00    +0.000 A 
ATOM     17  C   UNL     1       5.462   4.328  16.090  0.00  0.00    +0.000 A 
ATOM     18  C   UNL     1       5.586   5.653  15.701  0.00  0.00    +0.000 A 
ATOM     19  C   UNL     1       4.866   6.645  16.374  0.00  0.00    +0.000 A 
ATOM     20  C   UNL     1       4.006   6.336  17.443  0.00  0.00    +0.000 A 
BRANCH  15  24
ATOM     21  C   UNL     1       0.983   3.689  19.816  0.00  0.00    +0.000 C 
ATOM     22  C   UNL     1       1.716   4.160  18.590  0.00  0.00    +0.000 C 
ATOM     23  O   UNL     1       1.195   4.111  17.480  0.00  0.00    +0.000 OA
ATOM     24  N   UNL     1       3.020   4.542  18.854  0.00  0.00    +0.000 N 
ATOM     25  H   UNL     1       3.415   4.277  19.742  0.00  0.00    +0.000 HD
ENDBRANCH  15  24
ENDBRANCH  14  20
ENDBRANCH   1  14
TORSDOF 6
ENDMDL
