MODEL 1
REMARK VINA RESULT:      -8.5      0.000      0.000
REMARK  Name = 
REMARK  4 active torsions:
REMARK  status: ('A' for Active; 'I' for Inactive)
REMARK    1  A    between atoms: C_2  and  C_15
REMARK    2  A    between atoms: C_6  and  C_7
REMARK    3  A    between atoms: C_18  and  S_19
REMARK    4  A    between atoms: S_19  and  N_22
REMARK                            x       y       z     vdW  Elec       q    Type
REMARK                         _______ _______ _______ _____ _____    ______ ____
ROOT
ATOM      1  O   UNL     1       2.187   8.469  19.252  0.00  0.00    +0.000 OA
ATOM      2  C   UNL     1       1.625   8.122  20.281  0.00  0.00    +0.000 C 
ATOM      3  N   UNL     1       1.708   6.887  20.890  0.00  0.00    +0.000 N 
ATOM      4  C   UNL     1       2.440   5.887  20.325  0.00  0.00    +0.000 A 
ATOM      5  N   UNL     1       3.313   5.971  19.369  0.00  0.00    +0.000 NA
ATOM      6  C   UNL     1       3.772   4.711  19.043  0.00  0.00    +0.000 A 
ATOM      7  C   UNL     1       3.199   3.682  19.766  0.00  0.00    +0.000 A 
ATOM      8  S   UNL     1       2.136   4.329  20.952  0.00  0.00    +0.000 S 
ATOM      9  H   UNL     1       1.187   6.644  21.718  0.00  0.00    +0.000 HD
ENDROOT
BRANCH   6  10
ATOM     10  C   UNL     1       4.784   4.539  18.011  0.00  0.00    +0.000 A 
ATOM     11  C   UNL     1       4.399   4.168  16.725  0.00  0.00    +0.000 A 
ATOM     12  C   UNL     1       5.371   4.038  15.741  0.00  0.00    +0.000 A 
ATOM     13  C   UNL     1       6.696   4.270  16.077  0.00  0.00    +0.000 A 
ATOM     14  C   UNL     1       6.998   4.630  17.380  0.00  0.00    +0.000 A 
ATOM     15  N   UNL     1       6.077   4.778  18.357  0.00  0.00    +0.000 NA
ENDBRANCH   6  10
BRANCH   2  16
ATOM     16  C   UNL     1       0.749   9.121  20.965  0.00  0.00    +0.000 A 
ATOM     17  C   UNL     1       0.452   9.073  22.330  0.00  0.00    +0.000 A 
ATOM     18  C   UNL     1      -0.388  10.045  22.896  0.00  0.00    +0.000 A 
ATOM     19  C   UNL     1      -0.936  11.064  22.102  0.00  0.00    +0.000 A 
ATOM     20  C   UNL     1      -0.682  11.091  20.730  0.00  0.00    +0.000 A 
ATOM     21  C   UNL     1       0.170  10.120  20.170  0.00  0.00    +0.000 A 
BRANCH  19  22
ATOM     22  S   UNL     1      -2.070  12.230  22.843  0.00  0.00    +0.000 S 
ATOM     23  O   UNL     1      -2.971  11.466  23.670  0.00  0.00    +0.000 OA
ATOM     24  O   UNL     1      -1.267  13.297  23.411  0.00  0.00    +0.000 OA
BRANCH  22  25
ATOM     25  N   UNL     1      -2.986  12.909  21.569  0.00  0.00    +0.000 NA
ATOM     26  C   UNL     1      -2.700  14.303  21.135  0.00  0.00    +0.000 C 
ATOM     27  C   UNL     1      -3.283  15.350  22.090  0.00  0.00    +0.000 C 
ATOM     28  O   UNL     1      -4.684  15.170  22.332  0.00  0.00    +0.000 OA
ATOM     29  C   UNL     1      -5.045  13.835  22.705  0.00  0.00    +0.000 C 
ATOM     30  C   UNL     1      -4.478  12.780  21.743  0.00  0.00    +0.000 C 
ENDBRANCH  22  25
ENDBRANCH  19  22
ENDBRANCH   2  16
TORSDOF 4
ENDMDL
MODEL 2
REMARK VINA RESULT:      -8.4      0.970      1.063
REMARK  Name = 
REMARK  4 active torsions:
REMARK  status: ('A' for Active; 'I' for Inactive)
REMARK    1  A    between atoms: C_2  and  C_15
REMARK    2  A    between atoms: C_6  and  C_7
REMARK    3  A    between atoms: C_18  and  S_19
REMARK    4  A    between atoms: S_19  and  N_22
REMARK                            x       y       z     vdW  Elec       q    Type
REMARK                         _______ _______ _______ _____ _____    ______ ____
ROOT
ATOM      1  O   UNL     1       1.572   8.974  18.991  0.00  0.00    +0.000 OA
ATOM      2  C   UNL     1       1.224   8.631  20.111  0.00  0.00    +0.000 C 
ATOM      3  N   UNL     1       1.526   7.441  20.740  0.00  0.00    +0.000 N 
ATOM      4  C   UNL     1       2.249   6.483  20.095  0.00  0.00    +0.000 A 
ATOM      5  N   UNL     1       2.940   6.597  19.003  0.00  0.00    +0.000 NA
ATOM      6  C   UNL     1       3.459   5.369  18.648  0.00  0.00    +0.000 A 
ATOM      7  C   UNL     1       3.116   4.330  19.493  0.00  0.00    +0.000 A 
ATOM      8  S   UNL     1       2.205   4.939  20.818  0.00  0.00    +0.000 S 
ATOM      9  H   UNL     1       1.176   7.195  21.653  0.00  0.00    +0.000 HD
ENDROOT
BRANCH   6  10
ATOM     10  C   UNL     1       4.298   5.236  17.466  0.00  0.00    +0.000 A 
ATOM     11  C   UNL     1       4.736   3.975  17.072  0.00  0.00    +0.000 A 
ATOM     12  C   UNL     1       5.511   3.858  15.925  0.00  0.00    +0.000 A 
ATOM     13  C   UNL     1       5.833   5.007  15.217  0.00  0.00    +0.000 A 
ATOM     14  C   UNL     1       5.363   6.225  15.679  0.00  0.00    +0.000 A 
ATOM     15  N   UNL     1       4.598   6.372  16.782  0.00  0.00    +0.000 NA
ENDBRANCH   6  10
BRANCH   2  16
ATOM     16  C   UNL     1       0.380   9.580  20.897  0.00  0.00    +0.000 A 
ATOM     17  C   UNL     1       0.083   9.401  22.252  0.00  0.00    +0.000 A 
ATOM     18  C   UNL     1      -0.725  10.335  22.918  0.00  0.00    +0.000 A 
ATOM     19  C   UNL     1      -1.243  11.447  22.236  0.00  0.00    +0.000 A 
ATOM     20  C   UNL     1      -0.991  11.607  20.873  0.00  0.00    +0.000 A 
ATOM     21  C   UNL     1      -0.169  10.673  20.212  0.00  0.00    +0.000 A 
BRANCH  19  22
ATOM     22  S   UNL     1      -2.340  12.564  23.098  0.00  0.00    +0.000 S 
ATOM     23  O   UNL     1      -3.248  11.747  23.864  0.00  0.00    +0.000 OA
ATOM     24  O   UNL     1      -1.505  13.555  23.750  0.00  0.00    +0.000 OA
BRANCH  22  25
ATOM     25  N   UNL     1      -3.255  13.379  21.905  0.00  0.00    +0.000 NA
ATOM     26  C   UNL     1      -3.456  14.848  22.024  0.00  0.00    +0.000 C 
ATOM     27  C   UNL     1      -4.518  15.216  23.067  0.00  0.00    +0.000 C 
ATOM     28  O   UNL     1      -5.766  14.548  22.854  0.00  0.00    +0.000 OA
ATOM     29  C   UNL     1      -5.649  13.131  22.679  0.00  0.00    +0.000 C 
ATOM     30  C   UNL     1      -4.598  12.754  21.623  0.00  0.00    +0.000 C 
ENDBRANCH  22  25
ENDBRANCH  19  22
ENDBRANCH   2  16
TORSDOF 4
ENDMDL
MODEL 3
REMARK VINA RESULT:      -8.3      2.834     11.133
REMARK  Name = 
REMARK  4 active torsions:
REMARK  status: ('A' for Active; 'I' for Inactive)
REMARK    1  A    between atoms: C_2  and  C_15
REMARK    2  A    between atoms: C_6  and  C_7
REMARK    3  A    between atoms: C_18  and  S_19
REMARK    4  A    between atoms: S_19  and  N_22
REMARK                            x       y       z     vdW  Elec       q    Type
REMARK                         _______ _______ _______ _____ _____    ______ ____
ROOT
ATOM      1  O   UNL     1      -0.395   9.154  20.921  0.00  0.00    +0.000 OA
ATOM      2  C   UNL     1       0.473   9.558  20.161  0.00  0.00    +0.000 C 
ATOM      3  N   UNL     1       0.663  10.859  19.743  0.00  0.00    +0.000 N 
ATOM      4  C   UNL     1      -0.187  11.844  20.145  0.00  0.00    +0.000 A 
ATOM      5  N   UNL     1      -1.067  11.807  21.097  0.00  0.00    +0.000 NA
ATOM      6  C   UNL     1      -1.773  12.993  21.128  0.00  0.00    +0.000 A 
ATOM      7  C   UNL     1      -1.410  13.907  20.156  0.00  0.00    +0.000 A 
ATOM      8  S   UNL     1      -0.081  13.295  19.253  0.00  0.00    +0.000 S 
ATOM      9  H   UNL     1       1.373  11.127  19.079  0.00  0.00    +0.000 HD
ENDROOT
BRANCH   6  10
ATOM     10  C   UNL     1      -2.806  13.211  22.129  0.00  0.00    +0.000 A 
ATOM     11  C   UNL     1      -2.936  12.317  23.189  0.00  0.00    +0.000 A 
ATOM     12  C   UNL     1      -3.905  12.553  24.156  0.00  0.00    +0.000 A 
ATOM     13  C   UNL     1      -4.721  13.667  24.025  0.00  0.00    +0.000 A 
ATOM     14  C   UNL     1      -4.532  14.504  22.937  0.00  0.00    +0.000 A 
ATOM     15  N   UNL     1      -3.592  14.312  21.988  0.00  0.00    +0.000 NA
ENDBRANCH   6  10
BRANCH   2  16
ATOM     16  C   UNL     1       1.435   8.556  19.610  0.00  0.00    +0.000 A 
ATOM     17  C   UNL     1       2.013   8.665  18.342  0.00  0.00    +0.000 A 
ATOM     18  C   UNL     1       2.902   7.676  17.894  0.00  0.00    +0.000 A 
ATOM     19  C   UNL     1       3.215   6.575  18.706  0.00  0.00    +0.000 A 
ATOM     20  C   UNL     1       2.606   6.436  19.954  0.00  0.00    +0.000 A 
ATOM     21  C   UNL     1       1.723   7.437  20.403  0.00  0.00    +0.000 A 
BRANCH  19  22
ATOM     22  S   UNL     1       4.283   5.294  18.064  0.00  0.00    +0.000 S 
ATOM     23  O   UNL     1       4.886   4.646  19.202  0.00  0.00    +0.000 OA
ATOM     24  O   UNL     1       3.501   4.534  17.107  0.00  0.00    +0.000 OA
BRANCH  22  25
ATOM     25  N   UNL     1       5.528   6.077  17.192  0.00  0.00    +0.000 NA
ATOM     26  C   UNL     1       5.826   5.638  15.802  0.00  0.00    +0.000 C 
ATOM     27  C   UNL     1       6.633   4.336  15.753  0.00  0.00    +0.000 C 
ATOM     28  O   UNL     1       7.831   4.391  16.537  0.00  0.00    +0.000 OA
ATOM     29  C   UNL     1       7.632   4.855  17.877  0.00  0.00    +0.000 C 
ATOM     30  C   UNL     1       6.838   6.169  17.934  0.00  0.00    +0.000 C 
ENDBRANCH  22  25
ENDBRANCH  19  22
ENDBRANCH   2  16
TORSDOF 4
ENDMDL
MODEL 4
REMARK VINA RESULT:      -8.3      0.535      1.282
REMARK  Name = 
REMARK  4 active torsions:
REMARK  status: ('A' for Active; 'I' for Inactive)
REMARK    1  A    between atoms: C_2  and  C_15
REMARK    2  A    between atoms: C_6  and  C_7
REMARK    3  A    between atoms: C_18  and  S_19
REMARK    4  A    between atoms: S_19  and  N_22
REMARK                            x       y       z     vdW  Elec       q    Type
REMARK                         _______ _______ _______ _____ _____    ______ ____
ROOT
ATOM      1  O   UNL     1       2.131   8.587  19.043  0.00  0.00    +0.000 OA
ATOM      2  C   UNL     1       1.559   8.263  20.074  0.00  0.00    +0.000 C 
ATOM      3  N   UNL     1       1.669   7.058  20.735  0.00  0.00    +0.000 N 
ATOM      4  C   UNL     1       2.446   6.060  20.226  0.00  0.00    +0.000 A 
ATOM      5  N   UNL     1       3.335   6.135  19.285  0.00  0.00    +0.000 NA
ATOM      6  C   UNL     1       3.842   4.879  19.020  0.00  0.00    +0.000 A 
ATOM      7  C   UNL     1       3.288   3.861  19.774  0.00  0.00    +0.000 A 
ATOM      8  S   UNL     1       2.180   4.520  20.911  0.00  0.00    +0.000 S 
ATOM      9  H   UNL     1       1.140   6.831  21.562  0.00  0.00    +0.000 HD
ENDROOT
BRANCH   6  10
ATOM     10  C   UNL     1       4.880   4.699  18.016  0.00  0.00    +0.000 A 
ATOM     11  C   UNL     1       6.214   4.892  18.364  0.00  0.00    +0.000 A 
ATOM     12  C   UNL     1       7.199   4.687  17.406  0.00  0.00    +0.000 A 
ATOM     13  C   UNL     1       6.816   4.308  16.127  0.00  0.00    +0.000 A 
ATOM     14  C   UNL     1       5.467   4.143  15.859  0.00  0.00    +0.000 A 
ATOM     15  N   UNL     1       4.487   4.321  16.770  0.00  0.00    +0.000 NA
ENDBRANCH   6  10
BRANCH   2  16
ATOM     16  C   UNL     1       0.637   9.259  20.698  0.00  0.00    +0.000 A 
ATOM     17  C   UNL     1       0.058  10.317  19.991  0.00  0.00    +0.000 A 
ATOM     18  C   UNL     1      -0.793  11.216  20.653  0.00  0.00    +0.000 A 
ATOM     19  C   UNL     1      -1.066  11.065  22.021  0.00  0.00    +0.000 A 
ATOM     20  C   UNL     1      -0.455  10.040  22.744  0.00  0.00    +0.000 A 
ATOM     21  C   UNL     1       0.389   9.134  22.072  0.00  0.00    +0.000 A 
BRANCH  19  22
ATOM     22  S   UNL     1      -2.083  12.281  22.846  0.00  0.00    +0.000 S 
ATOM     23  O   UNL     1      -2.987  11.555  23.703  0.00  0.00    +0.000 OA
ATOM     24  O   UNL     1      -1.186  13.281  23.392  0.00  0.00    +0.000 OA
BRANCH  22  25
ATOM     25  N   UNL     1      -3.018  13.048  21.636  0.00  0.00    +0.000 NA
ATOM     26  C   UNL     1      -2.709  14.455  21.264  0.00  0.00    +0.000 C 
ATOM     27  C   UNL     1      -3.235  15.466  22.289  0.00  0.00    +0.000 C 
ATOM     28  O   UNL     1      -4.632  15.308  22.564  0.00  0.00    +0.000 OA
ATOM     29  C   UNL     1      -5.017  13.965  22.881  0.00  0.00    +0.000 C 
ATOM     30  C   UNL     1      -4.508  12.947  21.850  0.00  0.00    +0.000 C 
ENDBRANCH  22  25
ENDBRANCH  19  22
ENDBRANCH   2  16
TORSDOF 4
ENDMDL
MODEL 5
REMARK VINA RESULT:      -8.2      2.810     10.993
REMARK  Name = 
REMARK  4 active torsions:
REMARK  status: ('A' for Active; 'I' for Inactive)
REMARK    1  A    between atoms: C_2  and  C_15
REMARK    2  A    between atoms: C_6  and  C_7
REMARK    3  A    between atoms: C_18  and  S_19
REMARK    4  A    between atoms: S_19  and  N_22
REMARK                            x       y       z     vdW  Elec       q    Type
REMARK                         _______ _______ _______ _____ _____    ______ ____
ROOT
ATOM      1  O   UNL     1       0.739   9.545  21.680  0.00  0.00    +0.000 OA
ATOM      2  C   UNL     1       0.686   9.369  20.472  0.00  0.00    +0.000 C 
ATOM      3  N   UNL     1      -0.079  10.077  19.568  0.00  0.00    +0.000 N 
ATOM      4  C   UNL     1      -0.916  11.064  19.995  0.00  0.00    +0.000 A 
ATOM      5  N   UNL     1      -0.951  11.641  21.156  0.00  0.00    +0.000 NA
ATOM      6  C   UNL     1      -1.999  12.537  21.202  0.00  0.00    +0.000 A 
ATOM      7  C   UNL     1      -2.761  12.594  20.050  0.00  0.00    +0.000 A 
ATOM      8  S   UNL     1      -2.075  11.570  18.851  0.00  0.00    +0.000 S 
ATOM      9  H   UNL     1      -0.114   9.859  18.585  0.00  0.00    +0.000 HD
ENDROOT
BRANCH   6  10
ATOM     10  C   UNL     1      -2.236  13.336  22.395  0.00  0.00    +0.000 A 
ATOM     11  C   UNL     1      -3.541  13.563  22.823  0.00  0.00    +0.000 A 
ATOM     12  C   UNL     1      -3.753  14.300  23.981  0.00  0.00    +0.000 A 
ATOM     13  C   UNL     1      -2.654  14.797  24.666  0.00  0.00    +0.000 A 
ATOM     14  C   UNL     1      -1.387  14.532  24.172  0.00  0.00    +0.000 A 
ATOM     15  N   UNL     1      -1.146  13.808  23.057  0.00  0.00    +0.000 NA
ENDBRANCH   6  10
BRANCH   2  16
ATOM     16  C   UNL     1       1.522   8.275  19.892  0.00  0.00    +0.000 A 
ATOM     17  C   UNL     1       1.793   7.079  20.563  0.00  0.00    +0.000 A 
ATOM     18  C   UNL     1       2.596   6.103  19.952  0.00  0.00    +0.000 A 
ATOM     19  C   UNL     1       3.134   6.319  18.674  0.00  0.00    +0.000 A 
ATOM     20  C   UNL     1       2.907   7.529  18.018  0.00  0.00    +0.000 A 
ATOM     21  C   UNL     1       2.091   8.500  18.631  0.00  0.00    +0.000 A 
BRANCH  19  22
ATOM     22  S   UNL     1       4.223   5.089  17.969  0.00  0.00    +0.000 S 
ATOM     23  O   UNL     1       4.879   4.433  19.072  0.00  0.00    +0.000 OA
ATOM     24  O   UNL     1       3.439   4.329  17.014  0.00  0.00    +0.000 OA
BRANCH  22  25
ATOM     25  N   UNL     1       5.418   5.935  17.084  0.00  0.00    +0.000 NA
ATOM     26  C   UNL     1       5.746   5.490  15.702  0.00  0.00    +0.000 C 
ATOM     27  C   UNL     1       6.635   4.241  15.680  0.00  0.00    +0.000 C 
ATOM     28  O   UNL     1       7.825   4.388  16.463  0.00  0.00    +0.000 OA
ATOM     29  C   UNL     1       7.594   4.864  17.794  0.00  0.00    +0.000 C 
ATOM     30  C   UNL     1       6.717   6.125  17.825  0.00  0.00    +0.000 C 
ENDBRANCH  22  25
ENDBRANCH  19  22
ENDBRANCH   2  16
TORSDOF 4
ENDMDL
MODEL 6
REMARK VINA RESULT:      -8.1      1.397      1.963
REMARK  Name = 
REMARK  4 active torsions:
REMARK  status: ('A' for Active; 'I' for Inactive)
REMARK    1  A    between atoms: C_2  and  C_15
REMARK    2  A    between atoms: C_6  and  C_7
REMARK    3  A    between atoms: C_18  and  S_19
REMARK    4  A    between atoms: S_19  and  N_22
REMARK                            x       y       z     vdW  Elec       q    Type
REMARK                         _______ _______ _______ _____ _____    ______ ____
ROOT
ATOM      1  O   UNL     1       2.183   8.479  18.880  0.00  0.00    +0.000 OA
ATOM      2  C   UNL     1       1.601   8.185  19.914  0.00  0.00    +0.000 C 
ATOM      3  N   UNL     1       1.716   7.005  20.619  0.00  0.00    +0.000 N 
ATOM      4  C   UNL     1       2.510   5.999  20.156  0.00  0.00    +0.000 A 
ATOM      5  N   UNL     1       3.411   6.051  19.225  0.00  0.00    +0.000 NA
ATOM      6  C   UNL     1       3.936   4.793  19.011  0.00  0.00    +0.000 A 
ATOM      7  C   UNL     1       3.383   3.796  19.793  0.00  0.00    +0.000 A 
ATOM      8  S   UNL     1       2.252   4.482  20.891  0.00  0.00    +0.000 S 
ATOM      9  H   UNL     1       1.178   6.802  21.447  0.00  0.00    +0.000 HD
ENDROOT
BRANCH   6  10
ATOM     10  C   UNL     1       4.990   4.590  18.028  0.00  0.00    +0.000 A 
ATOM     11  C   UNL     1       4.654   4.247  16.721  0.00  0.00    +0.000 A 
ATOM     12  C   UNL     1       5.667   4.087  15.784  0.00  0.00    +0.000 A 
ATOM     13  C   UNL     1       6.983   4.262  16.187  0.00  0.00    +0.000 A 
ATOM     14  C   UNL     1       7.233   4.597  17.508  0.00  0.00    +0.000 A 
ATOM     15  N   UNL     1       6.273   4.773  18.440  0.00  0.00    +0.000 NA
ENDBRANCH   6  10
BRANCH   2  16
ATOM     16  C   UNL     1       0.659   9.191  20.491  0.00  0.00    +0.000 A 
ATOM     17  C   UNL     1      -0.002  10.153  19.721  0.00  0.00    +0.000 A 
ATOM     18  C   UNL     1      -0.866  11.069  20.340  0.00  0.00    +0.000 A 
ATOM     19  C   UNL     1      -1.070  11.033  21.727  0.00  0.00    +0.000 A 
ATOM     20  C   UNL     1      -0.378  10.107  22.509  0.00  0.00    +0.000 A 
ATOM     21  C   UNL     1       0.479   9.183  21.881  0.00  0.00    +0.000 A 
BRANCH  19  22
ATOM     22  S   UNL     1      -2.109  12.273  22.488  0.00  0.00    +0.000 S 
ATOM     23  O   UNL     1      -2.803  12.947  21.419  0.00  0.00    +0.000 OA
ATOM     24  O   UNL     1      -2.845  11.613  23.550  0.00  0.00    +0.000 OA
BRANCH  22  25
ATOM     25  N   UNL     1      -1.065  13.409  23.226  0.00  0.00    +0.000 NA
ATOM     26  C   UNL     1      -1.645  14.463  24.102  0.00  0.00    +0.000 C 
ATOM     27  C   UNL     1      -2.296  15.600  23.307  0.00  0.00    +0.000 C 
ATOM     28  O   UNL     1      -1.418  16.176  22.333  0.00  0.00    +0.000 OA
ATOM     29  C   UNL     1      -0.779  15.216  21.482  0.00  0.00    +0.000 C 
ATOM     30  C   UNL     1      -0.110  14.081  22.272  0.00  0.00    +0.000 C 
ENDBRANCH  22  25
ENDBRANCH  19  22
ENDBRANCH   2  16
TORSDOF 4
ENDMDL
MODEL 7
REMARK VINA RESULT:      -8.1      2.828     11.022
REMARK  Name = 
REMARK  4 active torsions:
REMARK  status: ('A' for Active; 'I' for Inactive)
REMARK    1  A    between atoms: C_2  and  C_15
REMARK    2  A    between atoms: C_6  and  C_7
REMARK    3  A    between atoms: C_18  and  S_19
REMARK    4  A    between atoms: S_19  and  N_22
REMARK                            x       y       z     vdW  Elec       q    Type
REMARK                         _______ _______ _______ _____ _____    ______ ____
ROOT
ATOM      1  O   UNL     1      -0.333   8.862  21.180  0.00  0.00    +0.000 OA
ATOM      2  C   UNL     1       0.728   9.172  20.659  0.00  0.00    +0.000 C 
ATOM      3  N   UNL     1       1.278  10.436  20.594  0.00  0.00    +0.000 N 
ATOM      4  C   UNL     1       0.609  11.506  21.106  0.00  0.00    +0.000 A 
ATOM      5  N   UNL     1      -0.419  11.508  21.897  0.00  0.00    +0.000 NA
ATOM      6  C   UNL     1      -0.836  12.805  22.119  0.00  0.00    +0.000 A 
ATOM      7  C   UNL     1      -0.104  13.769  21.452  0.00  0.00    +0.000 A 
ATOM      8  S   UNL     1       1.199  13.028  20.611  0.00  0.00    +0.000 S 
ATOM      9  H   UNL     1       2.140  10.638  20.113  0.00  0.00    +0.000 HD
ENDROOT
BRANCH   6  10
ATOM     10  C   UNL     1      -1.963  13.077  22.999  0.00  0.00    +0.000 A 
ATOM     11  C   UNL     1      -2.183  14.375  23.453  0.00  0.00    +0.000 A 
ATOM     12  C   UNL     1      -3.280  14.628  24.267  0.00  0.00    +0.000 A 
ATOM     13  C   UNL     1      -4.113  13.573  24.611  0.00  0.00    +0.000 A 
ATOM     14  C   UNL     1      -3.821  12.310  24.123  0.00  0.00    +0.000 A 
ATOM     15  N   UNL     1      -2.772  12.032  23.320  0.00  0.00    +0.000 NA
ENDBRANCH   6  10
BRANCH   2  16
ATOM     16  C   UNL     1       1.529   8.087  20.015  0.00  0.00    +0.000 A 
ATOM     17  C   UNL     1       1.767   6.849  20.618  0.00  0.00    +0.000 A 
ATOM     18  C   UNL     1       2.536   5.884  19.951  0.00  0.00    +0.000 A 
ATOM     19  C   UNL     1       3.074   6.152  18.682  0.00  0.00    +0.000 A 
ATOM     20  C   UNL     1       2.880   7.402  18.094  0.00  0.00    +0.000 A 
ATOM     21  C   UNL     1       2.098   8.362  18.764  0.00  0.00    +0.000 A 
BRANCH  19  22
ATOM     22  S   UNL     1       4.122   4.930  17.904  0.00  0.00    +0.000 S 
ATOM     23  O   UNL     1       4.876   4.298  18.958  0.00  0.00    +0.000 OA
ATOM     24  O   UNL     1       3.275   4.146  17.026  0.00  0.00    +0.000 OA
BRANCH  22  25
ATOM     25  N   UNL     1       5.226   5.782  16.915  0.00  0.00    +0.000 NA
ATOM     26  C   UNL     1       5.559   5.241  15.569  0.00  0.00    +0.000 C 
ATOM     27  C   UNL     1       6.545   4.069  15.632  0.00  0.00    +0.000 C 
ATOM     28  O   UNL     1       7.736   4.377  16.366  0.00  0.00    +0.000 OA
ATOM     29  C   UNL     1       7.495   4.952  17.656  0.00  0.00    +0.000 C 
ATOM     30  C   UNL     1       6.521   6.139  17.599  0.00  0.00    +0.000 C 
ENDBRANCH  22  25
ENDBRANCH  19  22
ENDBRANCH   2  16
TORSDOF 4
ENDMDL
MODEL 8
REMARK VINA RESULT:      -8.0      0.988      1.503
REMARK  Name = 
REMARK  4 active torsions:
REMARK  status: ('A' for Active; 'I' for Inactive)
REMARK    1  A    between atoms: C_2  and  C_15
REMARK    2  A    between atoms: C_6  and  C_7
REMARK    3  A    between atoms: C_18  and  S_19
REMARK    4  A    between atoms: S_19  and  N_22
REMARK                            x       y       z     vdW  Elec       q    Type
REMARK                         _______ _______ _______ _____ _____    ______ ____
ROOT
ATOM      1  O   UNL     1       2.270   8.712  18.627  0.00  0.00    +0.000 OA
ATOM      2  C   UNL     1       1.712   8.482  19.690  0.00  0.00    +0.000 C 
ATOM      3  N   UNL     1       1.797   7.322  20.432  0.00  0.00    +0.000 N 
ATOM      4  C   UNL     1       2.527   6.264  19.979  0.00  0.00    +0.000 A 
ATOM      5  N   UNL     1       3.395   6.241  19.016  0.00  0.00    +0.000 NA
ATOM      6  C   UNL     1       3.852   4.953  18.829  0.00  0.00    +0.000 A 
ATOM      7  C   UNL     1       3.281   4.010  19.664  0.00  0.00    +0.000 A 
ATOM      8  S   UNL     1       2.224   4.786  20.775  0.00  0.00    +0.000 S 
ATOM      9  H   UNL     1       1.280   7.173  21.284  0.00  0.00    +0.000 HD
ENDROOT
BRANCH   6  10
ATOM     10  C   UNL     1       4.860   4.666  17.818  0.00  0.00    +0.000 A 
ATOM     11  C   UNL     1       4.462   4.268  16.545  0.00  0.00    +0.000 A 
ATOM     12  C   UNL     1       5.432   4.028  15.580  0.00  0.00    +0.000 A 
ATOM     13  C   UNL     1       6.767   4.181  15.923  0.00  0.00    +0.000 A 
ATOM     14  C   UNL     1       7.080   4.575  17.213  0.00  0.00    +0.000 A 
ATOM     15  N   UNL     1       6.163   4.829  18.171  0.00  0.00    +0.000 NA
ENDBRANCH   6  10
BRANCH   2  16
ATOM     16  C   UNL     1       0.840   9.551  20.263  0.00  0.00    +0.000 A 
ATOM     17  C   UNL     1       0.250  10.556  19.489  0.00  0.00    +0.000 A 
ATOM     18  C   UNL     1      -0.551  11.530  20.104  0.00  0.00    +0.000 A 
ATOM     19  C   UNL     1      -0.763  11.508  21.491  0.00  0.00    +0.000 A 
ATOM     20  C   UNL     1      -0.141  10.537  22.276  0.00  0.00    +0.000 A 
ATOM     21  C   UNL     1       0.653   9.555  21.652  0.00  0.00    +0.000 A 
BRANCH  19  22
ATOM     22  S   UNL     1      -1.717  12.817  22.247  0.00  0.00    +0.000 S 
ATOM     23  O   UNL     1      -1.115  13.083  23.530  0.00  0.00    +0.000 OA
ATOM     24  O   UNL     1      -1.848  13.870  21.257  0.00  0.00    +0.000 OA
BRANCH  22  25
ATOM     25  N   UNL     1      -3.283  12.190  22.529  0.00  0.00    +0.000 NA
ATOM     26  C   UNL     1      -4.407  12.631  21.659  0.00  0.00    +0.000 C 
ATOM     27  C   UNL     1      -4.920  14.030  22.019  0.00  0.00    +0.000 C 
ATOM     28  O   UNL     1      -5.267  14.159  23.403  0.00  0.00    +0.000 OA
ATOM     29  C   UNL     1      -4.251  13.705  24.305  0.00  0.00    +0.000 C 
ATOM     30  C   UNL     1      -3.743  12.297  23.961  0.00  0.00    +0.000 C 
ENDBRANCH  22  25
ENDBRANCH  19  22
ENDBRANCH   2  16
TORSDOF 4
ENDMDL
MODEL 9
REMARK VINA RESULT:      -7.9      1.395      1.831
REMARK  Name = 
REMARK  4 active torsions:
REMARK  status: ('A' for Active; 'I' for Inactive)
REMARK    1  A    between atoms: C_2  and  C_15
REMARK    2  A    between atoms: C_6  and  C_7
REMARK    3  A    between atoms: C_18  and  S_19
REMARK    4  A    between atoms: S_19  and  N_22
REMARK                            x       y       z     vdW  Elec       q    Type
REMARK                         _______ _______ _______ _____ _____    ______ ____
ROOT
ATOM      1  O   UNL     1       2.354   8.707  18.283  0.00  0.00    +0.000 OA
ATOM      2  C   UNL     1       1.790   8.507  19.349  0.00  0.00    +0.000 C 
ATOM      3  N   UNL     1       1.898   7.383  20.141  0.00  0.00    +0.000 N 
ATOM      4  C   UNL     1       2.660   6.327  19.740  0.00  0.00    +0.000 A 
ATOM      5  N   UNL     1       3.540   6.286  18.788  0.00  0.00    +0.000 NA
ATOM      6  C   UNL     1       4.033   5.004  18.661  0.00  0.00    +0.000 A 
ATOM      7  C   UNL     1       3.478   4.083  19.530  0.00  0.00    +0.000 A 
ATOM      8  S   UNL     1       2.388   4.876  20.596  0.00  0.00    +0.000 S 
ATOM      9  H   UNL     1       1.375   7.256  20.994  0.00  0.00    +0.000 HD
ENDROOT
BRANCH   6  10
ATOM     10  C   UNL     1       5.059   4.702  17.674  0.00  0.00    +0.000 A 
ATOM     11  C   UNL     1       4.685   4.333  16.385  0.00  0.00    +0.000 A 
ATOM     12  C   UNL     1       5.673   4.078  15.442  0.00  0.00    +0.000 A 
ATOM     13  C   UNL     1       7.003   4.188  15.823  0.00  0.00    +0.000 A 
ATOM     14  C   UNL     1       7.292   4.555  17.127  0.00  0.00    +0.000 A 
ATOM     15  N   UNL     1       6.356   4.822  18.064  0.00  0.00    +0.000 NA
ENDBRANCH   6  10
BRANCH   2  16
ATOM     16  C   UNL     1       0.883   9.576  19.867  0.00  0.00    +0.000 A 
ATOM     17  C   UNL     1       0.777   9.902  21.222  0.00  0.00    +0.000 A 
ATOM     18  C   UNL     1      -0.105  10.914  21.629  0.00  0.00    +0.000 A 
ATOM     19  C   UNL     1      -0.887  11.601  20.687  0.00  0.00    +0.000 A 
ATOM     20  C   UNL     1      -0.822  11.249  19.339  0.00  0.00    +0.000 A 
ATOM     21  C   UNL     1       0.074  10.240  18.935  0.00  0.00    +0.000 A 
BRANCH  19  22
ATOM     22  S   UNL     1      -2.063  12.821  21.256  0.00  0.00    +0.000 S 
ATOM     23  O   UNL     1      -1.533  14.111  20.889  0.00  0.00    +0.000 OA
ATOM     24  O   UNL     1      -3.370  12.397  20.790  0.00  0.00    +0.000 OA
BRANCH  22  25
ATOM     25  N   UNL     1      -2.081  12.735  22.963  0.00  0.00    +0.000 NA
ATOM     26  C   UNL     1      -3.326  12.301  23.653  0.00  0.00    +0.000 C 
ATOM     27  C   UNL     1      -4.384  13.408  23.714  0.00  0.00    +0.000 C 
ATOM     28  O   UNL     1      -3.887  14.627  24.280  0.00  0.00    +0.000 OA
ATOM     29  C   UNL     1      -2.659  15.082  23.700  0.00  0.00    +0.000 C 
ATOM     30  C   UNL     1      -1.588  13.983  23.651  0.00  0.00    +0.000 C 
ENDBRANCH  22  25
ENDBRANCH  19  22
ENDBRANCH   2  16
TORSDOF 4
ENDMDL
