MODEL 1
REMARK VINA RESULT:      -7.5      0.000      0.000
REMARK  Name = 
REMARK  11 active torsions:
REMARK  status: ('A' for Active; 'I' for Inactive)
REMARK    1  A    between atoms: C_1  and  O_2
REMARK    2  A    between atoms: O_2  and  C_3
REMARK    3  A    between atoms: C_5  and  C_6
REMARK    4  A    between atoms: C_6  and  C_7
REMARK    5  A    between atoms: C_7  and  C_8
REMARK    6  A    between atoms: C_8  and  O_10
REMARK    7  A    between atoms: C_13  and  O_14
REMARK    8  A    between atoms: O_14  and  C_15
REMARK    9  A    between atoms: C_15  and  C_16
REMARK   10  A    between atoms: C_21  and  S_22
REMARK   11  A    between atoms: S_22  and  C_23
REMARK                            x       y       z     vdW  Elec       q    Type
REMARK                         _______ _______ _______ _____ _____    ______ ____
ROOT
ATOM      1  C   UNL     1       6.928   4.708  17.195  0.00  0.00    +0.000 A 
ATOM      2  C   UNL     1       7.098   4.863  15.807  0.00  0.00    +0.000 A 
ATOM      3  C   UNL     1       6.108   4.471  14.896  0.00  0.00    +0.000 A 
ATOM      4  C   UNL     1       4.924   3.929  15.387  0.00  0.00    +0.000 A 
ATOM      5  C   UNL     1       4.729   3.803  16.758  0.00  0.00    +0.000 A 
ATOM      6  C   UNL     1       5.727   4.165  17.678  0.00  0.00    +0.000 A 
ENDROOT
BRANCH   1   8
ATOM      7  C   UNL     1       7.915   6.405  18.589  0.00  0.00    +0.000 C 
ATOM      8  O   UNL     1       8.010   5.170  17.897  0.00  0.00    +0.000 OA
ENDBRANCH   1   8
BRANCH   3   9
ATOM      9  C   UNL     1       6.242   4.717  13.418  0.00  0.00    +0.000 C 
BRANCH   9  10
ATOM     10  C   UNL     1       6.720   3.517  12.611  0.00  0.00    +0.000 C 
BRANCH  10  11
ATOM     11  C   UNL     1       5.541   2.858  11.923  0.00  0.00    +0.000 C 
ATOM     12  O   UNL     1       4.470   3.400  11.679  0.00  0.00    +0.000 OA
BRANCH  11  13
ATOM     13  O   UNL     1       5.796   1.577  11.587  0.00  0.00    +0.000 OA
ATOM     14  H   UNL     1       5.121   0.945  11.894  0.00  0.00    +0.000 HD
ENDBRANCH  11  13
ENDBRANCH  10  11
ENDBRANCH   9  10
ENDBRANCH   3   9
BRANCH   6  15
ATOM     15  O   UNL     1       5.531   4.031  19.029  0.00  0.00    +0.000 OA
BRANCH  15  16
ATOM     16  C   UNL     1       4.754   5.070  19.638  0.00  0.00    +0.000 C 
BRANCH  16  17
ATOM     17  C   UNL     1       3.401   4.517  19.998  0.00  0.00    +0.000 A 
ATOM     18  C   UNL     1       3.349   3.154  20.352  0.00  0.00    +0.000 A 
ATOM     19  C   UNL     1       2.150   2.553  20.716  0.00  0.00    +0.000 A 
ATOM     20  C   UNL     1       0.980   3.302  20.712  0.00  0.00    +0.000 A 
ATOM     21  C   UNL     1       1.018   4.658  20.374  0.00  0.00    +0.000 A 
ATOM     22  C   UNL     1       2.221   5.289  20.022  0.00  0.00    +0.000 A 
BRANCH  22  23
ATOM     23  S   UNL     1       2.154   7.077  19.882  0.00  0.00    +0.000 S 
BRANCH  23  24
ATOM     24  C   UNL     1       2.450   7.380  18.132  0.00  0.00    +0.000 C 
ATOM     25  F   UNL     1       2.503   6.260  17.386  0.00  0.00    +0.000 F 
ATOM     26  F   UNL     1       1.483   8.170  17.606  0.00  0.00    +0.000 F 
ATOM     27  F   UNL     1       3.627   8.032  17.964  0.00  0.00    +0.000 F 
ENDBRANCH  23  24
ENDBRANCH  22  23
ENDBRANCH  16  17
ENDBRANCH  15  16
ENDBRANCH   6  15
TORSDOF 10
ENDMDL
MODEL 2
REMARK VINA RESULT:      -7.4      0.685      1.098
REMARK  Name = 
REMARK  11 active torsions:
REMARK  status: ('A' for Active; 'I' for Inactive)
REMARK    1  A    between atoms: C_1  and  O_2
REMARK    2  A    between atoms: O_2  and  C_3
REMARK    3  A    between atoms: C_5  and  C_6
REMARK    4  A    between atoms: C_6  and  C_7
REMARK    5  A    between atoms: C_7  and  C_8
REMARK    6  A    between atoms: C_8  and  O_10
REMARK    7  A    between atoms: C_13  and  O_14
REMARK    8  A    between atoms: O_14  and  C_15
REMARK    9  A    between atoms: C_15  and  C_16
REMARK   10  A    between atoms: C_21  and  S_22
REMARK   11  A    between atoms: S_22  and  C_23
REMARK                            x       y       z     vdW  Elec       q    Type
REMARK                         _______ _______ _______ _____ _____    ______ ____
ROOT
ATOM      1  C   UNL     1       6.958   5.117  17.096  0.00  0.00    +0.000 A 
ATOM      2  C   UNL     1       7.197   5.081  15.710  0.00  0.00    +0.000 A 
ATOM      3  C   UNL     1       6.434   4.279  14.852  0.00  0.00    +0.000 A 
ATOM      4  C   UNL     1       5.406   3.512  15.393  0.00  0.00    +0.000 A 
ATOM      5  C   UNL     1       5.137   3.565  16.757  0.00  0.00    +0.000 A 
ATOM      6  C   UNL     1       5.915   4.344  17.629  0.00  0.00    +0.000 A 
ENDROOT
BRANCH   1   8
ATOM      7  C   UNL     1       7.612   7.377  17.609  0.00  0.00    +0.000 C 
ATOM      8  O   UNL     1       7.809   5.979  17.740  0.00  0.00    +0.000 OA
ENDBRANCH   1   8
BRANCH   3   9
ATOM      9  C   UNL     1       6.621   4.303  13.360  0.00  0.00    +0.000 C 
BRANCH   9  10
ATOM     10  C   UNL     1       5.513   3.624  12.566  0.00  0.00    +0.000 C 
BRANCH  10  11
ATOM     11  C   UNL     1       6.082   2.456  11.785  0.00  0.00    +0.000 C 
ATOM     12  O   UNL     1       5.428   1.532  11.318  0.00  0.00    +0.000 OA
BRANCH  11  13
ATOM     13  O   UNL     1       7.420   2.539  11.642  0.00  0.00    +0.000 OA
ATOM     14  H   UNL     1       7.847   1.694  11.413  0.00  0.00    +0.000 HD
ENDBRANCH  11  13
ENDBRANCH  10  11
ENDBRANCH   9  10
ENDBRANCH   3   9
BRANCH   6  15
ATOM     15  O   UNL     1       5.649   4.386  18.974  0.00  0.00    +0.000 OA
BRANCH  15  16
ATOM     16  C   UNL     1       4.745   5.419  19.383  0.00  0.00    +0.000 C 
BRANCH  16  17
ATOM     17  C   UNL     1       3.464   4.786  19.855  0.00  0.00    +0.000 A 
ATOM     18  C   UNL     1       3.513   3.410  20.157  0.00  0.00    +0.000 A 
ATOM     19  C   UNL     1       2.388   2.735  20.615  0.00  0.00    +0.000 A 
ATOM     20  C   UNL     1       1.189   3.423  20.759  0.00  0.00    +0.000 A 
ATOM     21  C   UNL     1       1.128   4.790  20.475  0.00  0.00    +0.000 A 
ATOM     22  C   UNL     1       2.257   5.495  20.030  0.00  0.00    +0.000 A 
BRANCH  22  23
ATOM     23  S   UNL     1       2.091   7.280  19.970  0.00  0.00    +0.000 S 
BRANCH  23  24
ATOM     24  C   UNL     1       2.212   7.662  18.215  0.00  0.00    +0.000 C 
ATOM     25  F   UNL     1       1.349   8.610  17.803  0.00  0.00    +0.000 F 
ATOM     26  F   UNL     1       3.459   8.085  17.896  0.00  0.00    +0.000 F 
ATOM     27  F   UNL     1       1.972   6.550  17.477  0.00  0.00    +0.000 F 
ENDBRANCH  23  24
ENDBRANCH  22  23
ENDBRANCH  16  17
ENDBRANCH  15  16
ENDBRANCH   6  15
TORSDOF 10
ENDMDL
MODEL 3
REMARK VINA RESULT:      -7.3      3.738      5.559
REMARK  Name = 
REMARK  11 active torsions:
REMARK  status: ('A' for Active; 'I' for Inactive)
REMARK    1  A    between atoms: C_1  and  O_2
REMARK    2  A    between atoms: O_2  and  C_3
REMARK    3  A    between atoms: C_5  and  C_6
REMARK    4  A    between atoms: C_6  and  C_7
REMARK    5  A    between atoms: C_7  and  C_8
REMARK    6  A    between atoms: C_8  and  O_10
REMARK    7  A    between atoms: C_13  and  O_14
REMARK    8  A    between atoms: O_14  and  C_15
REMARK    9  A    between atoms: C_15  and  C_16
REMARK   10  A    between atoms: C_21  and  S_22
REMARK   11  A    between atoms: S_22  and  C_23
REMARK                            x       y       z     vdW  Elec       q    Type
REMARK                         _______ _______ _______ _____ _____    ______ ____
ROOT
ATOM      1  C   UNL     1       2.804   5.227  19.659  0.00  0.00    +0.000 A 
ATOM      2  C   UNL     1       3.525   4.404  18.774  0.00  0.00    +0.000 A 
ATOM      3  C   UNL     1       4.092   4.910  17.597  0.00  0.00    +0.000 A 
ATOM      4  C   UNL     1       3.944   6.265  17.312  0.00  0.00    +0.000 A 
ATOM      5  C   UNL     1       3.264   7.095  18.196  0.00  0.00    +0.000 A 
ATOM      6  C   UNL     1       2.668   6.592  19.364  0.00  0.00    +0.000 A 
ENDROOT
BRANCH   1   8
ATOM      7  C   UNL     1       1.213   3.697  20.622  0.00  0.00    +0.000 C 
ATOM      8  O   UNL     1       2.353   4.530  20.751  0.00  0.00    +0.000 OA
ENDBRANCH   1   8
BRANCH   3   9
ATOM      9  C   UNL     1       4.941   4.061  16.692  0.00  0.00    +0.000 C 
BRANCH   9  10
ATOM     10  C   UNL     1       5.540   4.797  15.501  0.00  0.00    +0.000 C 
BRANCH  10  11
ATOM     11  C   UNL     1       7.043   4.911  15.670  0.00  0.00    +0.000 C 
ATOM     12  O   UNL     1       7.687   4.450  16.603  0.00  0.00    +0.000 OA
BRANCH  11  13
ATOM     13  O   UNL     1       7.621   5.586  14.656  0.00  0.00    +0.000 OA
ATOM     14  H   UNL     1       7.318   6.508  14.569  0.00  0.00    +0.000 HD
ENDBRANCH  11  13
ENDBRANCH  10  11
ENDBRANCH   9  10
ENDBRANCH   3   9
BRANCH   6  15
ATOM     15  O   UNL     1       1.991   7.415  20.228  0.00  0.00    +0.000 OA
BRANCH  15  16
ATOM     16  C   UNL     1       1.449   8.603  19.638  0.00  0.00    +0.000 C 
BRANCH  16  17
ATOM     17  C   UNL     1       0.656   9.345  20.679  0.00  0.00    +0.000 A 
ATOM     18  C   UNL     1       0.745   8.866  22.002  0.00  0.00    +0.000 A 
ATOM     19  C   UNL     1       0.063   9.492  23.039  0.00  0.00    +0.000 A 
ATOM     20  C   UNL     1      -0.735  10.595  22.765  0.00  0.00    +0.000 A 
ATOM     21  C   UNL     1      -0.824  11.089  21.460  0.00  0.00    +0.000 A 
ATOM     22  C   UNL     1      -0.129  10.484  20.402  0.00  0.00    +0.000 A 
BRANCH  22  23
ATOM     23  S   UNL     1      -0.125  11.387  18.851  0.00  0.00    +0.000 S 
BRANCH  23  24
ATOM     24  C   UNL     1      -1.804  11.182  18.233  0.00  0.00    +0.000 C 
ATOM     25  F   UNL     1      -1.949  11.502  16.933  0.00  0.00    +0.000 F 
ATOM     26  F   UNL     1      -2.223   9.903  18.384  0.00  0.00    +0.000 F 
ATOM     27  F   UNL     1      -2.659  11.964  18.938  0.00  0.00    +0.000 F 
ENDBRANCH  23  24
ENDBRANCH  22  23
ENDBRANCH  16  17
ENDBRANCH  15  16
ENDBRANCH   6  15
TORSDOF 10
ENDMDL
MODEL 4
REMARK VINA RESULT:      -7.2      2.170      2.935
REMARK  Name = 
REMARK  11 active torsions:
REMARK  status: ('A' for Active; 'I' for Inactive)
REMARK    1  A    between atoms: C_1  and  O_2
REMARK    2  A    between atoms: O_2  and  C_3
REMARK    3  A    between atoms: C_5  and  C_6
REMARK    4  A    between atoms: C_6  and  C_7
REMARK    5  A    between atoms: C_7  and  C_8
REMARK    6  A    between atoms: C_8  and  O_10
REMARK    7  A    between atoms: C_13  and  O_14
REMARK    8  A    between atoms: O_14  and  C_15
REMARK    9  A    between atoms: C_15  and  C_16
REMARK   10  A    between atoms: C_21  and  S_22
REMARK   11  A    between atoms: S_22  and  C_23
REMARK                            x       y       z     vdW  Elec       q    Type
REMARK                         _______ _______ _______ _____ _____    ______ ____
ROOT
ATOM      1  C   UNL     1       6.867   5.426  16.179  0.00  0.00    +0.000 A 
ATOM      2  C   UNL     1       7.111   5.154  14.821  0.00  0.00    +0.000 A 
ATOM      3  C   UNL     1       6.367   4.198  14.117  0.00  0.00    +0.000 A 
ATOM      4  C   UNL     1       5.355   3.514  14.785  0.00  0.00    +0.000 A 
ATOM      5  C   UNL     1       5.081   3.799  16.118  0.00  0.00    +0.000 A 
ATOM      6  C   UNL     1       5.840   4.735  16.840  0.00  0.00    +0.000 A 
ENDROOT
BRANCH   1   8
ATOM      7  C   UNL     1       7.135   7.541  17.300  0.00  0.00    +0.000 C 
ATOM      8  O   UNL     1       7.697   6.405  16.662  0.00  0.00    +0.000 OA
ENDBRANCH   1   8
BRANCH   3   9
ATOM      9  C   UNL     1       6.558   3.966  12.643  0.00  0.00    +0.000 C 
BRANCH   9  10
ATOM     10  C   UNL     1       5.660   2.893  12.044  0.00  0.00    +0.000 C 
BRANCH  10  11
ATOM     11  C   UNL     1       6.507   1.793  11.434  0.00  0.00    +0.000 C 
ATOM     12  O   UNL     1       7.627   1.943  10.961  0.00  0.00    +0.000 OA
BRANCH  11  13
ATOM     13  O   UNL     1       5.893   0.594  11.471  0.00  0.00    +0.000 OA
ATOM     14  H   UNL     1       5.079   0.581  12.007  0.00  0.00    +0.000 HD
ENDBRANCH  11  13
ENDBRANCH  10  11
ENDBRANCH   9  10
ENDBRANCH   3   9
BRANCH   6  15
ATOM     15  O   UNL     1       5.569   5.005  18.157  0.00  0.00    +0.000 OA
BRANCH  15  16
ATOM     16  C   UNL     1       4.603   4.141  18.769  0.00  0.00    +0.000 C 
BRANCH  16  17
ATOM     17  C   UNL     1       3.514   4.983  19.377  0.00  0.00    +0.000 A 
ATOM     18  C   UNL     1       3.596   6.374  19.163  0.00  0.00    +0.000 A 
ATOM     19  C   UNL     1       2.630   7.236  19.669  0.00  0.00    +0.000 A 
ATOM     20  C   UNL     1       1.578   6.722  20.416  0.00  0.00    +0.000 A 
ATOM     21  C   UNL     1       1.476   5.344  20.626  0.00  0.00    +0.000 A 
ATOM     22  C   UNL     1       2.430   4.454  20.108  0.00  0.00    +0.000 A 
BRANCH  22  23
ATOM     23  S   UNL     1       2.020   2.711  20.229  0.00  0.00    +0.000 S 
BRANCH  23  24
ATOM     24  C   UNL     1       1.380   2.307  18.596  0.00  0.00    +0.000 C 
ATOM     25  F   UNL     1       0.324   1.473  18.615  0.00  0.00    +0.000 F 
ATOM     26  F   UNL     1       0.999   3.427  17.934  0.00  0.00    +0.000 F 
ATOM     27  F   UNL     1       2.346   1.717  17.849  0.00  0.00    +0.000 F 
ENDBRANCH  23  24
ENDBRANCH  22  23
ENDBRANCH  16  17
ENDBRANCH  15  16
ENDBRANCH   6  15
TORSDOF 10
ENDMDL
MODEL 5
REMARK VINA RESULT:      -7.2      0.800      1.960
REMARK  Name = 
REMARK  11 active torsions:
REMARK  status: ('A' for Active; 'I' for Inactive)
REMARK    1  A    between atoms: C_1  and  O_2
REMARK    2  A    between atoms: O_2  and  C_3
REMARK    3  A    between atoms: C_5  and  C_6
REMARK    4  A    between atoms: C_6  and  C_7
REMARK    5  A    between atoms: C_7  and  C_8
REMARK    6  A    between atoms: C_8  and  O_10
REMARK    7  A    between atoms: C_13  and  O_14
REMARK    8  A    between atoms: O_14  and  C_15
REMARK    9  A    between atoms: C_15  and  C_16
REMARK   10  A    between atoms: C_21  and  S_22
REMARK   11  A    between atoms: S_22  and  C_23
REMARK                            x       y       z     vdW  Elec       q    Type
REMARK                         _______ _______ _______ _____ _____    ______ ____
ROOT
ATOM      1  C   UNL     1       4.770   4.005  16.679  0.00  0.00    +0.000 A 
ATOM      2  C   UNL     1       4.987   4.190  15.302  0.00  0.00    +0.000 A 
ATOM      3  C   UNL     1       6.225   4.617  14.803  0.00  0.00    +0.000 A 
ATOM      4  C   UNL     1       7.263   4.849  15.701  0.00  0.00    +0.000 A 
ATOM      5  C   UNL     1       7.071   4.637  17.062  0.00  0.00    +0.000 A 
ATOM      6  C   UNL     1       5.826   4.236  17.574  0.00  0.00    +0.000 A 
ENDROOT
BRANCH   1   8
ATOM      7  C   UNL     1       3.285   2.213  17.300  0.00  0.00    +0.000 C 
ATOM      8  O   UNL     1       3.496   3.569  16.942  0.00  0.00    +0.000 OA
ENDBRANCH   1   8
BRANCH   3   9
ATOM      9  C   UNL     1       6.495   4.729  13.328  0.00  0.00    +0.000 C 
BRANCH   9  10
ATOM     10  C   UNL     1       6.827   3.413  12.638  0.00  0.00    +0.000 C 
BRANCH  10  11
ATOM     11  C   UNL     1       5.590   2.860  11.959  0.00  0.00    +0.000 C 
ATOM     12  O   UNL     1       4.540   3.470  11.797  0.00  0.00    +0.000 OA
BRANCH  11  13
ATOM     13  O   UNL     1       5.764   1.594  11.531  0.00  0.00    +0.000 OA
ATOM     14  H   UNL     1       5.076   0.974  11.835  0.00  0.00    +0.000 HD
ENDBRANCH  11  13
ENDBRANCH  10  11
ENDBRANCH   9  10
ENDBRANCH   3   9
BRANCH   6  15
ATOM     15  O   UNL     1       5.642   4.036  18.919  0.00  0.00    +0.000 OA
BRANCH  15  16
ATOM     16  C   UNL     1       4.942   5.085  19.600  0.00  0.00    +0.000 C 
BRANCH  16  17
ATOM     17  C   UNL     1       3.622   4.552  20.087  0.00  0.00    +0.000 A 
ATOM     18  C   UNL     1       3.614   3.230  20.573  0.00  0.00    +0.000 A 
ATOM     19  C   UNL     1       2.448   2.651  21.061  0.00  0.00    +0.000 A 
ATOM     20  C   UNL     1       1.266   3.380  21.049  0.00  0.00    +0.000 A 
ATOM     21  C   UNL     1       1.260   4.697  20.581  0.00  0.00    +0.000 A 
ATOM     22  C   UNL     1       2.430   5.307  20.102  0.00  0.00    +0.000 A 
BRANCH  22  23
ATOM     23  S   UNL     1       2.322   7.071  19.794  0.00  0.00    +0.000 S 
BRANCH  23  24
ATOM     24  C   UNL     1       2.386   7.196  17.999  0.00  0.00    +0.000 C 
ATOM     25  F   UNL     1       3.631   7.337  17.507  0.00  0.00    +0.000 F 
ATOM     26  F   UNL     1       1.843   6.100  17.417  0.00  0.00    +0.000 F 
ATOM     27  F   UNL     1       1.663   8.265  17.579  0.00  0.00    +0.000 F 
ENDBRANCH  23  24
ENDBRANCH  22  23
ENDBRANCH  16  17
ENDBRANCH  15  16
ENDBRANCH   6  15
TORSDOF 10
ENDMDL
MODEL 6
REMARK VINA RESULT:      -7.1      3.918      7.753
REMARK  Name = 
REMARK  11 active torsions:
REMARK  status: ('A' for Active; 'I' for Inactive)
REMARK    1  A    between atoms: C_1  and  O_2
REMARK    2  A    between atoms: O_2  and  C_3
REMARK    3  A    between atoms: C_5  and  C_6
REMARK    4  A    between atoms: C_6  and  C_7
REMARK    5  A    between atoms: C_7  and  C_8
REMARK    6  A    between atoms: C_8  and  O_10
REMARK    7  A    between atoms: C_13  and  O_14
REMARK    8  A    between atoms: O_14  and  C_15
REMARK    9  A    between atoms: C_15  and  C_16
REMARK   10  A    between atoms: C_21  and  S_22
REMARK   11  A    between atoms: S_22  and  C_23
REMARK                            x       y       z     vdW  Elec       q    Type
REMARK                         _______ _______ _______ _____ _____    ______ ____
ROOT
ATOM      1  C   UNL     1       2.181   4.859  19.662  0.00  0.00    +0.000 A 
ATOM      2  C   UNL     1       1.580   5.696  20.619  0.00  0.00    +0.000 A 
ATOM      3  C   UNL     1       1.617   7.092  20.504  0.00  0.00    +0.000 A 
ATOM      4  C   UNL     1       2.256   7.655  19.404  0.00  0.00    +0.000 A 
ATOM      5  C   UNL     1       2.824   6.839  18.432  0.00  0.00    +0.000 A 
ATOM      6  C   UNL     1       2.817   5.439  18.553  0.00  0.00    +0.000 A 
ENDROOT
BRANCH   1   8
ATOM      7  C   UNL     1       2.711   2.973  21.061  0.00  0.00    +0.000 C 
ATOM      8  O   UNL     1       2.011   3.533  19.962  0.00  0.00    +0.000 OA
ENDBRANCH   1   8
BRANCH   3   9
ATOM      9  C   UNL     1       0.898   7.991  21.473  0.00  0.00    +0.000 C 
BRANCH   9  10
ATOM     10  C   UNL     1       0.591   9.385  20.943  0.00  0.00    +0.000 C 
BRANCH  10  11
ATOM     11  C   UNL     1       0.421  10.349  22.100  0.00  0.00    +0.000 C 
ATOM     12  O   UNL     1       0.079  11.521  22.000  0.00  0.00    +0.000 OA
BRANCH  11  13
ATOM     13  O   UNL     1       0.683   9.773  23.290  0.00  0.00    +0.000 OA
ATOM     14  H   UNL     1      -0.110   9.469  23.767  0.00  0.00    +0.000 HD
ENDBRANCH  11  13
ENDBRANCH  10  11
ENDBRANCH   9  10
ENDBRANCH   3   9
BRANCH   6  15
ATOM     15  O   UNL     1       3.387   4.640  17.594  0.00  0.00    +0.000 OA
BRANCH  15  16
ATOM     16  C   UNL     1       4.589   3.970  17.996  0.00  0.00    +0.000 C 
BRANCH  16  17
ATOM     17  C   UNL     1       5.712   4.970  18.039  0.00  0.00    +0.000 A 
ATOM     18  C   UNL     1       6.484   5.003  19.218  0.00  0.00    +0.000 A 
ATOM     19  C   UNL     1       7.554   5.880  19.350  0.00  0.00    +0.000 A 
ATOM     20  C   UNL     1       7.855   6.754  18.312  0.00  0.00    +0.000 A 
ATOM     21  C   UNL     1       7.106   6.725  17.133  0.00  0.00    +0.000 A 
ATOM     22  C   UNL     1       6.034   5.834  16.971  0.00  0.00    +0.000 A 
BRANCH  22  23
ATOM     23  S   UNL     1       5.348   5.727  15.316  0.00  0.00    +0.000 S 
BRANCH  23  24
ATOM     24  C   UNL     1       6.376   4.492  14.506  0.00  0.00    +0.000 C 
ATOM     25  F   UNL     1       5.884   4.059  13.330  0.00  0.00    +0.000 F 
ATOM     26  F   UNL     1       7.620   4.975  14.269  0.00  0.00    +0.000 F 
ATOM     27  F   UNL     1       6.521   3.407  15.306  0.00  0.00    +0.000 F 
ENDBRANCH  23  24
ENDBRANCH  22  23
ENDBRANCH  16  17
ENDBRANCH  15  16
ENDBRANCH   6  15
TORSDOF 10
ENDMDL
MODEL 7
REMARK VINA RESULT:      -7.1      3.877      7.731
REMARK  Name = 
REMARK  11 active torsions:
REMARK  status: ('A' for Active; 'I' for Inactive)
REMARK    1  A    between atoms: C_1  and  O_2
REMARK    2  A    between atoms: O_2  and  C_3
REMARK    3  A    between atoms: C_5  and  C_6
REMARK    4  A    between atoms: C_6  and  C_7
REMARK    5  A    between atoms: C_7  and  C_8
REMARK    6  A    between atoms: C_8  and  O_10
REMARK    7  A    between atoms: C_13  and  O_14
REMARK    8  A    between atoms: O_14  and  C_15
REMARK    9  A    between atoms: C_15  and  C_16
REMARK   10  A    between atoms: C_21  and  S_22
REMARK   11  A    between atoms: S_22  and  C_23
REMARK                            x       y       z     vdW  Elec       q    Type
REMARK                         _______ _______ _______ _____ _____    ______ ____
ROOT
ATOM      1  C   UNL     1       1.964   5.157  19.787  0.00  0.00    +0.000 A 
ATOM      2  C   UNL     1       1.543   6.283  20.516  0.00  0.00    +0.000 A 
ATOM      3  C   UNL     1       1.776   7.587  20.057  0.00  0.00    +0.000 A 
ATOM      4  C   UNL     1       2.429   7.759  18.840  0.00  0.00    +0.000 A 
ATOM      5  C   UNL     1       2.819   6.654  18.092  0.00  0.00    +0.000 A 
ATOM      6  C   UNL     1       2.615   5.344  18.558  0.00  0.00    +0.000 A 
ENDROOT
BRANCH   1   8
ATOM      7  C   UNL     1       2.227   3.652  21.648  0.00  0.00    +0.000 C 
ATOM      8  O   UNL     1       1.619   3.985  20.411  0.00  0.00    +0.000 OA
ENDBRANCH   1   8
BRANCH   3   9
ATOM      9  C   UNL     1       1.250   8.794  20.783  0.00  0.00    +0.000 C 
BRANCH   9  10
ATOM     10  C   UNL     1       0.017   8.538  21.639  0.00  0.00    +0.000 C 
BRANCH  10  11
ATOM     11  C   UNL     1       0.089   9.367  22.906  0.00  0.00    +0.000 C 
ATOM     12  O   UNL     1       1.119   9.672  23.495  0.00  0.00    +0.000 OA
BRANCH  11  13
ATOM     13  O   UNL     1      -1.129   9.755  23.334  0.00  0.00    +0.000 OA
ATOM     14  H   UNL     1      -1.829   9.092  23.191  0.00  0.00    +0.000 HD
ENDBRANCH  11  13
ENDBRANCH  10  11
ENDBRANCH   9  10
ENDBRANCH   3   9
BRANCH   6  15
ATOM     15  O   UNL     1       3.010   4.258  17.819  0.00  0.00    +0.000 OA
BRANCH  15  16
ATOM     16  C   UNL     1       4.090   3.500  18.379  0.00  0.00    +0.000 C 
BRANCH  16  17
ATOM     17  C   UNL     1       5.357   4.303  18.266  0.00  0.00    +0.000 A 
ATOM     18  C   UNL     1       5.799   4.953  19.436  0.00  0.00    +0.000 A 
ATOM     19  C   UNL     1       6.968   5.706  19.440  0.00  0.00    +0.000 A 
ATOM     20  C   UNL     1       7.701   5.839  18.267  0.00  0.00    +0.000 A 
ATOM     21  C   UNL     1       7.281   5.190  17.102  0.00  0.00    +0.000 A 
ATOM     22  C   UNL     1       6.115   4.409  17.081  0.00  0.00    +0.000 A 
BRANCH  22  23
ATOM     23  S   UNL     1       5.857   3.429  15.600  0.00  0.00    +0.000 S 
BRANCH  23  24
ATOM     24  C   UNL     1       5.728   4.657  14.291  0.00  0.00    +0.000 C 
ATOM     25  F   UNL     1       6.912   5.009  13.755  0.00  0.00    +0.000 F 
ATOM     26  F   UNL     1       4.945   4.209  13.281  0.00  0.00    +0.000 F 
ATOM     27  F   UNL     1       5.150   5.788  14.767  0.00  0.00    +0.000 F 
ENDBRANCH  23  24
ENDBRANCH  22  23
ENDBRANCH  16  17
ENDBRANCH  15  16
ENDBRANCH   6  15
TORSDOF 10
ENDMDL
MODEL 8
REMARK VINA RESULT:      -7.1      0.966      1.987
REMARK  Name = 
REMARK  11 active torsions:
REMARK  status: ('A' for Active; 'I' for Inactive)
REMARK    1  A    between atoms: C_1  and  O_2
REMARK    2  A    between atoms: O_2  and  C_3
REMARK    3  A    between atoms: C_5  and  C_6
REMARK    4  A    between atoms: C_6  and  C_7
REMARK    5  A    between atoms: C_7  and  C_8
REMARK    6  A    between atoms: C_8  and  O_10
REMARK    7  A    between atoms: C_13  and  O_14
REMARK    8  A    between atoms: O_14  and  C_15
REMARK    9  A    between atoms: C_15  and  C_16
REMARK   10  A    between atoms: C_21  and  S_22
REMARK   11  A    between atoms: S_22  and  C_23
REMARK                            x       y       z     vdW  Elec       q    Type
REMARK                         _______ _______ _______ _____ _____    ______ ____
ROOT
ATOM      1  C   UNL     1       4.796   3.966  16.681  0.00  0.00    +0.000 A 
ATOM      2  C   UNL     1       5.042   4.015  15.297  0.00  0.00    +0.000 A 
ATOM      3  C   UNL     1       6.299   4.363  14.785  0.00  0.00    +0.000 A 
ATOM      4  C   UNL     1       7.327   4.651  15.678  0.00  0.00    +0.000 A 
ATOM      5  C   UNL     1       7.107   4.572  17.048  0.00  0.00    +0.000 A 
ATOM      6  C   UNL     1       5.842   4.253  17.571  0.00  0.00    +0.000 A 
ENDROOT
BRANCH   1   8
ATOM      7  C   UNL     1       3.230   2.233  17.269  0.00  0.00    +0.000 C 
ATOM      8  O   UNL     1       3.507   3.589  16.958  0.00  0.00    +0.000 OA
ENDBRANCH   1   8
BRANCH   3   9
ATOM      9  C   UNL     1       6.598   4.329  13.311  0.00  0.00    +0.000 C 
BRANCH   9  10
ATOM     10  C   UNL     1       5.660   3.456  12.489  0.00  0.00    +0.000 C 
BRANCH  10  11
ATOM     11  C   UNL     1       6.459   2.421  11.722  0.00  0.00    +0.000 C 
ATOM     12  O   UNL     1       7.599   2.577  11.303  0.00  0.00    +0.000 OA
BRANCH  11  13
ATOM     13  O   UNL     1       5.775   1.273  11.547  0.00  0.00    +0.000 OA
ATOM     14  H   UNL     1       6.299   0.556  11.145  0.00  0.00    +0.000 HD
ENDBRANCH  11  13
ENDBRANCH  10  11
ENDBRANCH   9  10
ENDBRANCH   3   9
BRANCH   6  15
ATOM     15  O   UNL     1       5.629   4.184  18.924  0.00  0.00    +0.000 OA
BRANCH  15  16
ATOM     16  C   UNL     1       4.851   5.254  19.473  0.00  0.00    +0.000 C 
BRANCH  16  17
ATOM     17  C   UNL     1       3.562   4.693  20.010  0.00  0.00    +0.000 A 
ATOM     18  C   UNL     1       3.594   3.357  20.459  0.00  0.00    +0.000 A 
ATOM     19  C   UNL     1       2.460   2.751  20.988  0.00  0.00    +0.000 A 
ATOM     20  C   UNL     1       1.270   3.465  21.055  0.00  0.00    +0.000 A 
ATOM     21  C   UNL     1       1.227   4.795  20.625  0.00  0.00    +0.000 A 
ATOM     22  C   UNL     1       2.364   5.432  20.106  0.00  0.00    +0.000 A 
BRANCH  22  23
ATOM     23  S   UNL     1       2.222   7.203  19.852  0.00  0.00    +0.000 S 
BRANCH  23  24
ATOM     24  C   UNL     1       2.323   7.388  18.065  0.00  0.00    +0.000 C 
ATOM     25  F   UNL     1       2.012   6.269  17.382  0.00  0.00    +0.000 F 
ATOM     26  F   UNL     1       1.495   8.369  17.631  0.00  0.00    +0.000 F 
ATOM     27  F   UNL     1       3.580   7.745  17.702  0.00  0.00    +0.000 F 
ENDBRANCH  23  24
ENDBRANCH  22  23
ENDBRANCH  16  17
ENDBRANCH  15  16
ENDBRANCH   6  15
TORSDOF 10
ENDMDL
MODEL 9
REMARK VINA RESULT:      -7.0      3.854      7.800
REMARK  Name = 
REMARK  11 active torsions:
REMARK  status: ('A' for Active; 'I' for Inactive)
REMARK    1  A    between atoms: C_1  and  O_2
REMARK    2  A    between atoms: O_2  and  C_3
REMARK    3  A    between atoms: C_5  and  C_6
REMARK    4  A    between atoms: C_6  and  C_7
REMARK    5  A    between atoms: C_7  and  C_8
REMARK    6  A    between atoms: C_8  and  O_10
REMARK    7  A    between atoms: C_13  and  O_14
REMARK    8  A    between atoms: O_14  and  C_15
REMARK    9  A    between atoms: C_15  and  C_16
REMARK   10  A    between atoms: C_21  and  S_22
REMARK   11  A    between atoms: S_22  and  C_23
REMARK                            x       y       z     vdW  Elec       q    Type
REMARK                         _______ _______ _______ _____ _____    ______ ____
ROOT
ATOM      1  C   UNL     1       1.889   4.930  19.749  0.00  0.00    +0.000 A 
ATOM      2  C   UNL     1       1.627   6.067  20.534  0.00  0.00    +0.000 A 
ATOM      3  C   UNL     1       1.878   7.362  20.062  0.00  0.00    +0.000 A 
ATOM      4  C   UNL     1       2.387   7.517  18.776  0.00  0.00    +0.000 A 
ATOM      5  C   UNL     1       2.618   6.403  17.976  0.00  0.00    +0.000 A 
ATOM      6  C   UNL     1       2.397   5.100  18.451  0.00  0.00    +0.000 A 
ENDROOT
BRANCH   1   8
ATOM      7  C   UNL     1       2.243   3.418  21.589  0.00  0.00    +0.000 C 
ATOM      8  O   UNL     1       1.556   3.771  20.399  0.00  0.00    +0.000 OA
ENDBRANCH   1   8
BRANCH   3   9
ATOM      9  C   UNL     1       1.515   8.586  20.858  0.00  0.00    +0.000 C 
BRANCH   9  10
ATOM     10  C   UNL     1       0.281   8.434  21.736  0.00  0.00    +0.000 C 
BRANCH  10  11
ATOM     11  C   UNL     1      -0.008   9.741  22.448  0.00  0.00    +0.000 C 
ATOM     12  O   UNL     1      -0.921   9.927  23.242  0.00  0.00    +0.000 OA
BRANCH  11  13
ATOM     13  O   UNL     1       0.870  10.709  22.117  0.00  0.00    +0.000 OA
ATOM     14  H   UNL     1       0.915  11.441  22.759  0.00  0.00    +0.000 HD
ENDBRANCH  11  13
ENDBRANCH  10  11
ENDBRANCH   9  10
ENDBRANCH   3   9
BRANCH   6  15
ATOM     15  O   UNL     1       2.634   4.005  17.659  0.00  0.00    +0.000 OA
BRANCH  15  16
ATOM     16  C   UNL     1       3.907   3.376  17.856  0.00  0.00    +0.000 C 
BRANCH  16  17
ATOM     17  C   UNL     1       4.913   4.019  16.941  0.00  0.00    +0.000 A 
ATOM     18  C   UNL     1       4.766   3.767  15.562  0.00  0.00    +0.000 A 
ATOM     19  C   UNL     1       5.635   4.327  14.633  0.00  0.00    +0.000 A 
ATOM     20  C   UNL     1       6.679   5.132  15.071  0.00  0.00    +0.000 A 
ATOM     21  C   UNL     1       6.831   5.401  16.435  0.00  0.00    +0.000 A 
ATOM     22  C   UNL     1       5.954   4.861  17.388  0.00  0.00    +0.000 A 
BRANCH  22  23
ATOM     23  S   UNL     1       6.112   5.510  19.053  0.00  0.00    +0.000 S 
BRANCH  23  24
ATOM     24  C   UNL     1       7.892   5.630  19.297  0.00  0.00    +0.000 C 
ATOM     25  F   UNL     1       8.421   6.797  18.883  0.00  0.00    +0.000 F 
ATOM     26  F   UNL     1       8.213   5.483  20.605  0.00  0.00    +0.000 F 
ATOM     27  F   UNL     1       8.524   4.639  18.622  0.00  0.00    +0.000 F 
ENDBRANCH  23  24
ENDBRANCH  22  23
ENDBRANCH  16  17
ENDBRANCH  15  16
ENDBRANCH   6  15
TORSDOF 10
ENDMDL
