MODEL 1
REMARK VINA RESULT:      -7.8      0.000      0.000
REMARK  Name = 
REMARK  7 active torsions:
REMARK  status: ('A' for Active; 'I' for Inactive)
REMARK    1  A    between atoms: C_1  and  O_2
REMARK    2  A    between atoms: O_2  and  C_3
REMARK    3  A    between atoms: C_6  and  C_7
REMARK    4  A    between atoms: C_7  and  N_8
REMARK    5  A    between atoms: C_12  and  C_13
REMARK    6  A    between atoms: C_13  and  C_14
REMARK    7  A    between atoms: C_13  and  N_20
REMARK                            x       y       z     vdW  Elec       q    Type
REMARK                         _______ _______ _______ _____ _____    ______ ____
ROOT
ATOM      1  N   UNL     1       6.417   5.696  17.945  0.00  0.00    +0.000 N 
ATOM      2  N   UNL     1       7.729   5.590  18.253  0.00  0.00    +0.000 NA
ATOM      3  N   UNL     1       7.783   5.348  19.545  0.00  0.00    +0.000 NA
ATOM      4  N   UNL     1       6.531   5.257  20.070  0.00  0.00    +0.000 NA
ATOM      5  C   UNL     1       5.661   5.386  19.074  0.00  0.00    +0.000 A 
ENDROOT
BRANCH   1   6
ATOM      6  C   UNL     1       6.130   6.241  16.625  0.00  0.00    +0.000 C 
BRANCH   6  10
ATOM      7  C   UNL     1       6.129   3.675  13.163  0.00  0.00    +0.000 A 
ATOM      8  C   UNL     1       5.221   3.447  14.192  0.00  0.00    +0.000 A 
ATOM      9  C   UNL     1       5.223   4.235  15.341  0.00  0.00    +0.000 A 
ATOM     10  C   UNL     1       6.141   5.283  15.469  0.00  0.00    +0.000 A 
ATOM     11  C   UNL     1       7.129   5.450  14.474  0.00  0.00    +0.000 A 
ATOM     12  C   UNL     1       7.121   4.644  13.329  0.00  0.00    +0.000 A 
BRANCH   7  14
ATOM     13  C   UNL     1       4.858   2.895  11.360  0.00  0.00    +0.000 C 
ATOM     14  O   UNL     1       6.139   2.994  11.982  0.00  0.00    +0.000 OA
ENDBRANCH   7  14
ENDBRANCH   6  10
ENDBRANCH   1   6
BRANCH   5  15
ATOM     15  C   UNL     1       4.125   5.085  19.225  0.00  0.00    +0.000 C 
BRANCH  15  16
ATOM     16  C   UNL     1       3.323   6.420  18.993  0.00  0.00    +0.000 A 
ATOM     17  C   UNL     1       3.324   7.187  17.823  0.00  0.00    +0.000 A 
ATOM     18  C   UNL     1       2.594   8.376  17.737  0.00  0.00    +0.000 A 
ATOM     19  N   UNL     1       1.779   8.829  18.701  0.00  0.00    +0.000 NA
ATOM     20  C   UNL     1       1.692   8.061  19.796  0.00  0.00    +0.000 A 
ATOM     21  C   UNL     1       2.410   6.885  19.973  0.00  0.00    +0.000 A 
ENDBRANCH  15  16
BRANCH  15  22
ATOM     22  N   UNL     1       3.817   3.865  18.392  0.00  0.00    +0.000 NA
ATOM     23  C   UNL     1       2.550   3.570  17.690  0.00  0.00    +0.000 C 
ATOM     24  C   UNL     1       1.403   2.792  18.425  0.00  0.00    +0.000 C 
ATOM     25  O   UNL     1       1.798   1.935  19.507  0.00  0.00    +0.000 OA
ATOM     26  C   UNL     1       2.929   2.448  20.201  0.00  0.00    +0.000 C 
ATOM     27  C   UNL     1       4.054   2.621  19.171  0.00  0.00    +0.000 C 
ENDBRANCH  15  22
ENDBRANCH   5  15
TORSDOF 6
ENDMDL
MODEL 2
REMARK VINA RESULT:      -7.6      0.364      1.328
REMARK  Name = 
REMARK  7 active torsions:
REMARK  status: ('A' for Active; 'I' for Inactive)
REMARK    1  A    between atoms: C_1  and  O_2
REMARK    2  A    between atoms: O_2  and  C_3
REMARK    3  A    between atoms: C_6  and  C_7
REMARK    4  A    between atoms: C_7  and  N_8
REMARK    5  A    between atoms: C_12  and  C_13
REMARK    6  A    between atoms: C_13  and  C_14
REMARK    7  A    between atoms: C_13  and  N_20
REMARK                            x       y       z     vdW  Elec       q    Type
REMARK                         _______ _______ _______ _____ _____    ______ ____
ROOT
ATOM      1  N   UNL     1       6.197   5.739  17.672  0.00  0.00    +0.000 N 
ATOM      2  N   UNL     1       7.532   5.672  17.864  0.00  0.00    +0.000 NA
ATOM      3  N   UNL     1       7.706   5.400  19.139  0.00  0.00    +0.000 NA
ATOM      4  N   UNL     1       6.508   5.252  19.766  0.00  0.00    +0.000 NA
ATOM      5  C   UNL     1       5.551   5.375  18.852  0.00  0.00    +0.000 A 
ENDROOT
BRANCH   1   6
ATOM      6  C   UNL     1       5.779   6.306  16.397  0.00  0.00    +0.000 C 
BRANCH   6  10
ATOM      7  C   UNL     1       6.471   3.752  12.996  0.00  0.00    +0.000 A 
ATOM      8  C   UNL     1       7.397   4.738  13.318  0.00  0.00    +0.000 A 
ATOM      9  C   UNL     1       7.181   5.605  14.388  0.00  0.00    +0.000 A 
ATOM     10  C   UNL     1       6.025   5.483  15.165  0.00  0.00    +0.000 A 
ATOM     11  C   UNL     1       5.036   4.553  14.777  0.00  0.00    +0.000 A 
ATOM     12  C   UNL     1       5.262   3.695  13.692  0.00  0.00    +0.000 A 
BRANCH   7  14
ATOM     13  C   UNL     1       5.431   2.262  11.522  0.00  0.00    +0.000 C 
ATOM     14  O   UNL     1       6.648   2.825  12.012  0.00  0.00    +0.000 OA
ENDBRANCH   7  14
ENDBRANCH   6  10
ENDBRANCH   1   6
BRANCH   5  15
ATOM     15  C   UNL     1       4.045   5.016  19.125  0.00  0.00    +0.000 C 
BRANCH  15  16
ATOM     16  C   UNL     1       3.192   6.339  19.071  0.00  0.00    +0.000 A 
ATOM     17  C   UNL     1       2.398   6.849  20.104  0.00  0.00    +0.000 A 
ATOM     18  C   UNL     1       1.658   8.022  19.936  0.00  0.00    +0.000 A 
ATOM     19  N   UNL     1       1.711   8.793  18.840  0.00  0.00    +0.000 NA
ATOM     20  C   UNL     1       2.536   8.372  17.873  0.00  0.00    +0.000 A 
ATOM     21  C   UNL     1       3.280   7.200  17.948  0.00  0.00    +0.000 A 
ENDBRANCH  15  16
BRANCH  15  22
ATOM     22  N   UNL     1       3.686   3.851  18.235  0.00  0.00    +0.000 NA
ATOM     23  C   UNL     1       2.397   3.628  17.547  0.00  0.00    +0.000 C 
ATOM     24  C   UNL     1       1.245   2.842  18.264  0.00  0.00    +0.000 C 
ATOM     25  O   UNL     1       1.638   1.918  19.290  0.00  0.00    +0.000 OA
ATOM     26  C   UNL     1       2.797   2.363  19.986  0.00  0.00    +0.000 C 
ATOM     27  C   UNL     1       3.905   2.562  18.941  0.00  0.00    +0.000 C 
ENDBRANCH  15  22
ENDBRANCH   5  15
TORSDOF 6
ENDMDL
MODEL 3
REMARK VINA RESULT:      -7.2      0.967      1.031
REMARK  Name = 
REMARK  7 active torsions:
REMARK  status: ('A' for Active; 'I' for Inactive)
REMARK    1  A    between atoms: C_1  and  O_2
REMARK    2  A    between atoms: O_2  and  C_3
REMARK    3  A    between atoms: C_6  and  C_7
REMARK    4  A    between atoms: C_7  and  N_8
REMARK    5  A    between atoms: C_12  and  C_13
REMARK    6  A    between atoms: C_13  and  C_14
REMARK    7  A    between atoms: C_13  and  N_20
REMARK                            x       y       z     vdW  Elec       q    Type
REMARK                         _______ _______ _______ _____ _____    ______ ____
ROOT
ATOM      1  N   UNL     1       5.737   5.197  17.632  0.00  0.00    +0.000 N 
ATOM      2  N   UNL     1       7.073   4.998  17.583  0.00  0.00    +0.000 NA
ATOM      3  N   UNL     1       7.486   4.979  18.832  0.00  0.00    +0.000 NA
ATOM      4  N   UNL     1       6.438   5.123  19.687  0.00  0.00    +0.000 NA
ATOM      5  C   UNL     1       5.325   5.176  18.963  0.00  0.00    +0.000 A 
ENDROOT
BRANCH   1   6
ATOM      6  C   UNL     1       5.111   5.534  16.360  0.00  0.00    +0.000 C 
BRANCH   6  10
ATOM      7  C   UNL     1       6.804   3.980  12.715  0.00  0.00    +0.000 A 
ATOM      8  C   UNL     1       5.562   3.528  13.147  0.00  0.00    +0.000 A 
ATOM      9  C   UNL     1       5.006   3.983  14.341  0.00  0.00    +0.000 A 
ATOM     10  C   UNL     1       5.695   4.917  15.122  0.00  0.00    +0.000 A 
ATOM     11  C   UNL     1       7.000   5.297  14.740  0.00  0.00    +0.000 A 
ATOM     12  C   UNL     1       7.550   4.825  13.541  0.00  0.00    +0.000 A 
BRANCH   7  14
ATOM     13  C   UNL     1       7.272   2.248  11.213  0.00  0.00    +0.000 C 
ATOM     14  O   UNL     1       7.376   3.636  11.526  0.00  0.00    +0.000 OA
ENDBRANCH   7  14
ENDBRANCH   6  10
ENDBRANCH   1   6
BRANCH   5  15
ATOM     15  C   UNL     1       3.884   5.081  19.586  0.00  0.00    +0.000 C 
BRANCH  15  16
ATOM     16  C   UNL     1       3.115   6.422  19.287  0.00  0.00    +0.000 A 
ATOM     17  C   UNL     1       3.103   7.109  18.068  0.00  0.00    +0.000 A 
ATOM     18  C   UNL     1       2.407   8.312  17.923  0.00  0.00    +0.000 A 
ATOM     19  N   UNL     1       1.636   8.854  18.877  0.00  0.00    +0.000 NA
ATOM     20  C   UNL     1       1.560   8.165  20.024  0.00  0.00    +0.000 A 
ATOM     21  C   UNL     1       2.248   6.981  20.259  0.00  0.00    +0.000 A 
ENDBRANCH  15  16
BRANCH  15  22
ATOM     22  N   UNL     1       3.291   3.760  19.160  0.00  0.00    +0.000 NA
ATOM     23  C   UNL     1       1.896   3.513  18.735  0.00  0.00    +0.000 C 
ATOM     24  C   UNL     1       0.801   3.141  19.795  0.00  0.00    +0.000 C 
ATOM     25  O   UNL     1       1.263   2.526  21.008  0.00  0.00    +0.000 OA
ATOM     26  C   UNL     1       2.550   3.002  21.385  0.00  0.00    +0.000 C 
ATOM     27  C   UNL     1       3.498   2.727  20.209  0.00  0.00    +0.000 C 
ENDBRANCH  15  22
ENDBRANCH   5  15
TORSDOF 6
ENDMDL
MODEL 4
REMARK VINA RESULT:      -7.1      1.155      1.740
REMARK  Name = 
REMARK  7 active torsions:
REMARK  status: ('A' for Active; 'I' for Inactive)
REMARK    1  A    between atoms: C_1  and  O_2
REMARK    2  A    between atoms: O_2  and  C_3
REMARK    3  A    between atoms: C_6  and  C_7
REMARK    4  A    between atoms: C_7  and  N_8
REMARK    5  A    between atoms: C_12  and  C_13
REMARK    6  A    between atoms: C_13  and  C_14
REMARK    7  A    between atoms: C_13  and  N_20
REMARK                            x       y       z     vdW  Elec       q    Type
REMARK                         _______ _______ _______ _____ _____    ______ ____
ROOT
ATOM      1  N   UNL     1       5.831   4.234  17.977  0.00  0.00    +0.000 N 
ATOM      2  N   UNL     1       7.182   4.254  17.990  0.00  0.00    +0.000 NA
ATOM      3  N   UNL     1       7.527   4.995  19.021  0.00  0.00    +0.000 NA
ATOM      4  N   UNL     1       6.426   5.422  19.697  0.00  0.00    +0.000 NA
ATOM      5  C   UNL     1       5.358   4.889  19.113  0.00  0.00    +0.000 A 
ENDROOT
BRANCH   1   6
ATOM      6  C   UNL     1       5.228   3.707  16.761  0.00  0.00    +0.000 C 
BRANCH   6  10
ATOM      7  C   UNL     1       7.064   4.685  12.987  0.00  0.00    +0.000 A 
ATOM      8  C   UNL     1       7.397   5.410  14.125  0.00  0.00    +0.000 A 
ATOM      9  C   UNL     1       6.791   5.144  15.351  0.00  0.00    +0.000 A 
ATOM     10  C   UNL     1       5.839   4.124  15.454  0.00  0.00    +0.000 A 
ATOM     11  C   UNL     1       5.424   3.456  14.281  0.00  0.00    +0.000 A 
ATOM     12  C   UNL     1       6.035   3.742  13.053  0.00  0.00    +0.000 A 
BRANCH   7  14
ATOM     13  C   UNL     1       8.018   6.190  11.470  0.00  0.00    +0.000 C 
ATOM     14  O   UNL     1       7.665   4.840  11.773  0.00  0.00    +0.000 OA
ENDBRANCH   7  14
ENDBRANCH   6  10
ENDBRANCH   1   6
BRANCH   5  15
ATOM     15  C   UNL     1       3.918   4.930  19.744  0.00  0.00    +0.000 C 
BRANCH  15  16
ATOM     16  C   UNL     1       3.211   6.265  19.301  0.00  0.00    +0.000 A 
ATOM     17  C   UNL     1       3.316   6.875  18.047  0.00  0.00    +0.000 A 
ATOM     18  C   UNL     1       2.664   8.080  17.771  0.00  0.00    +0.000 A 
ATOM     19  N   UNL     1       1.831   8.695  18.622  0.00  0.00    +0.000 NA
ATOM     20  C   UNL     1       1.643   8.080  19.798  0.00  0.00    +0.000 A 
ATOM     21  C   UNL     1       2.279   6.900  20.161  0.00  0.00    +0.000 A 
ENDBRANCH  15  16
BRANCH  15  22
ATOM     22  N   UNL     1       3.262   3.600  19.466  0.00  0.00    +0.000 NA
ATOM     23  C   UNL     1       1.899   3.379  18.935  0.00  0.00    +0.000 C 
ATOM     24  C   UNL     1       0.680   3.258  19.915  0.00  0.00    +0.000 C 
ATOM     25  O   UNL     1       0.970   2.820  21.251  0.00  0.00    +0.000 OA
ATOM     26  C   UNL     1       2.249   3.265  21.687  0.00  0.00    +0.000 C 
ATOM     27  C   UNL     1       3.280   2.740  20.679  0.00  0.00    +0.000 C 
ENDBRANCH  15  22
ENDBRANCH   5  15
TORSDOF 6
ENDMDL
MODEL 5
REMARK VINA RESULT:      -7.1      3.668      8.308
REMARK  Name = 
REMARK  7 active torsions:
REMARK  status: ('A' for Active; 'I' for Inactive)
REMARK    1  A    between atoms: C_1  and  O_2
REMARK    2  A    between atoms: O_2  and  C_3
REMARK    3  A    between atoms: C_6  and  C_7
REMARK    4  A    between atoms: C_7  and  N_8
REMARK    5  A    between atoms: C_12  and  C_13
REMARK    6  A    between atoms: C_13  and  C_14
REMARK    7  A    between atoms: C_13  and  N_20
REMARK                            x       y       z     vdW  Elec       q    Type
REMARK                         _______ _______ _______ _____ _____    ______ ____
ROOT
ATOM      1  N   UNL     1       1.683   8.303  19.439  0.00  0.00    +0.000 N 
ATOM      2  N   UNL     1       1.008   9.237  18.734  0.00  0.00    +0.000 NA
ATOM      3  N   UNL     1       1.576   9.282  17.549  0.00  0.00    +0.000 NA
ATOM      4  N   UNL     1       2.581   8.368  17.462  0.00  0.00    +0.000 NA
ATOM      5  C   UNL     1       2.611   7.686  18.601  0.00  0.00    +0.000 A 
ENDROOT
BRANCH   1   6
ATOM      6  C   UNL     1       1.409   8.284  20.870  0.00  0.00    +0.000 C 
BRANCH   6  10
ATOM      7  C   UNL     1      -0.775  11.627  22.488  0.00  0.00    +0.000 A 
ATOM      8  C   UNL     1       0.173  11.839  21.493  0.00  0.00    +0.000 A 
ATOM      9  C   UNL     1       0.923  10.783  20.979  0.00  0.00    +0.000 A 
ATOM     10  C   UNL     1       0.719   9.483  21.454  0.00  0.00    +0.000 A 
ATOM     11  C   UNL     1      -0.167   9.282  22.535  0.00  0.00    +0.000 A 
ATOM     12  C   UNL     1      -0.907  10.355  23.049  0.00  0.00    +0.000 A 
BRANCH   7  14
ATOM     13  C   UNL     1      -2.891  12.126  23.354  0.00  0.00    +0.000 C 
ATOM     14  O   UNL     1      -1.594  12.596  22.987  0.00  0.00    +0.000 OA
ENDBRANCH   7  14
ENDBRANCH   6  10
ENDBRANCH   1   6
BRANCH   5  15
ATOM     15  C   UNL     1       3.456   6.375  18.801  0.00  0.00    +0.000 C 
BRANCH  15  16
ATOM     16  C   UNL     1       2.472   5.181  19.098  0.00  0.00    +0.000 A 
ATOM     17  C   UNL     1       1.838   4.381  18.142  0.00  0.00    +0.000 A 
ATOM     18  C   UNL     1       0.958   3.363  18.519  0.00  0.00    +0.000 A 
ATOM     19  N   UNL     1       0.720   3.008  19.790  0.00  0.00    +0.000 NA
ATOM     20  C   UNL     1       1.389   3.702  20.722  0.00  0.00    +0.000 A 
ATOM     21  C   UNL     1       2.253   4.750  20.430  0.00  0.00    +0.000 A 
ENDBRANCH  15  16
BRANCH  15  22
ATOM     22  N   UNL     1       4.430   6.282  17.652  0.00  0.00    +0.000 NA
ATOM     23  C   UNL     1       4.627   5.128  16.750  0.00  0.00    +0.000 C 
ATOM     24  C   UNL     1       5.660   4.006  17.116  0.00  0.00    +0.000 C 
ATOM     25  O   UNL     1       6.740   4.385  17.983  0.00  0.00    +0.000 OA
ATOM     26  C   UNL     1       6.343   5.382  18.917  0.00  0.00    +0.000 C 
ATOM     27  C   UNL     1       5.813   6.575  18.110  0.00  0.00    +0.000 C 
ENDBRANCH  15  22
ENDBRANCH   5  15
TORSDOF 6
ENDMDL
MODEL 6
REMARK VINA RESULT:      -7.0      3.293      8.086
REMARK  Name = 
REMARK  7 active torsions:
REMARK  status: ('A' for Active; 'I' for Inactive)
REMARK    1  A    between atoms: C_1  and  O_2
REMARK    2  A    between atoms: O_2  and  C_3
REMARK    3  A    between atoms: C_6  and  C_7
REMARK    4  A    between atoms: C_7  and  N_8
REMARK    5  A    between atoms: C_12  and  C_13
REMARK    6  A    between atoms: C_13  and  C_14
REMARK    7  A    between atoms: C_13  and  N_20
REMARK                            x       y       z     vdW  Elec       q    Type
REMARK                         _______ _______ _______ _____ _____    ______ ____
ROOT
ATOM      1  N   UNL     1       2.081   7.986  19.094  0.00  0.00    +0.000 N 
ATOM      2  N   UNL     1       1.288   8.905  18.499  0.00  0.00    +0.000 NA
ATOM      3  N   UNL     1       1.821   9.140  17.320  0.00  0.00    +0.000 NA
ATOM      4  N   UNL     1       2.921   8.363  17.126  0.00  0.00    +0.000 NA
ATOM      5  C   UNL     1       3.054   7.572  18.186  0.00  0.00    +0.000 A 
ENDROOT
BRANCH   1   6
ATOM      6  C   UNL     1       1.841   7.785  20.516  0.00  0.00    +0.000 C 
BRANCH   6  10
ATOM      7  C   UNL     1      -0.494  10.747  22.601  0.00  0.00    +0.000 A 
ATOM      8  C   UNL     1      -0.714   9.396  22.846  0.00  0.00    +0.000 A 
ATOM      9  C   UNL     1      -0.003   8.415  22.159  0.00  0.00    +0.000 A 
ATOM     10  C   UNL     1       0.960   8.781  21.213  0.00  0.00    +0.000 A 
ATOM     11  C   UNL     1       1.111  10.147  20.887  0.00  0.00    +0.000 A 
ATOM     12  C   UNL     1       0.382  11.123  21.579  0.00  0.00    +0.000 A 
BRANCH   7  14
ATOM     13  C   UNL     1      -2.211  12.337  22.600  0.00  0.00    +0.000 C 
ATOM     14  O   UNL     1      -1.098  11.760  23.284  0.00  0.00    +0.000 OA
ENDBRANCH   7  14
ENDBRANCH   6  10
ENDBRANCH   1   6
BRANCH   5  15
ATOM     15  C   UNL     1       4.047   6.354  18.236  0.00  0.00    +0.000 C 
BRANCH  15  16
ATOM     16  C   UNL     1       3.236   5.057  18.607  0.00  0.00    +0.000 A 
ATOM     17  C   UNL     1       3.484   4.214  19.695  0.00  0.00    +0.000 A 
ATOM     18  C   UNL     1       2.716   3.068  19.913  0.00  0.00    +0.000 A 
ATOM     19  N   UNL     1       1.646   2.730  19.179  0.00  0.00    +0.000 NA
ATOM     20  C   UNL     1       1.334   3.572  18.185  0.00  0.00    +0.000 A 
ATOM     21  C   UNL     1       2.067   4.713  17.882  0.00  0.00    +0.000 A 
ENDBRANCH  15  16
BRANCH  15  22
ATOM     22  N   UNL     1       4.876   6.392  16.976  0.00  0.00    +0.000 NA
ATOM     23  C   UNL     1       5.193   5.250  16.091  0.00  0.00    +0.000 C 
ATOM     24  C   UNL     1       6.467   4.375  16.356  0.00  0.00    +0.000 C 
ATOM     25  O   UNL     1       7.544   5.005  17.066  0.00  0.00    +0.000 OA
ATOM     26  C   UNL     1       7.068   5.955  18.013  0.00  0.00    +0.000 C 
ATOM     27  C   UNL     1       6.217   6.975  17.244  0.00  0.00    +0.000 C 
ENDBRANCH  15  22
ENDBRANCH   5  15
TORSDOF 6
ENDMDL
MODEL 7
REMARK VINA RESULT:      -6.9      3.526      8.190
REMARK  Name = 
REMARK  7 active torsions:
REMARK  status: ('A' for Active; 'I' for Inactive)
REMARK    1  A    between atoms: C_1  and  O_2
REMARK    2  A    between atoms: O_2  and  C_3
REMARK    3  A    between atoms: C_6  and  C_7
REMARK    4  A    between atoms: C_7  and  N_8
REMARK    5  A    between atoms: C_12  and  C_13
REMARK    6  A    between atoms: C_13  and  C_14
REMARK    7  A    between atoms: C_13  and  N_20
REMARK                            x       y       z     vdW  Elec       q    Type
REMARK                         _______ _______ _______ _____ _____    ______ ____
ROOT
ATOM      1  N   UNL     1       1.812   8.231  19.279  0.00  0.00    +0.000 N 
ATOM      2  N   UNL     1       1.103   9.192  18.647  0.00  0.00    +0.000 NA
ATOM      3  N   UNL     1       1.656   9.336  17.462  0.00  0.00    +0.000 NA
ATOM      4  N   UNL     1       2.685   8.460  17.303  0.00  0.00    +0.000 NA
ATOM      5  C   UNL     1       2.747   7.701  18.392  0.00  0.00    +0.000 A 
ENDROOT
BRANCH   1   6
ATOM      6  C   UNL     1       1.554   8.105  20.707  0.00  0.00    +0.000 C 
BRANCH   6  10
ATOM      7  C   UNL     1      -0.602  11.306  22.624  0.00  0.00    +0.000 A 
ATOM      8  C   UNL     1      -0.799   9.994  23.042  0.00  0.00    +0.000 A 
ATOM      9  C   UNL     1      -0.146   8.935  22.415  0.00  0.00    +0.000 A 
ATOM     10  C   UNL     1       0.733   9.182  21.355  0.00  0.00    +0.000 A 
ATOM     11  C   UNL     1       0.855  10.500  20.863  0.00  0.00    +0.000 A 
ATOM     12  C   UNL     1       0.184  11.555  21.497  0.00  0.00    +0.000 A 
BRANCH   7  14
ATOM     13  C   UNL     1      -0.771  13.640  22.643  0.00  0.00    +0.000 C 
ATOM     14  O   UNL     1      -1.148  12.396  23.234  0.00  0.00    +0.000 OA
ENDBRANCH   7  14
ENDBRANCH   6  10
ENDBRANCH   1   6
BRANCH   5  15
ATOM     15  C   UNL     1       3.631   6.404  18.492  0.00  0.00    +0.000 C 
BRANCH  15  16
ATOM     16  C   UNL     1       2.705   5.191  18.880  0.00  0.00    +0.000 A 
ATOM     17  C   UNL     1       1.860   4.491  18.012  0.00  0.00    +0.000 A 
ATOM     18  C   UNL     1       1.057   3.444  18.473  0.00  0.00    +0.000 A 
ATOM     19  N   UNL     1       1.089   2.968  19.726  0.00  0.00    +0.000 NA
ATOM     20  C   UNL     1       1.959   3.565  20.552  0.00  0.00    +0.000 A 
ATOM     21  C   UNL     1       2.767   4.633  20.181  0.00  0.00    +0.000 A 
ENDBRANCH  15  16
BRANCH  15  22
ATOM     22  N   UNL     1       4.481   6.337  17.247  0.00  0.00    +0.000 NA
ATOM     23  C   UNL     1       4.738   5.142  16.415  0.00  0.00    +0.000 C 
ATOM     24  C   UNL     1       5.948   4.199  16.739  0.00  0.00    +0.000 C 
ATOM     25  O   UNL     1       7.052   4.788  17.444  0.00  0.00    +0.000 OA
ATOM     26  C   UNL     1       6.623   5.804  18.343  0.00  0.00    +0.000 C 
ATOM     27  C   UNL     1       5.852   6.844  17.518  0.00  0.00    +0.000 C 
ENDBRANCH  15  22
ENDBRANCH   5  15
TORSDOF 6
ENDMDL
MODEL 8
REMARK VINA RESULT:      -6.8      3.472      8.217
REMARK  Name = 
REMARK  7 active torsions:
REMARK  status: ('A' for Active; 'I' for Inactive)
REMARK    1  A    between atoms: C_1  and  O_2
REMARK    2  A    between atoms: O_2  and  C_3
REMARK    3  A    between atoms: C_6  and  C_7
REMARK    4  A    between atoms: C_7  and  N_8
REMARK    5  A    between atoms: C_12  and  C_13
REMARK    6  A    between atoms: C_13  and  C_14
REMARK    7  A    between atoms: C_13  and  N_20
REMARK                            x       y       z     vdW  Elec       q    Type
REMARK                         _______ _______ _______ _____ _____    ______ ____
ROOT
ATOM      1  N   UNL     1       1.838   8.174  19.247  0.00  0.00    +0.000 N 
ATOM      2  N   UNL     1       1.102   9.091  18.581  0.00  0.00    +0.000 NA
ATOM      3  N   UNL     1       1.692   9.259  17.418  0.00  0.00    +0.000 NA
ATOM      4  N   UNL     1       2.773   8.440  17.304  0.00  0.00    +0.000 NA
ATOM      5  C   UNL     1       2.834   7.692  18.401  0.00  0.00    +0.000 A 
ENDROOT
BRANCH   1   6
ATOM      6  C   UNL     1       1.531   8.041  20.665  0.00  0.00    +0.000 C 
BRANCH   6  10
ATOM      7  C   UNL     1      -0.671  11.236  22.538  0.00  0.00    +0.000 A 
ATOM      8  C   UNL     1       0.136  11.506  21.439  0.00  0.00    +0.000 A 
ATOM      9  C   UNL     1       0.891  10.502  20.837  0.00  0.00    +0.000 A 
ATOM     10  C   UNL     1       0.835   9.193  21.329  0.00  0.00    +0.000 A 
ATOM     11  C   UNL     1       0.099   8.939  22.507  0.00  0.00    +0.000 A 
ATOM     12  C   UNL     1      -0.647   9.961  23.108  0.00  0.00    +0.000 A 
BRANCH   7  14
ATOM     13  C   UNL     1      -2.080  13.077  22.222  0.00  0.00    +0.000 C 
ATOM     14  O   UNL     1      -1.490  12.149  23.133  0.00  0.00    +0.000 OA
ENDBRANCH   7  14
ENDBRANCH   6  10
ENDBRANCH   1   6
BRANCH   5  15
ATOM     15  C   UNL     1       3.784   6.446  18.544  0.00  0.00    +0.000 C 
BRANCH  15  16
ATOM     16  C   UNL     1       2.914   5.189  18.922  0.00  0.00    +0.000 A 
ATOM     17  C   UNL     1       2.906   4.535  20.159  0.00  0.00    +0.000 A 
ATOM     18  C   UNL     1       2.113   3.406  20.375  0.00  0.00    +0.000 A 
ATOM     19  N   UNL     1       1.244   2.916  19.480  0.00  0.00    +0.000 NA
ATOM     20  C   UNL     1       1.167   3.582  18.319  0.00  0.00    +0.000 A 
ATOM     21  C   UNL     1       1.946   4.691  18.014  0.00  0.00    +0.000 A 
ENDBRANCH  15  16
BRANCH  15  22
ATOM     22  N   UNL     1       4.673   6.410  17.326  0.00  0.00    +0.000 NA
ATOM     23  C   UNL     1       4.817   5.292  16.369  0.00  0.00    +0.000 C 
ATOM     24  C   UNL     1       5.887   4.172  16.617  0.00  0.00    +0.000 C 
ATOM     25  O   UNL     1       7.023   4.534  17.418  0.00  0.00    +0.000 OA
ATOM     26  C   UNL     1       6.683   5.491  18.415  0.00  0.00    +0.000 C 
ATOM     27  C   UNL     1       6.083   6.705  17.693  0.00  0.00    +0.000 C 
ENDBRANCH  15  22
ENDBRANCH   5  15
TORSDOF 6
ENDMDL
MODEL 9
REMARK VINA RESULT:      -6.8      2.754      6.942
REMARK  Name = 
REMARK  7 active torsions:
REMARK  status: ('A' for Active; 'I' for Inactive)
REMARK    1  A    between atoms: C_1  and  O_2
REMARK    2  A    between atoms: O_2  and  C_3
REMARK    3  A    between atoms: C_6  and  C_7
REMARK    4  A    between atoms: C_7  and  N_8
REMARK    5  A    between atoms: C_12  and  C_13
REMARK    6  A    between atoms: C_13  and  C_14
REMARK    7  A    between atoms: C_13  and  N_20
REMARK                            x       y       z     vdW  Elec       q    Type
REMARK                         _______ _______ _______ _____ _____    ______ ____
ROOT
ATOM      1  N   UNL     1       3.085   3.799  17.761  0.00  0.00    +0.000 N 
ATOM      2  N   UNL     1       2.371   2.763  18.254  0.00  0.00    +0.000 NA
ATOM      3  N   UNL     1       3.178   1.724  18.244  0.00  0.00    +0.000 NA
ATOM      4  N   UNL     1       4.411   2.078  17.789  0.00  0.00    +0.000 NA
ATOM      5  C   UNL     1       4.401   3.387  17.562  0.00  0.00    +0.000 A 
ENDROOT
BRANCH   1   6
ATOM      6  C   UNL     1       2.308   4.983  17.419  0.00  0.00    +0.000 C 
BRANCH   6  10
ATOM      7  C   UNL     1       1.697   7.940  20.493  0.00  0.00    +0.000 A 
ATOM      8  C   UNL     1       1.988   8.344  19.195  0.00  0.00    +0.000 A 
ATOM      9  C   UNL     1       2.229   7.411  18.188  0.00  0.00    +0.000 A 
ATOM     10  C   UNL     1       2.170   6.042  18.473  0.00  0.00    +0.000 A 
ATOM     11  C   UNL     1       1.978   5.632  19.811  0.00  0.00    +0.000 A 
ATOM     12  C   UNL     1       1.747   6.581  20.814  0.00  0.00    +0.000 A 
BRANCH   7  14
ATOM     13  C   UNL     1       0.184   9.538  21.287  0.00  0.00    +0.000 C 
ATOM     14  O   UNL     1       1.380   8.791  21.510  0.00  0.00    +0.000 OA
ENDBRANCH   7  14
ENDBRANCH   6  10
ENDBRANCH   1   6
BRANCH   5  15
ATOM     15  C   UNL     1       5.702   4.224  17.276  0.00  0.00    +0.000 C 
BRANCH  15  16
ATOM     16  C   UNL     1       5.979   4.210  15.726  0.00  0.00    +0.000 A 
ATOM     17  C   UNL     1       5.083   3.800  14.733  0.00  0.00    +0.000 A 
ATOM     18  C   UNL     1       5.447   3.803  13.384  0.00  0.00    +0.000 A 
ATOM     19  N   UNL     1       6.615   4.270  12.922  0.00  0.00    +0.000 NA
ATOM     20  C   UNL     1       7.455   4.753  13.848  0.00  0.00    +0.000 A 
ATOM     21  C   UNL     1       7.182   4.755  15.210  0.00  0.00    +0.000 A 
ENDBRANCH  15  16
BRANCH  15  22
ATOM     22  N   UNL     1       5.568   5.537  18.007  0.00  0.00    +0.000 NA
ATOM     23  C   UNL     1       5.854   6.883  17.467  0.00  0.00    +0.000 C 
ATOM     24  C   UNL     1       7.295   7.491  17.581  0.00  0.00    +0.000 C 
ATOM     25  O   UNL     1       8.119   6.997  18.649  0.00  0.00    +0.000 OA
ATOM     26  C   UNL     1       7.850   5.628  18.933  0.00  0.00    +0.000 C 
ATOM     27  C   UNL     1       6.355   5.520  19.268  0.00  0.00    +0.000 C 
ENDBRANCH  15  22
ENDBRANCH   5  15
TORSDOF 6
ENDMDL
