MODEL 1
REMARK VINA RESULT:      -7.6      0.000      0.000
REMARK  Name = 
REMARK  10 active torsions:
REMARK  status: ('A' for Active; 'I' for Inactive)
REMARK    1  A    between atoms: C_1  and  C_2
REMARK    2  A    between atoms: C_2  and  O_3
REMARK    3  A    between atoms: O_3  and  C_4
REMARK    4  A    between atoms: C_8  and  C_9
REMARK    5  A    between atoms: C_12  and  S_13
REMARK    6  A    between atoms: S_13  and  C_14
REMARK    7  A    between atoms: C_14  and  C_15
REMARK    8  A    between atoms: N_17  and  C_18
REMARK    9  A    between atoms: C_20  and  C_21
REMARK   10  A    between atoms: C_23  and  C_24
REMARK                            x       y       z     vdW  Elec       q    Type
REMARK                         _______ _______ _______ _____ _____    ______ ____
ROOT
ATOM      1  C   UNL     1       4.291   3.202  17.884  0.00  0.00    +0.000 A 
ATOM      2  N   UNL     1       3.399   2.270  17.573  0.00  0.00    +0.000 NA
ATOM      3  N   UNL     1       2.911   1.713  18.738  0.00  0.00    +0.000 NA
ATOM      4  C   UNL     1       3.519   2.308  19.738  0.00  0.00    +0.000 A 
ATOM      5  N   UNL     1       4.358   3.268  19.253  0.00  0.00    +0.000 N 
ATOM      6  H   UNL     1       4.933   3.874  19.822  0.00  0.00    +0.000 HD
ENDROOT
BRANCH   1  11
ATOM      7  C   UNL     1       6.780   5.674  16.422  0.00  0.00    +0.000 A 
ATOM      8  C   UNL     1       6.534   5.501  15.057  0.00  0.00    +0.000 A 
ATOM      9  C   UNL     1       5.575   4.595  14.625  0.00  0.00    +0.000 A 
ATOM     10  C   UNL     1       4.847   3.857  15.559  0.00  0.00    +0.000 A 
ATOM     11  C   UNL     1       5.071   4.012  16.937  0.00  0.00    +0.000 A 
ATOM     12  C   UNL     1       6.049   4.929  17.356  0.00  0.00    +0.000 A 
BRANCH   7  13
ATOM     13  O   UNL     1       7.748   6.597  16.711  0.00  0.00    +0.000 OA
BRANCH  13  15
ATOM     14  C   UNL     1       7.816   8.697  17.823  0.00  0.00    +0.000 C 
ATOM     15  C   UNL     1       7.717   7.194  18.005  0.00  0.00    +0.000 C 
ENDBRANCH  13  15
ENDBRANCH   7  13
ENDBRANCH   1  11
BRANCH   4  16
ATOM     16  S   UNL     1       3.235   2.051  21.421  0.00  0.00    +0.000 S 
BRANCH  16  17
ATOM     17  C   UNL     1       1.690   2.964  21.742  0.00  0.00    +0.000 C 
BRANCH  17  18
ATOM     18  C   UNL     1       1.463   4.089  20.742  0.00  0.00    +0.000 C 
ATOM     19  O   UNL     1       0.680   3.956  19.796  0.00  0.00    +0.000 OA
ATOM     20  N   UNL     1       2.242   5.219  20.949  0.00  0.00    +0.000 N 
ATOM     21  H   UNL     1       3.000   5.166  21.620  0.00  0.00    +0.000 HD
BRANCH  20  22
ATOM     22  C   UNL     1       2.177   6.388  20.147  0.00  0.00    +0.000 A 
ATOM     23  C   UNL     1       2.840   6.487  18.923  0.00  0.00    +0.000 A 
ATOM     24  C   UNL     1       2.848   7.672  18.182  0.00  0.00    +0.000 A 
ATOM     25  C   UNL     1       3.634   7.757  16.909  0.00  0.00    +0.000 C 
ATOM     26  C   UNL     1       2.138   8.769  18.658  0.00  0.00    +0.000 A 
ATOM     27  C   UNL     1       1.422   8.689  19.861  0.00  0.00    +0.000 A 
ATOM     28  C   UNL     1       0.687   9.891  20.375  0.00  0.00    +0.000 C 
ATOM     29  C   UNL     1       1.440   7.487  20.600  0.00  0.00    +0.000 A 
ENDBRANCH  20  22
ENDBRANCH  17  18
ENDBRANCH  16  17
ENDBRANCH   4  16
TORSDOF 7
ENDMDL
MODEL 2
REMARK VINA RESULT:      -7.4      0.358      1.691
REMARK  Name = 
REMARK  10 active torsions:
REMARK  status: ('A' for Active; 'I' for Inactive)
REMARK    1  A    between atoms: C_1  and  C_2
REMARK    2  A    between atoms: C_2  and  O_3
REMARK    3  A    between atoms: O_3  and  C_4
REMARK    4  A    between atoms: C_8  and  C_9
REMARK    5  A    between atoms: C_12  and  S_13
REMARK    6  A    between atoms: S_13  and  C_14
REMARK    7  A    between atoms: C_14  and  C_15
REMARK    8  A    between atoms: N_17  and  C_18
REMARK    9  A    between atoms: C_20  and  C_21
REMARK   10  A    between atoms: C_23  and  C_24
REMARK                            x       y       z     vdW  Elec       q    Type
REMARK                         _______ _______ _______ _____ _____    ______ ____
ROOT
ATOM      1  C   UNL     1       4.417   3.270  17.988  0.00  0.00    +0.000 A 
ATOM      2  N   UNL     1       3.671   2.228  17.643  0.00  0.00    +0.000 NA
ATOM      3  N   UNL     1       3.155   1.651  18.786  0.00  0.00    +0.000 NA
ATOM      4  C   UNL     1       3.601   2.345  19.807  0.00  0.00    +0.000 A 
ATOM      5  N   UNL     1       4.360   3.384  19.354  0.00  0.00    +0.000 N 
ATOM      6  H   UNL     1       4.809   4.072  19.943  0.00  0.00    +0.000 HD
ENDROOT
BRANCH   1  11
ATOM      7  C   UNL     1       6.827   5.877  16.632  0.00  0.00    +0.000 A 
ATOM      8  C   UNL     1       6.598   5.742  15.259  0.00  0.00    +0.000 A 
ATOM      9  C   UNL     1       5.675   4.818  14.789  0.00  0.00    +0.000 A 
ATOM     10  C   UNL     1       4.967   4.023  15.691  0.00  0.00    +0.000 A 
ATOM     11  C   UNL     1       5.175   4.138  17.076  0.00  0.00    +0.000 A 
ATOM     12  C   UNL     1       6.117   5.075  17.534  0.00  0.00    +0.000 A 
BRANCH   7  13
ATOM     13  O   UNL     1       7.759   6.823  16.960  0.00  0.00    +0.000 OA
BRANCH  13  15
ATOM     14  C   UNL     1       8.406   8.797  18.116  0.00  0.00    +0.000 C 
ATOM     15  C   UNL     1       7.277   8.096  17.383  0.00  0.00    +0.000 C 
ENDBRANCH  13  15
ENDBRANCH   7  13
ENDBRANCH   1  11
BRANCH   4  16
ATOM     16  S   UNL     1       3.207   2.107  21.471  0.00  0.00    +0.000 S 
BRANCH  16  17
ATOM     17  C   UNL     1       1.540   2.828  21.627  0.00  0.00    +0.000 C 
BRANCH  17  18
ATOM     18  C   UNL     1       1.346   4.039  20.724  0.00  0.00    +0.000 C 
ATOM     19  O   UNL     1       0.599   3.992  19.742  0.00  0.00    +0.000 OA
ATOM     20  N   UNL     1       2.112   5.146  21.062  0.00  0.00    +0.000 N 
ATOM     21  H   UNL     1       2.845   5.033  21.752  0.00  0.00    +0.000 HD
BRANCH  20  22
ATOM     22  C   UNL     1       2.073   6.383  20.367  0.00  0.00    +0.000 A 
ATOM     23  C   UNL     1       1.338   7.475  20.834  0.00  0.00    +0.000 A 
ATOM     24  C   UNL     1       1.230   8.658  20.099  0.00  0.00    +0.000 A 
ATOM     25  C   UNL     1       0.371   9.779  20.602  0.00  0.00    +0.000 C 
ATOM     26  C   UNL     1       1.910   8.767  18.890  0.00  0.00    +0.000 A 
ATOM     27  C   UNL     1       2.695   7.706  18.416  0.00  0.00    +0.000 A 
ATOM     28  C   UNL     1       3.397   7.828  17.096  0.00  0.00    +0.000 C 
ATOM     29  C   UNL     1       2.778   6.515  19.166  0.00  0.00    +0.000 A 
ENDBRANCH  20  22
ENDBRANCH  17  18
ENDBRANCH  16  17
ENDBRANCH   4  16
TORSDOF 7
ENDMDL
MODEL 3
REMARK VINA RESULT:      -7.2      4.112      6.742
REMARK  Name = 
REMARK  10 active torsions:
REMARK  status: ('A' for Active; 'I' for Inactive)
REMARK    1  A    between atoms: C_1  and  C_2
REMARK    2  A    between atoms: C_2  and  O_3
REMARK    3  A    between atoms: O_3  and  C_4
REMARK    4  A    between atoms: C_8  and  C_9
REMARK    5  A    between atoms: C_12  and  S_13
REMARK    6  A    between atoms: S_13  and  C_14
REMARK    7  A    between atoms: C_14  and  C_15
REMARK    8  A    between atoms: N_17  and  C_18
REMARK    9  A    between atoms: C_20  and  C_21
REMARK   10  A    between atoms: C_23  and  C_24
REMARK                            x       y       z     vdW  Elec       q    Type
REMARK                         _______ _______ _______ _____ _____    ______ ____
ROOT
ATOM      1  C   UNL     1       8.591   9.214  18.464  0.00  0.00    +0.000 A 
ATOM      2  N   UNL     1       7.724   9.106  17.465  0.00  0.00    +0.000 NA
ATOM      3  N   UNL     1       7.347   7.784  17.343  0.00  0.00    +0.000 NA
ATOM      4  C   UNL     1       7.996   7.108  18.262  0.00  0.00    +0.000 A 
ATOM      5  N   UNL     1       8.752   7.964  19.006  0.00  0.00    +0.000 N 
ATOM      6  H   UNL     1       9.338   7.692  19.784  0.00  0.00    +0.000 HD
ENDROOT
BRANCH   1  11
ATOM      7  C   UNL     1       9.830  12.102  20.602  0.00  0.00    +0.000 A 
ATOM      8  C   UNL     1      10.606  12.793  19.667  0.00  0.00    +0.000 A 
ATOM      9  C   UNL     1      10.722  12.323  18.366  0.00  0.00    +0.000 A 
ATOM     10  C   UNL     1      10.053  11.158  17.986  0.00  0.00    +0.000 A 
ATOM     11  C   UNL     1       9.265  10.445  18.904  0.00  0.00    +0.000 A 
ATOM     12  C   UNL     1       9.163  10.931  20.218  0.00  0.00    +0.000 A 
BRANCH   7  13
ATOM     13  O   UNL     1       9.800  12.672  21.845  0.00  0.00    +0.000 OA
BRANCH  13  15
ATOM     14  C   UNL     1       7.805  13.368  22.934  0.00  0.00    +0.000 C 
ATOM     15  C   UNL     1       8.787  12.228  22.744  0.00  0.00    +0.000 C 
ENDBRANCH  13  15
ENDBRANCH   7  13
ENDBRANCH   1  11
BRANCH   4  16
ATOM     16  S   UNL     1       7.844   5.423  18.607  0.00  0.00    +0.000 S 
BRANCH  16  17
ATOM     17  C   UNL     1       6.909   4.774  17.184  0.00  0.00    +0.000 C 
BRANCH  17  18
ATOM     18  C   UNL     1       5.403   4.840  17.401  0.00  0.00    +0.000 C 
ATOM     19  O   UNL     1       4.637   5.151  16.483  0.00  0.00    +0.000 OA
ATOM     20  N   UNL     1       4.990   4.588  18.702  0.00  0.00    +0.000 N 
ATOM     21  H   UNL     1       5.693   4.544  19.431  0.00  0.00    +0.000 HD
BRANCH  20  22
ATOM     22  C   UNL     1       3.634   4.581  19.119  0.00  0.00    +0.000 A 
ATOM     23  C   UNL     1       3.061   5.656  19.801  0.00  0.00    +0.000 A 
ATOM     24  C   UNL     1       1.752   5.605  20.289  0.00  0.00    +0.000 A 
ATOM     25  C   UNL     1       1.201   6.753  21.080  0.00  0.00    +0.000 C 
ATOM     26  C   UNL     1       0.986   4.469  20.050  0.00  0.00    +0.000 A 
ATOM     27  C   UNL     1       1.516   3.391  19.327  0.00  0.00    +0.000 A 
ATOM     28  C   UNL     1       0.687   2.161  19.104  0.00  0.00    +0.000 C 
ATOM     29  C   UNL     1       2.844   3.457  18.856  0.00  0.00    +0.000 A 
ENDBRANCH  20  22
ENDBRANCH  17  18
ENDBRANCH  16  17
ENDBRANCH   4  16
TORSDOF 7
ENDMDL
MODEL 4
REMARK VINA RESULT:      -7.1      1.181      2.417
REMARK  Name = 
REMARK  10 active torsions:
REMARK  status: ('A' for Active; 'I' for Inactive)
REMARK    1  A    between atoms: C_1  and  C_2
REMARK    2  A    between atoms: C_2  and  O_3
REMARK    3  A    between atoms: O_3  and  C_4
REMARK    4  A    between atoms: C_8  and  C_9
REMARK    5  A    between atoms: C_12  and  S_13
REMARK    6  A    between atoms: S_13  and  C_14
REMARK    7  A    between atoms: C_14  and  C_15
REMARK    8  A    between atoms: N_17  and  C_18
REMARK    9  A    between atoms: C_20  and  C_21
REMARK   10  A    between atoms: C_23  and  C_24
REMARK                            x       y       z     vdW  Elec       q    Type
REMARK                         _______ _______ _______ _____ _____    ______ ____
ROOT
ATOM      1  C   UNL     1       4.378   3.133  18.112  0.00  0.00    +0.000 A 
ATOM      2  N   UNL     1       3.463   2.241  17.753  0.00  0.00    +0.000 NA
ATOM      3  N   UNL     1       2.859   1.740  18.888  0.00  0.00    +0.000 NA
ATOM      4  C   UNL     1       3.422   2.326  19.919  0.00  0.00    +0.000 A 
ATOM      5  N   UNL     1       4.345   3.229  19.480  0.00  0.00    +0.000 N 
ATOM      6  H   UNL     1       4.908   3.818  20.079  0.00  0.00    +0.000 HD
ENDROOT
BRANCH   1  11
ATOM      7  C   UNL     1       5.969   4.612  14.994  0.00  0.00    +0.000 A 
ATOM      8  C   UNL     1       7.010   5.348  15.568  0.00  0.00    +0.000 A 
ATOM      9  C   UNL     1       7.186   5.360  16.944  0.00  0.00    +0.000 A 
ATOM     10  C   UNL     1       6.324   4.628  17.761  0.00  0.00    +0.000 A 
ATOM     11  C   UNL     1       5.270   3.877  17.212  0.00  0.00    +0.000 A 
ATOM     12  C   UNL     1       5.104   3.881  15.817  0.00  0.00    +0.000 A 
BRANCH   7  13
ATOM     13  O   UNL     1       5.909   4.686  13.630  0.00  0.00    +0.000 OA
BRANCH  13  15
ATOM     14  C   UNL     1       4.988   3.259  11.965  0.00  0.00    +0.000 C 
ATOM     15  C   UNL     1       6.162   3.489  12.898  0.00  0.00    +0.000 C 
ENDBRANCH  13  15
ENDBRANCH   7  13
ENDBRANCH   1  11
BRANCH   4  16
ATOM     16  S   UNL     1       2.998   2.127  21.581  0.00  0.00    +0.000 S 
BRANCH  16  17
ATOM     17  C   UNL     1       1.507   3.158  21.773  0.00  0.00    +0.000 C 
BRANCH  17  18
ATOM     18  C   UNL     1       1.385   4.209  20.678  0.00  0.00    +0.000 C 
ATOM     19  O   UNL     1       0.620   4.050  19.721  0.00  0.00    +0.000 OA
ATOM     20  N   UNL     1       2.232   5.299  20.819  0.00  0.00    +0.000 N 
ATOM     21  H   UNL     1       2.967   5.252  21.516  0.00  0.00    +0.000 HD
BRANCH  20  22
ATOM     22  C   UNL     1       2.270   6.399  19.924  0.00  0.00    +0.000 A 
ATOM     23  C   UNL     1       3.030   6.379  18.753  0.00  0.00    +0.000 A 
ATOM     24  C   UNL     1       3.134   7.499  17.923  0.00  0.00    +0.000 A 
ATOM     25  C   UNL     1       4.021   7.458  16.715  0.00  0.00    +0.000 C 
ATOM     26  C   UNL     1       2.425   8.650  18.250  0.00  0.00    +0.000 A 
ATOM     27  C   UNL     1       1.614   8.687  19.394  0.00  0.00    +0.000 A 
ATOM     28  C   UNL     1       0.881   9.946  19.748  0.00  0.00    +0.000 C 
ATOM     29  C   UNL     1       1.536   7.551  20.225  0.00  0.00    +0.000 A 
ENDBRANCH  20  22
ENDBRANCH  17  18
ENDBRANCH  16  17
ENDBRANCH   4  16
TORSDOF 7
ENDMDL
MODEL 5
REMARK VINA RESULT:      -7.1      4.675      7.227
REMARK  Name = 
REMARK  10 active torsions:
REMARK  status: ('A' for Active; 'I' for Inactive)
REMARK    1  A    between atoms: C_1  and  C_2
REMARK    2  A    between atoms: C_2  and  O_3
REMARK    3  A    between atoms: O_3  and  C_4
REMARK    4  A    between atoms: C_8  and  C_9
REMARK    5  A    between atoms: C_12  and  S_13
REMARK    6  A    between atoms: S_13  and  C_14
REMARK    7  A    between atoms: C_14  and  C_15
REMARK    8  A    between atoms: N_17  and  C_18
REMARK    9  A    between atoms: C_20  and  C_21
REMARK   10  A    between atoms: C_23  and  C_24
REMARK                            x       y       z     vdW  Elec       q    Type
REMARK                         _______ _______ _______ _____ _____    ______ ____
ROOT
ATOM      1  C   UNL     1       2.548   7.586  18.116  0.00  0.00    +0.000 A 
ATOM      2  N   UNL     1       2.703   8.557  17.224  0.00  0.00    +0.000 NA
ATOM      3  N   UNL     1       1.995   9.665  17.644  0.00  0.00    +0.000 NA
ATOM      4  C   UNL     1       1.414   9.349  18.778  0.00  0.00    +0.000 A 
ATOM      5  N   UNL     1       1.762   8.077  19.128  0.00  0.00    +0.000 N 
ATOM      6  H   UNL     1       1.453   7.603  19.965  0.00  0.00    +0.000 HD
ENDROOT
BRANCH   1  11
ATOM      7  C   UNL     1       3.096   3.856  18.596  0.00  0.00    +0.000 A 
ATOM      8  C   UNL     1       4.227   3.663  17.797  0.00  0.00    +0.000 A 
ATOM      9  C   UNL     1       4.797   4.730  17.116  0.00  0.00    +0.000 A 
ATOM     10  C   UNL     1       4.242   6.005  17.235  0.00  0.00    +0.000 A 
ATOM     11  C   UNL     1       3.107   6.229  18.033  0.00  0.00    +0.000 A 
ATOM     12  C   UNL     1       2.540   5.137  18.710  0.00  0.00    +0.000 A 
BRANCH   7  13
ATOM     13  O   UNL     1       2.638   2.724  19.211  0.00  0.00    +0.000 OA
BRANCH  13  15
ATOM     14  C   UNL     1       1.482   2.723  21.289  0.00  0.00    +0.000 C 
ATOM     15  C   UNL     1       1.331   2.772  19.780  0.00  0.00    +0.000 C 
ENDBRANCH  13  15
ENDBRANCH   7  13
ENDBRANCH   1  11
BRANCH   4  16
ATOM     16  S   UNL     1       0.465  10.387  19.779  0.00  0.00    +0.000 S 
BRANCH  16  17
ATOM     17  C   UNL     1       0.628   9.653  21.439  0.00  0.00    +0.000 C 
BRANCH  17  18
ATOM     18  C   UNL     1      -0.119  10.449  22.500  0.00  0.00    +0.000 C 
ATOM     19  O   UNL     1      -0.138  10.083  23.680  0.00  0.00    +0.000 OA
ATOM     20  N   UNL     1      -0.809  11.555  22.023  0.00  0.00    +0.000 N 
ATOM     21  H   UNL     1      -0.908  11.664  21.020  0.00  0.00    +0.000 HD
BRANCH  20  22
ATOM     22  C   UNL     1      -1.555  12.443  22.841  0.00  0.00    +0.000 A 
ATOM     23  C   UNL     1      -1.051  13.681  23.244  0.00  0.00    +0.000 A 
ATOM     24  C   UNL     1      -1.753  14.510  24.123  0.00  0.00    +0.000 A 
ATOM     25  C   UNL     1      -1.143  15.797  24.590  0.00  0.00    +0.000 C 
ATOM     26  C   UNL     1      -3.007  14.109  24.574  0.00  0.00    +0.000 A 
ATOM     27  C   UNL     1      -3.562  12.893  24.149  0.00  0.00    +0.000 A 
ATOM     28  C   UNL     1      -4.902  12.462  24.668  0.00  0.00    +0.000 C 
ATOM     29  C   UNL     1      -2.829  12.065  23.273  0.00  0.00    +0.000 A 
ENDBRANCH  20  22
ENDBRANCH  17  18
ENDBRANCH  16  17
ENDBRANCH   4  16
TORSDOF 7
ENDMDL
MODEL 6
REMARK VINA RESULT:      -7.1      1.264      3.025
REMARK  Name = 
REMARK  10 active torsions:
REMARK  status: ('A' for Active; 'I' for Inactive)
REMARK    1  A    between atoms: C_1  and  C_2
REMARK    2  A    between atoms: C_2  and  O_3
REMARK    3  A    between atoms: O_3  and  C_4
REMARK    4  A    between atoms: C_8  and  C_9
REMARK    5  A    between atoms: C_12  and  S_13
REMARK    6  A    between atoms: S_13  and  C_14
REMARK    7  A    between atoms: C_14  and  C_15
REMARK    8  A    between atoms: N_17  and  C_18
REMARK    9  A    between atoms: C_20  and  C_21
REMARK   10  A    between atoms: C_23  and  C_24
REMARK                            x       y       z     vdW  Elec       q    Type
REMARK                         _______ _______ _______ _____ _____    ______ ____
ROOT
ATOM      1  C   UNL     1       4.338   3.188  17.826  0.00  0.00    +0.000 A 
ATOM      2  N   UNL     1       3.318   2.389  17.540  0.00  0.00    +0.000 NA
ATOM      3  N   UNL     1       2.816   1.869  18.715  0.00  0.00    +0.000 NA
ATOM      4  C   UNL     1       3.543   2.351  19.696  0.00  0.00    +0.000 A 
ATOM      5  N   UNL     1       4.477   3.206  19.191  0.00  0.00    +0.000 N 
ATOM      6  H   UNL     1       5.153   3.716  19.744  0.00  0.00    +0.000 HD
ENDROOT
BRANCH   1  11
ATOM      7  C   UNL     1       6.271   4.130  14.692  0.00  0.00    +0.000 A 
ATOM      8  C   UNL     1       6.760   5.385  15.066  0.00  0.00    +0.000 A 
ATOM      9  C   UNL     1       6.463   5.911  16.316  0.00  0.00    +0.000 A 
ATOM     10  C   UNL     1       5.678   5.180  17.208  0.00  0.00    +0.000 A 
ATOM     11  C   UNL     1       5.174   3.915  16.860  0.00  0.00    +0.000 A 
ATOM     12  C   UNL     1       5.480   3.401  15.589  0.00  0.00    +0.000 A 
BRANCH   7  13
ATOM     13  O   UNL     1       6.638   3.730  13.437  0.00  0.00    +0.000 OA
BRANCH  13  15
ATOM     14  C   UNL     1       5.566   2.378  11.802  0.00  0.00    +0.000 C 
ATOM     15  C   UNL     1       5.637   3.761  12.422  0.00  0.00    +0.000 C 
ENDBRANCH  13  15
ENDBRANCH   7  13
ENDBRANCH   1  11
BRANCH   4  16
ATOM     16  S   UNL     1       3.306   2.086  21.386  0.00  0.00    +0.000 S 
BRANCH  16  17
ATOM     17  C   UNL     1       1.639   2.756  21.698  0.00  0.00    +0.000 C 
BRANCH  17  18
ATOM     18  C   UNL     1       1.348   3.997  20.865  0.00  0.00    +0.000 C 
ATOM     19  O   UNL     1       0.488   3.985  19.978  0.00  0.00    +0.000 OA
ATOM     20  N   UNL     1       2.158   5.089  21.143  0.00  0.00    +0.000 N 
ATOM     21  H   UNL     1       2.967   4.950  21.737  0.00  0.00    +0.000 HD
BRANCH  20  22
ATOM     22  C   UNL     1       2.045   6.348  20.498  0.00  0.00    +0.000 A 
ATOM     23  C   UNL     1       1.324   7.406  21.055  0.00  0.00    +0.000 A 
ATOM     24  C   UNL     1       1.141   8.612  20.373  0.00  0.00    +0.000 A 
ATOM     25  C   UNL     1       0.297   9.695  20.975  0.00  0.00    +0.000 C 
ATOM     26  C   UNL     1       1.732   8.778  19.124  0.00  0.00    +0.000 A 
ATOM     27  C   UNL     1       2.503   7.752  18.558  0.00  0.00    +0.000 A 
ATOM     28  C   UNL     1       3.108   7.937  17.198  0.00  0.00    +0.000 C 
ATOM     29  C   UNL     1       2.662   6.538  19.258  0.00  0.00    +0.000 A 
ENDBRANCH  20  22
ENDBRANCH  17  18
ENDBRANCH  16  17
ENDBRANCH   4  16
TORSDOF 7
ENDMDL
MODEL 7
REMARK VINA RESULT:      -7.0      1.979      6.338
REMARK  Name = 
REMARK  10 active torsions:
REMARK  status: ('A' for Active; 'I' for Inactive)
REMARK    1  A    between atoms: C_1  and  C_2
REMARK    2  A    between atoms: C_2  and  O_3
REMARK    3  A    between atoms: O_3  and  C_4
REMARK    4  A    between atoms: C_8  and  C_9
REMARK    5  A    between atoms: C_12  and  S_13
REMARK    6  A    between atoms: S_13  and  C_14
REMARK    7  A    between atoms: C_14  and  C_15
REMARK    8  A    between atoms: N_17  and  C_18
REMARK    9  A    between atoms: C_20  and  C_21
REMARK   10  A    between atoms: C_23  and  C_24
REMARK                            x       y       z     vdW  Elec       q    Type
REMARK                         _______ _______ _______ _____ _____    ______ ____
ROOT
ATOM      1  C   UNL     1       2.463   6.313  19.649  0.00  0.00    +0.000 A 
ATOM      2  N   UNL     1       3.721   5.948  19.863  0.00  0.00    +0.000 NA
ATOM      3  N   UNL     1       3.757   4.586  20.088  0.00  0.00    +0.000 NA
ATOM      4  C   UNL     1       2.522   4.147  20.016  0.00  0.00    +0.000 A 
ATOM      5  N   UNL     1       1.689   5.181  19.707  0.00  0.00    +0.000 N 
ATOM      6  H   UNL     1       0.689   5.101  19.585  0.00  0.00    +0.000 HD
ENDROOT
BRANCH   1  11
ATOM      7  C   UNL     1       0.908   9.749  20.122  0.00  0.00    +0.000 A 
ATOM      8  C   UNL     1       1.117  10.296  18.853  0.00  0.00    +0.000 A 
ATOM      9  C   UNL     1       1.753   9.557  17.865  0.00  0.00    +0.000 A 
ATOM     10  C   UNL     1       2.180   8.257  18.137  0.00  0.00    +0.000 A 
ATOM     11  C   UNL     1       1.982   7.681  19.403  0.00  0.00    +0.000 A 
ATOM     12  C   UNL     1       1.342   8.445  20.392  0.00  0.00    +0.000 A 
BRANCH   7  13
ATOM     13  O   UNL     1       0.271  10.582  21.000  0.00  0.00    +0.000 OA
BRANCH  13  15
ATOM     14  C   UNL     1      -1.515  12.025  21.614  0.00  0.00    +0.000 C 
ATOM     15  C   UNL     1      -0.687  11.490  20.462  0.00  0.00    +0.000 C 
ENDBRANCH  13  15
ENDBRANCH   7  13
ENDBRANCH   1  11
BRANCH   4  16
ATOM     16  S   UNL     1       1.999   2.507  20.145  0.00  0.00    +0.000 S 
BRANCH  16  17
ATOM     17  C   UNL     1       2.228   1.847  18.462  0.00  0.00    +0.000 C 
BRANCH  17  18
ATOM     18  C   UNL     1       2.957   2.825  17.551  0.00  0.00    +0.000 C 
ATOM     19  O   UNL     1       2.337   3.595  16.810  0.00  0.00    +0.000 OA
ATOM     20  N   UNL     1       4.342   2.730  17.583  0.00  0.00    +0.000 N 
ATOM     21  H   UNL     1       4.760   1.940  18.060  0.00  0.00    +0.000 HD
BRANCH  20  22
ATOM     22  C   UNL     1       5.214   3.557  16.828  0.00  0.00    +0.000 A 
ATOM     23  C   UNL     1       5.885   4.641  17.395  0.00  0.00    +0.000 A 
ATOM     24  C   UNL     1       6.671   5.505  16.626  0.00  0.00    +0.000 A 
ATOM     25  C   UNL     1       7.314   6.701  17.261  0.00  0.00    +0.000 C 
ATOM     26  C   UNL     1       6.823   5.249  15.267  0.00  0.00    +0.000 A 
ATOM     27  C   UNL     1       6.200   4.140  14.676  0.00  0.00    +0.000 A 
ATOM     28  C   UNL     1       6.350   3.897  13.203  0.00  0.00    +0.000 C 
ATOM     29  C   UNL     1       5.400   3.291  15.468  0.00  0.00    +0.000 A 
ENDBRANCH  20  22
ENDBRANCH  17  18
ENDBRANCH  16  17
ENDBRANCH   4  16
TORSDOF 7
ENDMDL
MODEL 8
REMARK VINA RESULT:      -7.0      4.105      5.706
REMARK  Name = 
REMARK  10 active torsions:
REMARK  status: ('A' for Active; 'I' for Inactive)
REMARK    1  A    between atoms: C_1  and  C_2
REMARK    2  A    between atoms: C_2  and  O_3
REMARK    3  A    between atoms: O_3  and  C_4
REMARK    4  A    between atoms: C_8  and  C_9
REMARK    5  A    between atoms: C_12  and  S_13
REMARK    6  A    between atoms: S_13  and  C_14
REMARK    7  A    between atoms: C_14  and  C_15
REMARK    8  A    between atoms: N_17  and  C_18
REMARK    9  A    between atoms: C_20  and  C_21
REMARK   10  A    between atoms: C_23  and  C_24
REMARK                            x       y       z     vdW  Elec       q    Type
REMARK                         _______ _______ _______ _____ _____    ______ ____
ROOT
ATOM      1  C   UNL     1       2.664   6.335  19.280  0.00  0.00    +0.000 A 
ATOM      2  N   UNL     1       2.177   5.608  20.278  0.00  0.00    +0.000 NA
ATOM      3  N   UNL     1       1.350   6.402  21.046  0.00  0.00    +0.000 NA
ATOM      4  C   UNL     1       1.354   7.600  20.510  0.00  0.00    +0.000 A 
ATOM      5  N   UNL     1       2.128   7.594  19.387  0.00  0.00    +0.000 N 
ATOM      6  H   UNL     1       2.285   8.392  18.788  0.00  0.00    +0.000 HD
ENDROOT
BRANCH   1  11
ATOM      7  C   UNL     1       5.621   6.161  16.899  0.00  0.00    +0.000 A 
ATOM      8  C   UNL     1       5.385   4.923  16.294  0.00  0.00    +0.000 A 
ATOM      9  C   UNL     1       4.282   4.163  16.658  0.00  0.00    +0.000 A 
ATOM     10  C   UNL     1       3.400   4.639  17.629  0.00  0.00    +0.000 A 
ATOM     11  C   UNL     1       3.612   5.881  18.252  0.00  0.00    +0.000 A 
ATOM     12  C   UNL     1       4.736   6.634  17.875  0.00  0.00    +0.000 A 
BRANCH   7  13
ATOM     13  O   UNL     1       6.740   6.807  16.449  0.00  0.00    +0.000 OA
BRANCH  13  15
ATOM     14  C   UNL     1       7.996   6.686  18.464  0.00  0.00    +0.000 C 
ATOM     15  C   UNL     1       7.455   7.607  17.387  0.00  0.00    +0.000 C 
ENDBRANCH  13  15
ENDBRANCH   7  13
ENDBRANCH   1  11
BRANCH   4  16
ATOM     16  S   UNL     1       0.431   8.967  21.023  0.00  0.00    +0.000 S 
BRANCH  16  17
ATOM     17  C   UNL     1       1.126  10.345  20.054  0.00  0.00    +0.000 C 
BRANCH  17  18
ATOM     18  C   UNL     1       0.112  10.943  19.089  0.00  0.00    +0.000 C 
ATOM     19  O   UNL     1       0.316  12.029  18.537  0.00  0.00    +0.000 OA
ATOM     20  N   UNL     1      -1.056  10.208  18.940  0.00  0.00    +0.000 N 
ATOM     21  H   UNL     1      -1.228   9.441  19.580  0.00  0.00    +0.000 HD
BRANCH  20  22
ATOM     22  C   UNL     1      -2.123  10.573  18.078  0.00  0.00    +0.000 A 
ATOM     23  C   UNL     1      -3.235  11.284  18.534  0.00  0.00    +0.000 A 
ATOM     24  C   UNL     1      -4.323  11.561  17.702  0.00  0.00    +0.000 A 
ATOM     25  C   UNL     1      -5.529  12.261  18.251  0.00  0.00    +0.000 C 
ATOM     26  C   UNL     1      -4.277  11.155  16.372  0.00  0.00    +0.000 A 
ATOM     27  C   UNL     1      -3.153  10.481  15.871  0.00  0.00    +0.000 A 
ATOM     28  C   UNL     1      -3.132  10.025  14.442  0.00  0.00    +0.000 C 
ATOM     29  C   UNL     1      -2.073  10.199  16.732  0.00  0.00    +0.000 A 
ENDBRANCH  20  22
ENDBRANCH  17  18
ENDBRANCH  16  17
ENDBRANCH   4  16
TORSDOF 7
ENDMDL
MODEL 9
REMARK VINA RESULT:      -7.0      2.674      7.081
REMARK  Name = 
REMARK  10 active torsions:
REMARK  status: ('A' for Active; 'I' for Inactive)
REMARK    1  A    between atoms: C_1  and  C_2
REMARK    2  A    between atoms: C_2  and  O_3
REMARK    3  A    between atoms: O_3  and  C_4
REMARK    4  A    between atoms: C_8  and  C_9
REMARK    5  A    between atoms: C_12  and  S_13
REMARK    6  A    between atoms: S_13  and  C_14
REMARK    7  A    between atoms: C_14  and  C_15
REMARK    8  A    between atoms: N_17  and  C_18
REMARK    9  A    between atoms: C_20  and  C_21
REMARK   10  A    between atoms: C_23  and  C_24
REMARK                            x       y       z     vdW  Elec       q    Type
REMARK                         _______ _______ _______ _____ _____    ______ ____
ROOT
ATOM      1  C   UNL     1       1.212   7.987  20.863  0.00  0.00    +0.000 A 
ATOM      2  N   UNL     1       2.003   7.861  19.804  0.00  0.00    +0.000 NA
ATOM      3  N   UNL     1       2.389   6.541  19.690  0.00  0.00    +0.000 NA
ATOM      4  C   UNL     1       1.836   5.887  20.684  0.00  0.00    +0.000 A 
ATOM      5  N   UNL     1       1.065   6.740  21.417  0.00  0.00    +0.000 N 
ATOM      6  H   UNL     1       0.525   6.478  22.230  0.00  0.00    +0.000 HD
ENDROOT
BRANCH   1  11
ATOM      7  C   UNL     1       0.196  11.632  21.214  0.00  0.00    +0.000 A 
ATOM      8  C   UNL     1      -0.597  11.562  22.364  0.00  0.00    +0.000 A 
ATOM      9  C   UNL     1      -0.794  10.349  23.008  0.00  0.00    +0.000 A 
ATOM     10  C   UNL     1      -0.192   9.193  22.511  0.00  0.00    +0.000 A 
ATOM     11  C   UNL     1       0.611   9.233  21.359  0.00  0.00    +0.000 A 
ATOM     12  C   UNL     1       0.795  10.468  20.716  0.00  0.00    +0.000 A 
BRANCH   7  13
ATOM     13  O   UNL     1       0.308  12.885  20.679  0.00  0.00    +0.000 OA
BRANCH  13  15
ATOM     14  C   UNL     1       1.336  13.535  18.635  0.00  0.00    +0.000 C 
ATOM     15  C   UNL     1       1.564  13.242  20.106  0.00  0.00    +0.000 C 
ENDBRANCH  13  15
ENDBRANCH   7  13
ENDBRANCH   1  11
BRANCH   4  16
ATOM     16  S   UNL     1       1.926   4.188  20.982  0.00  0.00    +0.000 S 
BRANCH  16  17
ATOM     17  C   UNL     1       1.998   3.461  19.312  0.00  0.00    +0.000 C 
BRANCH  17  18
ATOM     18  C   UNL     1       3.362   3.642  18.660  0.00  0.00    +0.000 C 
ATOM     19  O   UNL     1       4.330   2.955  19.000  0.00  0.00    +0.000 OA
ATOM     20  N   UNL     1       3.428   4.662  17.721  0.00  0.00    +0.000 N 
ATOM     21  H   UNL     1       2.648   5.306  17.652  0.00  0.00    +0.000 HD
BRANCH  20  22
ATOM     22  C   UNL     1       4.595   4.990  16.982  0.00  0.00    +0.000 A 
ATOM     23  C   UNL     1       4.900   4.378  15.765  0.00  0.00    +0.000 A 
ATOM     24  C   UNL     1       6.094   4.639  15.088  0.00  0.00    +0.000 A 
ATOM     25  C   UNL     1       6.416   3.905  13.821  0.00  0.00    +0.000 C 
ATOM     26  C   UNL     1       6.984   5.566  15.622  0.00  0.00    +0.000 A 
ATOM     27  C   UNL     1       6.686   6.233  16.819  0.00  0.00    +0.000 A 
ATOM     28  C   UNL     1       7.670   7.207  17.395  0.00  0.00    +0.000 C 
ATOM     29  C   UNL     1       5.481   5.944  17.492  0.00  0.00    +0.000 A 
ENDBRANCH  20  22
ENDBRANCH  17  18
ENDBRANCH  16  17
ENDBRANCH   4  16
TORSDOF 7
ENDMDL
